data_image0
_chemical_formula_structural       Cd4H16C12N12
_chemical_formula_sum              "Cd4 H16 C12 N12"
_cell_length_a       8.18659
_cell_length_b       8.18607
_cell_length_c       15.89175
_cell_angle_alpha    91.51338999999999
_cell_angle_beta     91.50893
_cell_angle_gamma    95.00591

_symmetry_space_group_name_H-M    'P 1'
_symmetry_Int_Tables_number       1

loop_
  _symmetry_equiv_pos_as_xyz
  'x,y,z'

loop_
  _atom_site_type_symbol
  _atom_site_label
  _atom_site_symmetry_multiplicity
  _atom_site_fract_x
  _atom_site_fract_y
  _atom_site_fract_z
  _atom_site_occupancy
  Cd  Cd1       1.0  0.48578  0.50935  0.25131  1.0000
  Cd  Cd2       1.0  0.5015399999999998  0.9991399999999999  0.0010999999999999996  1.0000
  Cd  Cd3       1.0  0.50932  0.4857499999999999  0.75127  1.0000
  Cd  Cd4       1.0  0.9991499999999999  0.50154  0.50113  1.0000
  H   H1        1.0  0.8121299999999998  0.17712999999999995  0.0459  1.0000
  H   H2        1.0  0.79331  0.00621  0.09844  1.0000
  H   H3        1.0  0.8797299999999999  0.85016  0.9786299999999998  1.0000
  H   H4        1.0  0.90128  0.03324  0.92269  1.0000
  H   H5        1.0  0.10243  0.96506  0.08349  1.0000
  H   H6        1.0  0.12305999999999999  0.14842  0.02816  1.0000
  H   H7        1.0  0.20357999999999998  0.99035  0.90678  1.0000
  H   H8        1.0  0.19094  0.8218  0.96113  1.0000
  H   H9        1.0  0.17713  0.8121499999999998  0.5459  1.0000
  H   H10       1.0  0.0062200000000000024  0.79336  0.59844  1.0000
  H   H11       1.0  0.8501799999999998  0.8797  0.47863  1.0000
  H   H12       1.0  0.03325000000000001  0.90125  0.42269  1.0000
  H   H13       1.0  0.96505  0.10245  0.58349  1.0000
  H   H14       1.0  0.14841  0.12307  0.52816  1.0000
  H   H15       1.0  0.99036  0.20357999999999998  0.4067899999999999  1.0000
  H   H16       1.0  0.8218099999999998  0.19091999999999995  0.46113  1.0000
  C   C1        1.0  0.49421  0.7178  0.16465999999999995  1.0000
  C   C2        1.0  0.51267  0.27593  0.83668  1.0000
  C   C3        1.0  0.6960399999999999  0.5204799999999998  0.34273  1.0000
  C   C4        1.0  0.47045  0.29809  0.16032999999999994  1.0000
  C   C5        1.0  0.91252  0.9828199999999999  0.9858099999999999  1.0000
  C   C6        1.0  0.08968999999999998  0.01597  0.0206  1.0000
  C   C7        1.0  0.7177899999999997  0.49421  0.66465  1.0000
  C   C8        1.0  0.2759299999999999  0.51268  0.33671  1.0000
  C   C9        1.0  0.52048  0.69604  0.84271  1.0000
  C   C10       1.0  0.29809  0.4704399999999999  0.6603199999999998  1.0000
  C   C11       1.0  0.9828199999999999  0.91251  0.48581  1.0000
  C   C12       1.0  0.01596999999999999  0.08969999999999999  0.5205899999999998  1.0000
  N   N1        1.0  0.49312999999999996  0.81149  0.11022  1.0000
  N   N2        1.0  0.52233  0.18117999999999995  0.8902  1.0000
  N   N3        1.0  0.7897699999999999  0.53123  0.4000399999999999  1.0000
  N   N4        1.0  0.46011  0.20426  0.10302  1.0000
  N   N5        1.0  0.7896099999999999  0.05244999999999998  0.03924  1.0000
  N   N6        1.0  0.21185  0.9468299999999997  0.96645  1.0000
  N   N7        1.0  0.8115099999999997  0.49312  0.61022  1.0000
  N   N8        1.0  0.18116  0.52233  0.39022  1.0000
  N   N9        1.0  0.53124  0.78976  0.90003  1.0000
  N   N10       1.0  0.20425999999999997  0.4600899999999999  0.6030199999999998  1.0000
  N   N11       1.0  0.052449999999999976  0.7896299999999998  0.53925  1.0000
  N   N12       1.0  0.9468299999999997  0.21183999999999995  0.46644999999999986  1.0000
