data_image0
_chemical_formula_structural       Cd4H24C36O16
_chemical_formula_sum              "Cd4 H24 C36 O16"
_cell_length_a       7.43632
_cell_length_b       11.175089999999999
_cell_length_c       15.74579
_cell_angle_alpha    89.99122
_cell_angle_beta     90.15568
_cell_angle_gamma    89.95747000000001

_symmetry_space_group_name_H-M    'P 1'
_symmetry_Int_Tables_number       1

loop_
  _symmetry_equiv_pos_as_xyz
  'x,y,z'

loop_
  _atom_site_type_symbol
  _atom_site_label
  _atom_site_symmetry_multiplicity
  _atom_site_fract_x
  _atom_site_fract_y
  _atom_site_fract_z
  _atom_site_occupancy
  Cd  Cd1       1.0  0.4568800000000001  0.50883  0.2141  1.0000
  Cd  Cd2       1.0  0.5422600000000002  0.00861  0.78604  1.0000
  Cd  Cd3       1.0  0.9577200000000002  0.50736  0.28479  1.0000
  Cd  Cd4       1.0  0.04378  0.0073  0.71426  1.0000
  H   H1        1.0  0.33165  0.44147  0.47477  1.0000
  H   H2        1.0  0.4673000000000001  0.24026999999999996  0.69844  1.0000
  H   H3        1.0  0.8227300000000002  0.23838999999999996  0.48247  1.0000
  H   H4        1.0  0.19036000000000006  0.34352999999999995  0.69653  1.0000
  H   H5        1.0  0.09026000000000003  0.36936  0.59553  1.0000
  H   H6        1.0  0.21308000000000005  0.48503  0.6460899999999998  1.0000
  H   H7        1.0  0.66787  0.9407199999999999  0.5256899999999998  1.0000
  H   H8        1.0  0.5333600000000002  0.7410699999999999  0.30119  1.0000
  H   H9        1.0  0.17872000000000005  0.73626  0.51737  1.0000
  H   H10       1.0  0.8101000000000002  0.8442099999999999  0.30359  1.0000
  H   H11       1.0  0.9100400000000002  0.86961  0.40466  1.0000
  H   H12       1.0  0.7867200000000002  0.9853999999999998  0.35439  1.0000
  H   H13       1.0  0.8300400000000002  0.44127999999999995  0.024179999999999993  1.0000
  H   H14       1.0  0.9673000000000003  0.24099  0.8008299999999998  1.0000
  H   H15       1.0  0.3205400000000001  0.23695999999999998  0.01832  1.0000
  H   H16       1.0  0.6891900000000002  0.3438  0.80215  1.0000
  H   H17       1.0  0.5893900000000002  0.36936  0.9028299999999998  1.0000
  H   H18       1.0  0.7117400000000002  0.48515  0.85271  1.0000
  H   H19       1.0  0.16895  0.94084  0.97561  1.0000
  H   H20       1.0  0.03197  0.7409899999999999  0.19915  1.0000
  H   H21       1.0  0.6788100000000002  0.7367199999999999  0.98159  1.0000
  H   H22       1.0  0.31016000000000005  0.84377  0.19768  1.0000
  H   H23       1.0  0.4099000000000001  0.86906  0.09692  1.0000
  H   H24       1.0  0.2873000000000001  0.9849899999999999  0.14696  1.0000
  C   C1        1.0  0.62679  0.39017999999999997  0.38354  1.0000
  C   C2        1.0  0.5813500000000003  0.34429  0.47042  1.0000
  C   C3        1.0  0.4213  0.38177  0.50949  1.0000
  C   C4        1.0  0.37813000000000013  0.34538  0.59211  1.0000
  C   C5        1.0  0.49828  0.26965  0.6344  1.0000
  C   C6        1.0  0.6568600000000002  0.22933  0.5954  1.0000
  C   C7        1.0  0.69919  0.26726  0.51301  1.0000
  C   C8        1.0  0.20852  0.38794  0.63505  1.0000
  C   C9        1.0  0.7816200000000002  0.15021  0.64273  1.0000
  C   C10       1.0  0.3720400000000001  0.88838  0.61641  1.0000
  C   C11       1.0  0.41888000000000003  0.8428599999999999  0.52975  1.0000
  C   C12       1.0  0.5787700000000001  0.88094  0.49087  1.0000
  C   C13       1.0  0.6221600000000003  0.8451899999999998  0.40809  1.0000
  C   C14       1.0  0.50243  0.76962  0.36548  1.0000
  C   C15       1.0  0.34418000000000004  0.72863  0.40449  1.0000
  C   C16       1.0  0.30203  0.76569  0.487  1.0000
  C   C17       1.0  0.7916000000000002  0.88824  0.36522  1.0000
  C   C18       1.0  0.21904000000000007  0.65018  0.3569499999999999  1.0000
  C   C19       1.0  0.12311  0.39026999999999995  0.11641  1.0000
  C   C20       1.0  0.07942  0.34399  0.02939  1.0000
  C   C21       1.0  0.9196200000000002  0.3816  0.9896099999999998  1.0000
  C   C22       1.0  0.8773500000000002  0.34538  0.90679  1.0000
  C   C23       1.0  0.9979600000000001  0.26969  0.86508  1.0000
  C   C24       1.0  0.15572000000000003  0.22877999999999998  0.9049499999999998  1.0000
  C   C25       1.0  0.19725000000000004  0.26658  0.9875299999999998  1.0000
  C   C26       1.0  0.7076400000000003  0.38804999999999995  0.86362  1.0000
  C   C27       1.0  0.28151  0.1499  0.85859  1.0000
  C   C28       1.0  0.8733300000000003  0.88841  0.8828399999999997  1.0000
  C   C29       1.0  0.91903  0.84363  0.97018  1.0000
  C   C30       1.0  0.07875  0.88134  0.0099  1.0000
  C   C31       1.0  0.12151  0.84521  0.09278  1.0000
  C   C32       1.0  0.00135  0.76943  0.13477  1.0000
  C   C33       1.0  0.84351  0.72846  0.09502  1.0000
  C   C34       1.0  0.80178  0.76632  0.01245  1.0000
  C   C35       1.0  0.29143  0.88784  0.13605  1.0000
  C   C36       1.0  0.7185000000000001  0.64855  0.14119  1.0000
  O   O1        1.0  0.4956600000000001  0.43561999999999995  0.34189  1.0000
  O   O2        1.0  0.7896800000000003  0.38131  0.35915  1.0000
  O   O3        1.0  0.7551300000000002  0.12735  0.72239  1.0000
  O   O4        1.0  0.9201800000000002  0.1088  0.60515  1.0000
  O   O5        1.0  0.5017200000000002  0.93372  0.65855  1.0000
  O   O6        1.0  0.20891  0.87883  0.64066  1.0000
  O   O7        1.0  0.24463000000000004  0.63012  0.27688  1.0000
  O   O8        1.0  0.08213000000000002  0.60615  0.3944899999999999  1.0000
  O   O9        1.0  0.9906900000000002  0.43541  0.15684  1.0000
  O   O10       1.0  0.2850100000000001  0.38153  0.14274  1.0000
  O   O11       1.0  0.25568  0.12673  0.77886  1.0000
  O   O12       1.0  0.4198900000000001  0.10885  0.89677  1.0000
  O   O13       1.0  0.004210000000000002  0.93323  0.84124  1.0000
  O   O14       1.0  0.71079  0.8784599999999998  0.85738  1.0000
  O   O15       1.0  0.74403  0.62493  0.22088999999999995  1.0000
  O   O16       1.0  0.5806100000000002  0.60677  0.10295  1.0000
