data_image0
_chemical_formula_structural       Mn2H28C40N4O8
_chemical_formula_sum              "Mn2 H28 C40 N4 O8"
_cell_length_a       9.70579
_cell_length_b       11.81269
_cell_length_c       11.77007
_cell_angle_alpha    61.04126
_cell_angle_beta     77.37581
_cell_angle_gamma    79.39567999999998

_space_group_name_H-M_alt    "P 1"
_space_group_IT_number       1

loop_
  _space_group_symop_operation_xyz
  'x, y, z'

loop_
  _atom_site_type_symbol
  _atom_site_label
  _atom_site_symmetry_multiplicity
  _atom_site_fract_x
  _atom_site_fract_y
  _atom_site_fract_z
  _atom_site_occupancy
  Mn  Mn1       1.0  0.0  0.5  0.5  1.0000
  Mn  Mn2       1.0  0.5000000000000001  0.5  0.5  1.0000
  H   H1        1.0  0.88111  0.8180899999999999  0.40646  1.0000
  H   H2        1.0  0.57944  0.82088  0.55793  1.0000
  H   H3        1.0  0.90845  0.008720000000000018  0.38921  1.0000
  H   H4        1.0  0.947  0.19156  0.4221  1.0000
  H   H5        1.0  0.55593  0.14247  0.68776  1.0000
  H   H6        1.0  0.5215199999999999  0.9506  0.66532  1.0000
  H   H7        1.0  0.934  0.40829  0.30868  1.0000
  H   H8        1.0  0.034240000000000013  0.39319  0.10127  1.0000
  H   H9        1.0  0.39109999999999995  0.58219  0.07179  1.0000
  H   H10       1.0  0.27970999999999996  0.58143  0.285  1.0000
  H   H11       1.0  0.32789999999999997  0.69077  0.8413099999999999  1.0000
  H   H12       1.0  0.4281  0.68641  0.62806  1.0000
  H   H13       1.0  0.34519  0.30538  0.78  1.0000
  H   H14       1.0  0.24618  0.28986  0.00178  1.0000
  H   H15       1.0  0.11888999999999997  0.1819  0.59355  1.0000
  H   H16       1.0  0.42056  0.17912000000000006  0.44208  1.0000
  H   H17       1.0  0.09155000000000002  0.99128  0.61079  1.0000
  H   H18       1.0  0.05299999999999995  0.80844  0.5779  1.0000
  H   H19       1.0  0.4440700000000001  0.8575300000000001  0.31225  1.0000
  H   H20       1.0  0.47848  0.0494  0.33469  1.0000
  H   H21       1.0  0.066  0.59171  0.69132  1.0000
  H   H22       1.0  0.9657599999999998  0.6068099999999998  0.89873  1.0000
  H   H23       1.0  0.6089000000000002  0.4178100000000001  0.92821  1.0000
  H   H24       1.0  0.72029  0.41856  0.715  1.0000
  H   H25       1.0  0.6721  0.30923000000000006  0.15869  1.0000
  H   H26       1.0  0.5718999999999999  0.31359000000000004  0.37193999999999994  1.0000
  H   H27       1.0  0.6548100000000001  0.69461  0.22000999999999998  1.0000
  H   H28       1.0  0.75382  0.7101399999999998  0.9982300000000001  1.0000
  C   C1        1.0  0.7334  0.6822  0.44208  1.0000
  C   C2        1.0  0.7728  0.7934400000000001  0.4499099999999999  1.0000
  C   C3        1.0  0.68413  0.8552899999999999  0.51234  1.0000
  C   C4        1.0  0.7124600000000001  0.9646800000000002  0.52628  1.0000
  C   C5        1.0  0.83198  0.03548000000000004  0.45687999999999995  1.0000
  C   C6        1.0  0.8534500000000002  0.13891  0.47449  1.0000
  C   C7        1.0  0.75441  0.17816000000000004  0.55835  1.0000
  C   C8        1.0  0.63437  0.10947000000000004  0.62622  1.0000
  C   C9        1.0  0.61494  0.0034699999999999796  0.6119  1.0000
  C   C10       1.0  0.77193  0.29596  0.56993  1.0000
  C   C11       1.0  0.03598  0.44347000000000003  0.25397  1.0000
  C   C12       1.0  0.09239  0.43547  0.13843  1.0000
  C   C13       1.0  0.22121  0.48791  0.06785  1.0000
  C   C14       1.0  0.2894999999999998  0.54243  0.12073  1.0000
  C   C15       1.0  0.22806999999999997  0.54258  0.23934  1.0000
  C   C16       1.0  0.28031  0.48933000000000004  0.9405  1.0000
  C   C17       1.0  0.33225  0.6022200000000001  0.8330199999999999  1.0000
  C   C18       1.0  0.38623  0.6014200000000002  0.71375  1.0000
  C   C19       1.0  0.3405099999999999  0.3876800000000001  0.79873  1.0000
  C   C20       1.0  0.28449  0.3801199999999999  0.92145  1.0000
  C   C21       1.0  0.26659999999999984  0.3178  0.55792  1.0000
  C   C22       1.0  0.22720000000000004  0.20656000000000002  0.55009  1.0000
  C   C23       1.0  0.31587000000000004  0.14471  0.48766999999999994  1.0000
  C   C24       1.0  0.28754  0.035320000000000025  0.4737199999999999  1.0000
  C   C25       1.0  0.16801999999999997  0.9645200000000003  0.54312  1.0000
  C   C26       1.0  0.14655  0.86109  0.52552  1.0000
  C   C27       1.0  0.24559000000000003  0.82184  0.44165999999999994  1.0000
  C   C28       1.0  0.36562999999999996  0.89053  0.37379  1.0000
  C   C29       1.0  0.38506  0.99653  0.3881  1.0000
  C   C30       1.0  0.22806999999999997  0.7040299999999999  0.43008  1.0000
  C   C31       1.0  0.96402  0.55652  0.74603  1.0000
  C   C32       1.0  0.9076099999999998  0.5645200000000001  0.86157  1.0000
  C   C33       1.0  0.7787900000000001  0.5120900000000004  0.9321599999999999  1.0000
  C   C34       1.0  0.7105000000000002  0.4575600000000001  0.87927  1.0000
  C   C35       1.0  0.77193  0.45742000000000005  0.76066  1.0000
  C   C36       1.0  0.7196899999999999  0.51067  0.059500000000000004  1.0000
  C   C37       1.0  0.66775  0.39778000000000013  0.16698  1.0000
  C   C38       1.0  0.61377  0.39857  0.28625  1.0000
  C   C39       1.0  0.65949  0.61232  0.20127  1.0000
  C   C40       1.0  0.7155100000000001  0.6198700000000001  0.07855  1.0000
  N   N1        1.0  0.10224000000000004  0.4953000000000001  0.30495  1.0000
  N   N2        1.0  0.39134  0.49608000000000024  0.69601  1.0000
  N   N3        1.0  0.8977600000000001  0.50469  0.69505  1.0000
  N   N4        1.0  0.60866  0.50392  0.30399  1.0000
  O   O1        1.0  0.83286  0.6169300000000001  0.4009599999999999  1.0000
  O   O2        1.0  0.60363  0.65748  0.4743  1.0000
  O   O3        1.0  0.8972000000000001  0.32891  0.54399  1.0000
  O   O4        1.0  0.65974  0.35442000000000007  0.60518  1.0000
  O   O5        1.0  0.16715  0.38307  0.59904  1.0000
  O   O6        1.0  0.39636999999999994  0.3425100000000001  0.5257  1.0000
  O   O7        1.0  0.10279999999999997  0.6710900000000002  0.45600999999999997  1.0000
  O   O8        1.0  0.34025999999999995  0.6455699999999999  0.39482  1.0000
