data_image0
_chemical_formula_structural       Sr4Zn2H18C42N6O24
_chemical_formula_sum              "Sr4 Zn2 H18 C42 N6 O24"
_cell_length_a       7.97392
_cell_length_b       13.78181
_cell_length_c       13.89842
_cell_angle_alpha    107.57598
_cell_angle_beta     98.69174
_cell_angle_gamma    96.07877

_symmetry_space_group_name_H-M    'P 1'
_symmetry_Int_Tables_number       1

loop_
  _symmetry_equiv_pos_as_xyz
  'x,y,z'

loop_
  _atom_site_type_symbol
  _atom_site_label
  _atom_site_symmetry_multiplicity
  _atom_site_fract_x
  _atom_site_fract_y
  _atom_site_fract_z
  _atom_site_occupancy
  Sr  Sr1       1.0  0.9548599999999999  0.37294  0.8709900000000003  1.0000
  Sr  Sr2       1.0  0.3733500000000001  0.30872  0.8033700000000001  1.0000
  Sr  Sr3       1.0  0.04514000000000001  0.62706  0.12901  1.0000
  Sr  Sr4       1.0  0.62665  0.69128  0.19663  1.0000
  Zn  Zn1       1.0  0.03632000000000001  0.24407  0.26837000000000005  1.0000
  Zn  Zn2       1.0  0.9636899999999997  0.75593  0.7316300000000001  1.0000
  H   H1        1.0  0.71375  0.83305  0.9644200000000002  1.0000
  H   H2        1.0  0.37393  0.59958  0.9003700000000001  1.0000
  H   H3        1.0  0.41913  0.21857999999999997  0.27283  1.0000
  H   H4        1.0  0.28625  0.16694  0.03558  1.0000
  H   H5        1.0  0.24511  0.56219  0.68437  1.0000
  H   H6        1.0  0.6872899999999998  0.5395  0.62984  1.0000
  H   H7        1.0  0.38388  0.012059999999999994  0.07153  1.0000
  H   H8        1.0  0.24488999999999997  0.8362299999999999  0.95011  1.0000
  H   H9        1.0  0.6161200000000001  0.9879300000000001  0.9284700000000001  1.0000
  H   H10       1.0  0.75511  0.16377  0.04989  1.0000
  H   H11       1.0  0.5808700000000001  0.78142  0.7271700000000001  1.0000
  H   H12       1.0  0.6688  0.28067  0.20329000000000005  1.0000
  H   H13       1.0  0.7548899999999997  0.43779999999999997  0.31563  1.0000
  H   H14       1.0  0.38856  0.5940200000000001  0.54542  1.0000
  H   H15       1.0  0.31272000000000005  0.46049999999999996  0.37016  1.0000
  H   H16       1.0  0.6114399999999998  0.40598  0.45458  1.0000
  H   H17       1.0  0.62607  0.40040999999999993  0.09964000000000002  1.0000
  H   H18       1.0  0.3312  0.71933  0.79671  1.0000
  C   C1        1.0  0.64201  0.60025  0.88851  1.0000
  C   C2        1.0  0.88504  0.2694  0.44363  1.0000
  C   C3        1.0  0.90486  0.92358  0.09683000000000001  1.0000
  C   C4        1.0  0.7754999999999999  0.6418800000000001  0.8500300000000002  1.0000
  C   C5        1.0  0.51987  0.37008  0.12881  1.0000
  C   C6        1.0  0.71519  0.99626  0.99472  1.0000
  C   C7        1.0  0.40744999999999987  0.26893  0.22566  1.0000
  C   C8        1.0  0.9625399999999997  0.82902  0.11438  1.0000
  C   C9        1.0  0.2245  0.35812  0.14997  1.0000
  C   C10       1.0  0.28481  0.0037400000000000007  0.005280000000000002  1.0000
  C   C11       1.0  0.97536  0.60053  0.3267700000000001  1.0000
  C   C12       1.0  0.21408999999999992  0.5077099999999999  0.60684  1.0000
  C   C13       1.0  0.7859100000000001  0.49229000000000006  0.39316000000000006  1.0000
  C   C14       1.0  0.48013000000000006  0.62992  0.8711900000000001  1.0000
  C   C15       1.0  0.037460000000000084  0.17098000000000008  0.8856200000000002  1.0000
  C   C16       1.0  0.59255  0.73106  0.77434  1.0000
  C   C17       1.0  0.70468  0.47489000000000003  0.4696300000000001  1.0000
  C   C18       1.0  0.45569  0.69641  0.8137000000000002  1.0000
  C   C19       1.0  0.88298  0.95697  0.74596  1.0000
  C   C20       1.0  0.9574400000000001  0.6211800000000001  0.8706400000000002  1.0000
  C   C21       1.0  0.29532  0.52511  0.53037  1.0000
  C   C22       1.0  0.024639999999999985  0.39946999999999994  0.67323  1.0000
  C   C23       1.0  0.77152  0.91037  0.01385  1.0000
  C   C24       1.0  0.042559999999999994  0.3788099999999999  0.12936  1.0000
  C   C25       1.0  0.6664  0.52405  0.94547  1.0000
  C   C26       1.0  0.22848  0.08962000000000006  0.98615  1.0000
  C   C27       1.0  0.040660000000000016  0.35577  0.48143  1.0000
  C   C28       1.0  0.97362  0.02395  0.16124  1.0000
  C   C29       1.0  0.11702999999999998  0.04302  0.25404  1.0000
  C   C30       1.0  0.95934  0.64422  0.51857  1.0000
  C   C31       1.0  0.20884999999999998  0.90614  0.9382100000000001  1.0000
  C   C32       1.0  0.25091  0.45243999999999995  0.43239  1.0000
  C   C33       1.0  0.02638  0.97605  0.83876  1.0000
  C   C34       1.0  0.35799  0.39974000000000004  0.11149  1.0000
  C   C35       1.0  0.3336  0.47595  0.05453  1.0000
  C   C36       1.0  0.54431  0.30357999999999996  0.18630000000000002  1.0000
  C   C37       1.0  0.09513999999999999  0.07642  0.90317  1.0000
  C   C38       1.0  0.11495000000000001  0.7306  0.55637  1.0000
  C   C39       1.0  0.79115  0.09386  0.06179  1.0000
  C   C40       1.0  0.74909  0.54756  0.56761  1.0000
  C   C41       1.0  0.08811999999999996  0.42077  0.58386  1.0000
  C   C42       1.0  0.9118800000000001  0.5792300000000001  0.41614000000000007  1.0000
  N   N1        1.0  0.7486599999999998  0.7049  0.79396  1.0000
  N   N2        1.0  0.91565  0.10659  0.14347  1.0000
  N   N3        1.0  0.25134  0.2951  0.20604000000000003  1.0000
  N   N4        1.0  0.12582000000000002  0.37127  0.40914000000000006  1.0000
  N   N5        1.0  0.87418  0.62873  0.59086  1.0000
  N   N6        1.0  0.08435000000000009  0.8934000000000002  0.8565300000000002  1.0000
  O   O1        1.0  0.85972  0.63255  0.27118  1.0000
  O   O2        1.0  0.34988  0.57169  0.10944  1.0000
  O   O3        1.0  0.18271000000000004  0.7549300000000001  0.4905000000000001  1.0000
  O   O4        1.0  0.8569399999999998  0.77842  0.15204000000000004  1.0000
  O   O5        1.0  0.14028  0.36744  0.72882  1.0000
  O   O6        1.0  0.8346999999999998  0.23367000000000004  0.3444800000000001  1.0000
  O   O7        1.0  0.8333099999999998  0.035  0.73147  1.0000
  O   O8        1.0  0.17429000000000003  0.13823000000000002  0.3073  1.0000
  O   O9        1.0  0.11391999999999997  0.58077  0.29971  1.0000
  O   O10       1.0  0.08906000000000001  0.79297  0.08128000000000003  1.0000
  O   O11       1.0  0.98442  0.5669100000000002  0.9313000000000002  1.0000
  O   O12       1.0  0.30847000000000013  0.44367000000000006  0.9572100000000001  1.0000
  O   O13       1.0  0.16529999999999997  0.76632  0.6555200000000001  1.0000
  O   O14       1.0  0.015579999999999991  0.43308  0.0687  1.0000
  O   O15       1.0  0.69153  0.55632  0.04279  1.0000
  O   O16       1.0  0.9109400000000001  0.20703000000000002  0.9187200000000002  1.0000
  O   O17       1.0  0.8860799999999996  0.41922  0.70029  1.0000
  O   O18       1.0  0.93265  0.34309  0.17035000000000003  1.0000
  O   O19       1.0  0.06734999999999997  0.65691  0.82965  1.0000
  O   O20       1.0  0.16669000000000003  0.965  0.26853  1.0000
  O   O21       1.0  0.82571  0.86176  0.6927  1.0000
  O   O22       1.0  0.14306000000000005  0.22158000000000005  0.8479600000000003  1.0000
  O   O23       1.0  0.6501199999999999  0.4283  0.89056  1.0000
  O   O24       1.0  0.81729  0.24506  0.50949  1.0000
