data_image0
_chemical_formula_structural       In6H6C12O30
_chemical_formula_sum              "In6 H6 C12 O30"
_cell_length_a       8.03082
_cell_length_b       11.25748
_cell_length_c       11.257410000000002
_cell_angle_alpha    114.48636999999998
_cell_angle_beta     103.78191
_cell_angle_gamma    103.78133

_symmetry_space_group_name_H-M    'P 1'
_symmetry_Int_Tables_number       1

loop_
  _symmetry_equiv_pos_as_xyz
  'x,y,z'

loop_
  _atom_site_type_symbol
  _atom_site_label
  _atom_site_symmetry_multiplicity
  _atom_site_fract_x
  _atom_site_fract_y
  _atom_site_fract_z
  _atom_site_occupancy
  In  In1       1.0  0.3432500000000002  0.9760300000000005  0.41253  1.0000
  In  In2       1.0  0.36706  0.43615000000000004  0.02329  1.0000
  In  In3       1.0  0.9311299999999998  0.5867100000000001  0.56292  1.0000
  In  In4       1.0  0.43113  0.56291  0.58671  1.0000
  In  In5       1.0  0.84326  0.41253000000000006  0.97603  1.0000
  In  In6       1.0  0.86707  0.02328999999999998  0.43615  1.0000
  H   H1        1.0  0.20881  0.17423000000000008  0.48778000000000005  1.0000
  H   H2        1.0  0.03383999999999998  0.31331  0.82521  1.0000
  H   H3        1.0  0.721  0.51195  0.68627  1.0000
  H   H4        1.0  0.22099999999999995  0.68626  0.51196  1.0000
  H   H5        1.0  0.70881  0.48778  0.17424  1.0000
  H   H6        1.0  0.53384  0.8252000000000002  0.31331  1.0000
  C   C1        1.0  0.6062099999999998  0.24898  0.66713  1.0000
  C   C2        1.0  0.57379  0.14160000000000006  0.72054  1.0000
  C   C3        1.0  0.35747  0.41771  0.75034  1.0000
  C   C4        1.0  0.43278  0.57844  0.85778  1.0000
  C   C5        1.0  0.93841  0.3317800000000001  0.58107  1.0000
  C   C6        1.0  0.85246  0.27863  0.42042  1.0000
  C   C7        1.0  0.4384099999999999  0.58107  0.33178  1.0000
  C   C8        1.0  0.35246  0.42041  0.27863  1.0000
  C   C9        1.0  0.10620999999999996  0.66712  0.24898000000000003  1.0000
  C   C10       1.0  0.07378999999999995  0.72054  0.1416  1.0000
  C   C11       1.0  0.8574699999999997  0.7503400000000001  0.41771  1.0000
  C   C12       1.0  0.9327800000000002  0.8577700000000003  0.57844  1.0000
  O   O1        1.0  0.14189000000000002  0.07096000000000005  0.43528000000000006  1.0000
  O   O2        1.0  0.5385399999999999  0.20428000000000007  0.5358600000000001  1.0000
  O   O3        1.0  0.4578799999999999  0.016939999999999997  0.63226  1.0000
  O   O4        1.0  0.9416499999999998  0.23971  0.61859  1.0000
  O   O5        1.0  0.8161799999999998  0.15046  0.33527  1.0000
  O   O6        1.0  0.07080000000000003  0.36486  0.92848  1.0000
  O   O7        1.0  0.33344  0.33103000000000005  0.7948900000000001  1.0000
  O   O8        1.0  0.44141  0.61484  0.9824  1.0000
  O   O9        1.0  0.70104  0.37856  0.75921  1.0000
  O   O10       1.0  0.6658700000000001  0.18475000000000005  0.8488300000000001  1.0000
  O   O11       1.0  0.7067899999999998  0.56383  0.63478  1.0000
  O   O12       1.0  0.001670000000000005  0.46295  0.66761  1.0000
  O   O13       1.0  0.82499  0.36713  0.38428  1.0000
  O   O14       1.0  0.32392  0.38038000000000005  0.62093  1.0000
  O   O15       1.0  0.48245999999999994  0.6634800000000001  0.81471  1.0000
  O   O16       1.0  0.20678000000000002  0.6347800000000001  0.56384  1.0000
  O   O17       1.0  0.5016600000000001  0.6676000000000001  0.46295  1.0000
  O   O18       1.0  0.32499  0.38428  0.36713  1.0000
  O   O19       1.0  0.82392  0.6209200000000001  0.38038  1.0000
  O   O20       1.0  0.9824599999999998  0.81471  0.66349  1.0000
  O   O21       1.0  0.6418899999999997  0.43528  0.07096  1.0000
  O   O22       1.0  0.03853999999999997  0.5358499999999999  0.20428  1.0000
  O   O23       1.0  0.95787  0.63226  0.01694  1.0000
  O   O24       1.0  0.44165  0.61858  0.23972  1.0000
  O   O25       1.0  0.31618000000000007  0.33527000000000007  0.15046  1.0000
  O   O26       1.0  0.5707999999999999  0.9284800000000002  0.36486  1.0000
  O   O27       1.0  0.83344  0.79488  0.33103  1.0000
  O   O28       1.0  0.9414099999999997  0.9824000000000002  0.61484  1.0000
  O   O29       1.0  0.20103999999999994  0.7592  0.37856  1.0000
  O   O30       1.0  0.16586000000000004  0.84882  0.18475  1.0000
