data_image0
_chemical_formula_structural       Fe3Co3H6C18O18
_chemical_formula_sum              "Fe3 Co3 H6 C18 O18"
_cell_length_a       11.37552
_cell_length_b       11.32768
_cell_length_c       11.69878
_cell_angle_alpha    83.51463
_cell_angle_beta     83.29582
_cell_angle_gamma    80.43618

_symmetry_space_group_name_H-M    'P 1'
_symmetry_Int_Tables_number       1

loop_
  _symmetry_equiv_pos_as_xyz
  'x,y,z'

loop_
  _atom_site_type_symbol
  _atom_site_label
  _atom_site_symmetry_multiplicity
  _atom_site_fract_x
  _atom_site_fract_y
  _atom_site_fract_z
  _atom_site_occupancy
  Fe  Fe1       1.0  0.51567  0.28323  0.21442  1.0000
  Fe  Fe2       1.0  0.71356  0.47904  0.7799500000000001  1.0000
  Fe  Fe3       1.0  0.40099  0.50719  0.94107  1.0000
  Co  Co1       1.0  0.6437499999999999  0.36007  0.09688  1.0000
  Co  Co2       1.0  0.6398299999999999  0.35306  0.90178  1.0000
  Co  Co3       1.0  0.49718999999999997  0.59936  0.05991  1.0000
  H   H1        1.0  0.20458999999999997  0.16226  0.27978  1.0000
  H   H2        1.0  0.96345  0.15158  0.28052  1.0000
  H   H3        1.0  0.26035  0.72303  0.38394  1.0000
  H   H4        1.0  0.84112  0.7903200000000001  0.71471  1.0000
  H   H5        1.0  0.85123  0.03236  0.71589  1.0000
  H   H6        1.0  0.27754  0.74302  0.61344  1.0000
  C   C1        1.0  0.27678  0.35745  0.11442  1.0000
  C   C2        1.0  0.16357999999999998  0.31433  0.14971  1.0000
  C   C3        1.0  0.13934  0.21917  0.22939  1.0000
  C   C4        1.0  0.016440000000000007  0.21352999999999997  0.22962  1.0000
  C   C5        1.0  0.9721399999999999  0.306  0.15086  1.0000
  C   C6        1.0  0.84977  0.34019  0.12128  1.0000
  C   C7        1.0  0.43825  0.51439  0.30224  1.0000
  C   C8        1.0  0.40735999999999994  0.57311  0.4089900000000001  1.0000
  C   C9        1.0  0.32189  0.66875  0.44014  1.0000
  C   C10       1.0  0.64797  0.7165899999999998  0.88435  1.0000
  C   C11       1.0  0.69318  0.82936  0.84985  1.0000
  C   C12       1.0  0.7857699999999999  0.8547300000000001  0.76774  1.0000
  C   C13       1.0  0.7912699999999999  0.97818  0.76828  1.0000
  C   C14       1.0  0.7014199999999999  0.02145  0.85015  1.0000
  C   C15       1.0  0.66598  0.14464999999999997  0.8792400000000001  1.0000
  C   C16       1.0  0.4815500000000001  0.56075  0.69765  1.0000
  C   C17       1.0  0.42230999999999996  0.59015  0.59196  1.0000
  C   C18       1.0  0.33013000000000003  0.6784599999999997  0.55875  1.0000
  O   O1        1.0  0.28076  0.44670999999999994  0.03526  1.0000
  O   O2        1.0  0.36586  0.30038  0.16528  1.0000
  O   O3        1.0  0.06138  0.36901  0.10130000000000002  1.0000
  O   O4        1.0  0.80905  0.43397  0.0581  1.0000
  O   O5        1.0  0.77602  0.26721  0.16602  1.0000
  O   O6        1.0  0.4152299999999999  0.57753  0.20664  1.0000
  O   O7        1.0  0.4877500000000001  0.4038899999999999  0.31382  1.0000
  O   O8        1.0  0.56534  0.15590999999999997  0.27419  1.0000
  O   O9        1.0  0.55846  0.7153899999999999  0.9625000000000001  1.0000
  O   O10       1.0  0.70356  0.62593  0.83408  1.0000
  O   O11       1.0  0.64071  0.93104  0.90156  1.0000
  O   O12       1.0  0.5715499999999999  0.18461  0.9420600000000001  1.0000
  O   O13       1.0  0.73752  0.21967999999999996  0.8342900000000001  1.0000
  O   O14       1.0  0.42227999999999993  0.5894899999999998  0.7941100000000001  1.0000
  O   O15       1.0  0.5899499999999998  0.50587  0.68579  1.0000
  O   O16       1.0  0.83892  0.43262  0.71494  1.0000
  O   O17       1.0  0.4697299999999999  0.52434  0.50117  1.0000
  O   O18       1.0  0.541  0.4526200000000001  0.99908  1.0000
