data_image0
_chemical_formula_structural       Er2H6C18N6O12
_chemical_formula_sum              "Er2 H6 C18 N6 O12"
_cell_length_a       5.77941
_cell_length_b       12.10075
_cell_length_c       12.21647
_cell_angle_alpha    110.80792000000001
_cell_angle_beta     94.88606
_cell_angle_gamma    90.27737

_symmetry_space_group_name_H-M    'P 1'
_symmetry_Int_Tables_number       1

loop_
  _symmetry_equiv_pos_as_xyz
  'x,y,z'

loop_
  _atom_site_type_symbol
  _atom_site_label
  _atom_site_symmetry_multiplicity
  _atom_site_fract_x
  _atom_site_fract_y
  _atom_site_fract_z
  _atom_site_occupancy
  Er  Er1       1.0  0.32957  0.16653999999999994  0.33335  1.0000
  Er  Er2       1.0  0.66622  0.836  0.6775399999999999  1.0000
  H   H1        1.0  0.10948  0.08171  0.01762  1.0000
  H   H2        1.0  0.89807  0.9194  0.29135999999999995  1.0000
  H   H3        1.0  0.7522700000000001  0.36305  0.55441  1.0000
  H   H4        1.0  0.87956  0.9165  0.99198  1.0000
  H   H5        1.0  0.09333999999999998  0.07660999999999996  0.7129399999999999  1.0000
  H   H6        1.0  0.25627  0.64609  0.4592899999999999  1.0000
  C   C1        1.0  0.64065  0.033179999999999994  0.10332  1.0000
  C   C2        1.0  0.28221  0.04601999999999999  0.012669999999999999  1.0000
  C   C3        1.0  0.17664  0.07450999999999992  0.5453299999999999  1.0000
  C   C4        1.0  0.94167  0.9570999999999998  0.38564999999999994  1.0000
  C   C5        1.0  0.32722  0.46149999999999997  0.42127999999999993  1.0000
  C   C6        1.0  0.64226  0.42482999999999993  0.53066  1.0000
  C   C7        1.0  0.80085  0.08053  0.21458  1.0000
  C   C8        1.0  0.39669000000000004  0.14908  0.59227  1.0000
  C   C9        1.0  0.12359999999999997  0.4100799999999999  0.32953999999999994  1.0000
  C   C10       1.0  0.35315  0.9693399999999998  0.90633  1.0000
  C   C11       1.0  0.7102399999999999  0.9556299999999998  0.9969999999999998  1.0000
  C   C12       1.0  0.80955  0.92308  0.45956  1.0000
  C   C13       1.0  0.04618999999999999  0.03978000000000002  0.61905  1.0000
  C   C14       1.0  0.67809  0.546  0.59189  1.0000
  C   C15       1.0  0.36515  0.58298  0.48137  1.0000
  C   C16       1.0  0.19379  0.9208499999999997  0.79534  1.0000
  C   C17       1.0  0.58557  0.85032  0.41605999999999993  1.0000
  C   C18       1.0  0.87154  0.5967499999999998  0.68944  1.0000
  N   N1        1.0  0.42585000000000006  0.0768  0.11182  1.0000
  N   N2        1.0  0.12281  0.035309999999999994  0.42804  1.0000
  N   N3        1.0  0.46852  0.3828599999999999  0.4449  1.0000
  N   N4        1.0  0.56802  0.92625  0.8976299999999999  1.0000
  N   N5        1.0  0.8660299999999999  0.9616399999999998  0.57691  1.0000
  N   N6        1.0  0.54006  0.62473  0.56651  1.0000
  O   O1        1.0  0.70769  0.14271  0.30596  1.0000
  O   O2        1.0  0.46939  0.19585999999999998  0.52046  1.0000
  O   O3        1.0  0.1197  0.29376  0.28509  1.0000
  O   O4        1.0  0.013009999999999996  0.056719999999999986  0.20917999999999998  1.0000
  O   O5        1.0  0.49162000000000006  0.15477999999999995  0.68939  1.0000
  O   O6        1.0  0.98122  0.47475  0.30466  1.0000
  O   O7        1.0  0.28675  0.8571199999999998  0.70463  1.0000
  O   O8        1.0  0.51095  0.81016  0.49247  1.0000
  O   O9        1.0  0.86658  0.71245  0.73803  1.0000
  O   O10       1.0  0.9819000000000001  0.9453099999999998  0.80044  1.0000
  O   O11       1.0  0.48933  0.8404  0.31806  1.0000
  O   O12       1.0  0.012470000000000016  0.53263  0.71537  1.0000
