data_image0
_chemical_formula_structural       V2H16C28O10
_chemical_formula_sum              "V2 H16 C28 O10"
_cell_length_a       7.40792
_cell_length_b       15.28401
_cell_length_c       15.28808
_cell_angle_alpha    84.46976
_cell_angle_beta     76.25651
_cell_angle_gamma    76.31526

_space_group_name_H-M_alt    "P 1"
_space_group_IT_number       1

loop_
  _space_group_symop_operation_xyz
  'x, y, z'

loop_
  _atom_site_type_symbol
  _atom_site_label
  _atom_site_symmetry_multiplicity
  _atom_site_fract_x
  _atom_site_fract_y
  _atom_site_fract_z
  _atom_site_occupancy
  V   V1        1.0  0.5474700000000001  0.9882099999999998  0.01164  1.0000
  V   V2        1.0  0.047670000000000115  0.011400000000000007  0.9883199999999998  1.0000
  H   H1        1.0  0.6707200000000001  0.7308999999999998  0.00043  1.0000
  H   H2        1.0  0.7545  0.56558  0.00185  1.0000
  H   H3        1.0  0.8252000000000004  0.00020999999999999952  0.26795  1.0000
  H   H4        1.0  0.7400900000000001  0.9982099999999999  0.4337299999999999  1.0000
  H   H5        1.0  0.90322  0.2710499999999999  0.9997699999999999  1.0000
  H   H6        1.0  0.82112  0.43647  0.9984899999999999  1.0000
  H   H7        1.0  0.5932400000000003  0.9991399999999999  0.7302799999999999  1.0000
  H   H8        1.0  0.67305  0.0013599999999999986  0.56443  1.0000
  H   H9        1.0  0.32621000000000006  0.2676  0.9997699999999999  1.0000
  H   H10       1.0  0.2407000000000002  0.4333499999999999  0.9981499999999999  1.0000
  H   H11       1.0  0.1711700000000003  0.9998400000000001  0.7308299999999998  1.0000
  H   H12       1.0  0.25465  0.001720000000000002  0.56544  1.0000
  H   H13       1.0  0.09285000000000022  0.7298199999999998  0.99971  1.0000
  H   H14       1.0  0.17337999999999998  0.56398  0.00145  1.0000
  H   H15       1.0  0.4022200000000001  0.00033000000000000005  0.27087  1.0000
  H   H16       1.0  0.32091000000000014  0.9986399999999999  0.43632  1.0000
  C   C1        1.0  0.56344  0.69337  0.00022999999999999995  1.0000
  C   C2        1.0  0.60891  0.59977  0.00102  1.0000
  C   C3        1.0  0.9321900000000001  0.00022000000000000003  0.30572  1.0000
  C   C4        1.0  0.8856999999999999  0.9992599999999999  0.39949  1.0000
  C   C5        1.0  0.7582700000000001  0.30742999999999987  0.9998299999999999  1.0000
  C   C6        1.0  0.71005  0.4011  0.9991599999999999  1.0000
  C   C7        1.0  0.7378  0.9992799999999998  0.69333  1.0000
  C   C8        1.0  0.7846100000000003  0.0004800000000000096  0.5995099999999998  1.0000
  C   C9        1.0  0.43302999999999997  0.30546  0.9998699999999999  1.0000
  C   C10       1.0  0.3863600000000001  0.39923999999999993  0.99901  1.0000
  C   C11       1.0  0.06376000000000004  0.99971  0.69339  1.0000
  C   C12       1.0  0.10908000000000011  0.0007500000000000085  0.5997899999999998  1.0000
  C   C13       1.0  0.23750000000000013  0.69305  0.9997899999999998  1.0000
  C   C14       1.0  0.2846100000000002  0.5992199999999999  0.00073  1.0000
  C   C15       1.0  0.2574800000000001  0.00023000000000000055  0.3075  1.0000
  C   C16       1.0  0.2095500000000001  0.9994499999999998  0.4011199999999999  1.0000
  C   C17       1.0  0.33374000000000026  0.8410799999999998  0.9954799999999998  1.0000
  C   C18       1.0  0.37737000000000026  0.74112  0.9988199999999999  1.0000
  C   C19       1.0  0.4715700000000002  0.55002  0.0004599999999999999  1.0000
  C   C20       1.0  0.17155000000000012  0.0039299999999999995  0.15867  1.0000
  C   C21       1.0  0.11897000000000006  0.00117  0.25865  1.0000
  C   C22       1.0  0.022160000000000114  0.9997  0.4498199999999999  1.0000
  C   C23       1.0  0.6714800000000001  0.15844  0.00433  1.0000
  C   C24       1.0  0.6196800000000002  0.25846  0.001  1.0000
  C   C25       1.0  0.5225900000000002  0.44967999999999997  0.99954  1.0000
  C   C26       1.0  0.8338700000000004  0.99533  0.84129  1.0000
  C   C27       1.0  0.8777200000000001  0.9983  0.74132  1.0000
  C   C28       1.0  0.9715000000000001  0.0003800000000000007  0.55014  1.0000
  O   O1        1.0  0.47037000000000023  0.8789199999999998  0.9955199999999997  1.0000
  O   O2        1.0  0.03808000000000004  0.008839999999999999  0.11629999999999997  1.0000
  O   O3        1.0  0.84486  0.12042  0.004409999999999998  1.0000
  O   O4        1.0  0.6635500000000005  0.9909799999999997  0.8837499999999998  1.0000
  O   O5        1.0  0.5376600000000001  0.11625999999999997  0.00897  1.0000
  O   O6        1.0  0.9704300000000003  0.9955799999999999  0.8790699999999998  1.0000
  O   O7        1.0  0.16368000000000008  0.8835799999999999  0.99079  1.0000
  O   O8        1.0  0.34531  0.003620000000000001  0.12080999999999997  1.0000
  O   O9        1.0  0.7370600000000002  0.95096  0.049239999999999985  1.0000
  O   O10       1.0  0.23701000000000005  0.04931  0.95095  1.0000
