data_image0
_chemical_formula_structural       U4H16C32N4O26
_chemical_formula_sum              "U4 H16 C32 N4 O26"
_cell_length_a       10.50523
_cell_length_b       10.98131
_cell_length_c       14.62123
_cell_angle_alpha    106.01752
_cell_angle_beta     97.18498
_cell_angle_gamma    113.01022

_symmetry_space_group_name_H-M    'P 1'
_symmetry_Int_Tables_number       1

loop_
  _symmetry_equiv_pos_as_xyz
  'x,y,z'

loop_
  _atom_site_type_symbol
  _atom_site_label
  _atom_site_symmetry_multiplicity
  _atom_site_fract_x
  _atom_site_fract_y
  _atom_site_fract_z
  _atom_site_occupancy
  U   U1        1.0  0.6098  0.82886  0.8930799999999998  1.0000
  U   U2        1.0  0.3700299999999999  0.28872999999999993  0.5268499999999999  1.0000
  U   U3        1.0  0.39059  0.17071999999999998  0.10657999999999998  1.0000
  U   U4        1.0  0.6311000000000002  0.7107400000000001  0.47358  1.0000
  H   H1        1.0  0.68599  0.43941  0.68272  1.0000
  H   H2        1.0  0.6325  0.06627000000000004  0.75282  1.0000
  H   H3        1.0  0.5327299999999998  0.38216999999999984  0.9352499999999998  1.0000
  H   H4        1.0  0.8763299999999999  0.13473999999999983  0.8985099999999999  1.0000
  H   H5        1.0  0.23733999999999997  0.44532999999999995  0.8426399999999997  1.0000
  H   H6        1.0  0.9690300000000002  0.034139999999999976  0.61538  1.0000
  H   H7        1.0  0.56486  0.57553  0.67089  1.0000
  H   H8        1.0  0.4776599999999999  0.6337199999999998  0.6186199999999997  1.0000
  H   H9        1.0  0.31331999999999993  0.5596699999999999  0.3162199999999999  1.0000
  H   H10       1.0  0.36834999999999996  0.9331099999999999  0.24778999999999995  1.0000
  H   H11       1.0  0.46775  0.6194  0.06384999999999999  1.0000
  H   H12       1.0  0.12244999999999998  0.8624699999999998  0.10180999999999997  1.0000
  H   H13       1.0  0.7617099999999999  0.5551599999999999  0.15739999999999996  1.0000
  H   H14       1.0  0.03168000000000008  0.9658900000000001  0.38436  1.0000
  H   H15       1.0  0.43165000000000003  0.42522  0.32962  1.0000
  H   H16       1.0  0.5171  0.36402999999999996  0.3806699999999999  1.0000
  C   C1        1.0  0.59374  0.5492900000000002  0.83597  1.0000
  C   C2        1.0  0.60156  0.41606  0.80842  1.0000
  C   C3        1.0  0.64053  0.36699  0.72075  1.0000
  C   C4        1.0  0.65332  0.23855999999999986  0.7011299999999999  1.0000
  C   C5        1.0  0.6226899999999999  0.1633599999999999  0.7651599999999997  1.0000
  C   C6        1.0  0.5750500000000001  0.21050000000000008  0.84687  1.0000
  C   C7        1.0  0.5669799999999999  0.34049999999999997  0.8712  1.0000
  C   C8        1.0  0.53643  0.12354999999999992  0.9066399999999998  1.0000
  C   C9        1.0  0.7920100000000001  0.9264499999999999  0.7199  1.0000
  C   C10       1.0  0.9118300000000001  0.06383999999999992  0.7536199999999998  1.0000
  C   C11       1.0  0.9453700000000002  0.16306  0.85034  1.0000
  C   C12       1.0  0.06136999999999999  0.29732  0.8804099999999999  1.0000
  C   C13       1.0  0.14779999999999993  0.3412199999999999  0.8181199999999997  1.0000
  C   C14       1.0  0.10952000000000003  0.24239999999999998  0.72032  1.0000
  C   C15       1.0  0.9955000000000007  0.10787  0.68976  1.0000
  C   C16       1.0  0.18656999999999993  0.28050999999999987  0.6479499999999998  1.0000
  C   C17       1.0  0.40392000000000006  0.45022  0.16442  1.0000
  C   C18       1.0  0.39775  0.58374  0.19069  1.0000
  C   C19       1.0  0.3585600000000001  0.6316  0.27805  1.0000
  C   C20       1.0  0.34702  0.7605799999999998  0.2987799999999999  1.0000
  C   C21       1.0  0.37821000000000005  0.83594  0.23539  1.0000
  C   C22       1.0  0.42427  0.78892  0.15309  1.0000
  C   C23       1.0  0.43318  0.65951  0.12807999999999997  1.0000
  C   C24       1.0  0.46430000000000005  0.87656  0.09362  1.0000
  C   C25       1.0  0.20764  0.07265999999999999  0.27973  1.0000
  C   C26       1.0  0.0875  0.93594  0.24609999999999999  1.0000
  C   C27       1.0  0.05406000000000001  0.83594  0.14995  1.0000
  C   C28       1.0  0.9386000000000001  0.70238  0.12045999999999997  1.0000
  C   C29       1.0  0.85293  0.6590099999999999  0.18283  1.0000
  C   C30       1.0  0.89062  0.75778  0.2797  1.0000
  C   C31       1.0  0.004449999999999915  0.89258  0.31058999999999987  1.0000
  C   C32       1.0  0.8141900000000001  0.7223999999999999  0.3524599999999999  1.0000
  N   N1        1.0  0.6904299999999999  0.18282999999999985  0.6149699999999998  1.0000
  N   N2        1.0  0.0933199999999999  0.3960099999999998  0.9819399999999998  1.0000
  N   N3        1.0  0.30996  0.8169700000000001  0.38463999999999987  1.0000
  N   N4        1.0  0.9088900000000001  0.60506  0.018699999999999994  1.0000
  O   O1        1.0  0.5941299999999999  0.6137099999999999  0.7727999999999999  1.0000
  O   O2        1.0  0.5904699999999999  0.6123099999999999  0.9226999999999997  1.0000
  O   O3        1.0  0.4823199999999999  0.1636499999999999  0.9767599999999997  1.0000
  O   O4        1.0  0.55167  0.009089999999999905  0.8893999999999997  1.0000
  O   O5        1.0  0.6982499999999998  0.06596999999999985  0.5971299999999998  1.0000
  O   O6        1.0  0.7102399999999999  0.2521699999999999  0.5562099999999999  1.0000
  O   O7        1.0  0.7174000000000001  0.89052  0.78144  1.0000
  O   O8        1.0  0.75136  0.8350099999999998  0.6287699999999998  1.0000
  O   O9        1.0  0.15197  0.18637  0.5584  1.0000
  O   O10       1.0  0.29268999999999995  0.4001099999999999  0.6673299999999999  1.0000
  O   O11       1.0  0.16427  0.52546  0.0  1.0000
  O   O12       1.0  0.04878000000000001  0.34501  0.04341  1.0000
  O   O13       1.0  0.51893  0.56819  0.5975499999999998  1.0000
  O   O14       1.0  0.40029  0.38469999999999993  0.22714999999999996  1.0000
  O   O15       1.0  0.4112  0.38853  0.07880999999999998  1.0000
  O   O16       1.0  0.51691  0.8356600000000001  0.02268  1.0000
  O   O17       1.0  0.44837000000000005  0.99052  0.11052  1.0000
  O   O18       1.0  0.30152999999999996  0.9337399999999998  0.40276999999999996  1.0000
  O   O19       1.0  0.29064  0.74711  0.4428799999999999  1.0000
  O   O20       1.0  0.28451  0.10664999999999998  0.21862  1.0000
  O   O21       1.0  0.24658999999999998  0.16490999999999995  0.3706599999999999  1.0000
  O   O22       1.0  0.8481400000000001  0.8146900000000001  0.44086  1.0000
  O   O23       1.0  0.70559  0.60096  0.33124  1.0000
  O   O24       1.0  0.83634  0.47632  0.99925  1.0000
  O   O25       1.0  0.95215  0.65678  0.95626  1.0000
  O   O26       1.0  0.48163000000000006  0.43452999999999997  0.40274999999999994  1.0000
