data_image0
_chemical_formula_structural       Fe6H6C24S6O12
_chemical_formula_sum              "Fe6 H6 C24 S6 O12"
_cell_length_a       7.14515
_cell_length_b       16.10394
_cell_length_c       15.92684
_cell_angle_alpha    117.63322
_cell_angle_beta     98.28703
_cell_angle_gamma    99.32637999999999

_symmetry_space_group_name_H-M    'P 1'
_symmetry_Int_Tables_number       1

loop_
  _symmetry_equiv_pos_as_xyz
  'x,y,z'

loop_
  _atom_site_type_symbol
  _atom_site_label
  _atom_site_symmetry_multiplicity
  _atom_site_fract_x
  _atom_site_fract_y
  _atom_site_fract_z
  _atom_site_occupancy
  Fe  Fe1       1.0  0.75564  0.72915  0.34189  1.0000
  Fe  Fe2       1.0  0.03260000000000002  0.60969  0.26866  1.0000
  Fe  Fe3       1.0  0.96734  0.39042  0.73142  1.0000
  Fe  Fe4       1.0  0.43195  0.66292  0.39517  1.0000
  Fe  Fe5       1.0  0.5680400000000001  0.33693  0.60432  1.0000
  Fe  Fe6       1.0  0.24429999999999996  0.27045  0.65803  1.0000
  H   H1        1.0  0.15127999999999997  0.99394  0.45092  1.0000
  H   H2        1.0  0.8478700000000002  0.54624  0.99944  1.0000
  H   H3        1.0  0.29585  0.4517000000000001  0.45124  1.0000
  H   H4        1.0  0.8489100000000003  0.005809999999999988  0.54893  1.0000
  H   H5        1.0  0.15291000000000005  0.4534700000000001  0.00041  1.0000
  H   H6        1.0  0.70491  0.54864  0.54892  1.0000
  C   C1        1.0  0.6346  0.41887  0.82489  1.0000
  C   C2        1.0  0.64729  0.09078000000000004  0.54398  1.0000
  C   C3        1.0  0.30447  0.47468  0.99898  1.0000
  C   C4        1.0  0.6424300000000002  0.57059  0.08799000000000001  1.0000
  C   C5        1.0  0.07047999999999999  0.51674  0.4283  1.0000
  C   C6        1.0  0.36555  0.5813  0.17482  1.0000
  C   C7        1.0  0.3581100000000001  0.4295400000000001  0.9118400000000002  1.0000
  C   C8        1.0  0.30453  0.99729  0.47388  1.0000
  C   C9        1.0  0.89726  0.54527  0.4555  1.0000
  C   C10       1.0  0.80547  0.17726  0.5934  1.0000
  C   C11       1.0  0.78841  0.59522  0.4207500000000001  1.0000
  C   C12       1.0  0.10313000000000001  0.4547600000000001  0.54444  1.0000
  C   C13       1.0  0.44343  0.08515000000000002  0.51526  1.0000
  C   C14       1.0  0.16717000000000007  0.4742800000000001  0.47324  1.0000
  C   C15       1.0  0.5566700000000002  0.9145900000000002  0.4844900000000001  1.0000
  C   C16       1.0  0.9300700000000002  0.4835000000000001  0.57169  1.0000
  C   C17       1.0  0.83351  0.52605  0.52687  1.0000
  C   C18       1.0  0.69568  0.0024799999999999545  0.5259  1.0000
  C   C19       1.0  0.35274  0.90907  0.45614  1.0000
  C   C20       1.0  0.69613  0.52535  0.00086  1.0000
  C   C21       1.0  0.19417  0.8227  0.40714000000000006  1.0000
  C   C22       1.0  0.2108500000000001  0.4043100000000001  0.57895  1.0000
  C   C23       1.0  0.5598100000000003  0.45504  0.91021  1.0000
  C   C24       1.0  0.44062  0.54515  0.08958  1.0000
  S   S1        1.0  0.35061000000000003  0.18155000000000002  0.51667  1.0000
  S   S2        1.0  0.16101000000000001  0.5179400000000001  0.33064  1.0000
  S   S3        1.0  0.8288000000000001  0.6693800000000002  0.18744  1.0000
  S   S4        1.0  0.8389600000000003  0.48215  0.6691100000000001  1.0000
  S   S5        1.0  0.17182000000000003  0.3306900000000001  0.81246  1.0000
  S   S6        1.0  0.64905  0.8181700000000001  0.48337000000000013  1.0000
  O   O1        1.0  0.37158  0.38795  0.55419  1.0000
  O   O2        1.0  0.4845  0.63435  0.26493  1.0000
  O   O3        1.0  0.8521400000000003  0.6294700000000002  0.36502  1.0000
  O   O4        1.0  0.22676000000000004  0.7341100000000002  0.37096000000000007  1.0000
  O   O5        1.0  0.17884000000000008  0.5601600000000002  0.16651  1.0000
  O   O6        1.0  0.8214600000000002  0.43951000000000023  0.8333600000000002  1.0000
  O   O7        1.0  0.51561  0.36638  0.73472  1.0000
  O   O8        1.0  0.77296  0.26584  0.62917  1.0000
  O   O9        1.0  0.14555000000000012  0.3691300000000002  0.6337400000000001  1.0000
  O   O10       1.0  0.01608000000000002  0.82866  0.39325000000000004  1.0000
  O   O11       1.0  0.62802  0.61179  0.44577  1.0000
  O   O12       1.0  0.98351  0.17125  0.60771  1.0000
