data_image0
_chemical_formula_structural       Mn2Ag6H10C18N16
_chemical_formula_sum              "Mn2 Ag6 H10 C18 N16"
_cell_length_a       7.26951
_cell_length_b       7.22143
_cell_length_c       13.87406
_cell_angle_alpha    98.95518
_cell_angle_beta     85.79322
_cell_angle_gamma    84.76632

_symmetry_space_group_name_H-M    'P 1'
_symmetry_Int_Tables_number       1

loop_
  _symmetry_equiv_pos_as_xyz
  'x,y,z'

loop_
  _atom_site_type_symbol
  _atom_site_label
  _atom_site_symmetry_multiplicity
  _atom_site_fract_x
  _atom_site_fract_y
  _atom_site_fract_z
  _atom_site_occupancy
  Mn  Mn1       1.0  0.99635  0.0028  0.0009299999999999998  1.0000
  Mn  Mn2       1.0  0.49633000000000005  0.0011699999999999812  0.50128  1.0000
  Ag  Ag1       1.0  0.23330999999999996  0.51347  0.26456  1.0000
  Ag  Ag2       1.0  0.5453999999999998  0.57559  0.12058  1.0000
  Ag  Ag3       1.0  0.9435000000000001  0.39761  0.40333  1.0000
  Ag  Ag4       1.0  0.7634499999999999  0.48761999999999994  0.73681  1.0000
  Ag  Ag5       1.0  0.44919000000000003  0.42825999999999986  0.8794299999999998  1.0000
  Ag  Ag6       1.0  0.050470000000000015  0.6010699999999999  0.59573  1.0000
  H   H1        1.0  0.40447999999999984  0.9729999999999999  0.90518  1.0000
  H   H2        1.0  0.08817999999999995  0.05322  0.61579  1.0000
  H   H3        1.0  0.9113899999999998  0.07511  0.78014  1.0000
  H   H4        1.0  0.69278  0.93356  0.67503  1.0000
  H   H5        1.0  0.6850399999999999  0.91922  0.799  1.0000
  H   H6        1.0  0.58975  0.03215  0.0967  1.0000
  H   H7        1.0  0.90596  0.9467900000000001  0.38547  1.0000
  H   H8        1.0  0.08256  0.92455  0.22103  1.0000
  H   H9        1.0  0.30146  0.06669000000000003  0.32637  1.0000
  H   H10       1.0  0.30908  0.081  0.20246  1.0000
  C   C1        1.0  0.33285  0.9932000000000001  0.84083  1.0000
  C   C2        1.0  0.43451999999999996  0.9836  0.7483399999999999  1.0000
  C   C3        1.0  0.16005  0.034340000000000016  0.68024  1.0000
  C   C4        1.0  0.060819999999999985  0.04445000000000001  0.77062  1.0000
  C   C5        1.0  0.35235  0.7209  0.0509  1.0000
  C   C6        1.0  0.70197  0.4964799999999999  0.22764  1.0000
  C   C7        1.0  0.30218  0.6869500000000001  0.38471  1.0000
  C   C8        1.0  0.17159  0.33993  0.14184  1.0000
  C   C9        1.0  0.15150999999999995  0.26095  0.46624  1.0000
  C   C10       1.0  0.6613  0.010090000000000002  0.16082  1.0000
  C   C11       1.0  0.55973  0.01754000000000001  0.25314  1.0000
  C   C12       1.0  0.8341  0.96617  0.32109  1.0000
  C   C13       1.0  0.93325  0.95636  0.2307  1.0000
  C   C14       1.0  0.6416799999999998  0.2834  0.94968  1.0000
  C   C15       1.0  0.29288000000000003  0.50674  0.77212  1.0000
  C   C16       1.0  0.6939599999999999  0.31389  0.61668  1.0000
  C   C17       1.0  0.8243  0.6624399999999999  0.8593999999999998  1.0000
  C   C18       1.0  0.84203  0.74082  0.5345  1.0000
  N   N1        1.0  0.13802  0.23258  0.07426999999999999  1.0000
  N   N2        1.0  0.22891000000000003  0.8150099999999999  0.027  1.0000
  N   N3        1.0  0.14898999999999998  0.022419999999999975  0.85139  1.0000
  N   N4        1.0  0.34596  0.000990000000000003  0.66717  1.0000
  N   N5        1.0  0.6221  0.96426  0.74248  1.0000
  N   N6        1.0  0.3659599999999999  0.79688  0.44086999999999993  1.0000
  N   N7        1.0  0.28723  0.17485  0.48424  1.0000
  N   N8        1.0  0.76627  0.4625999999999999  0.2988  1.0000
  N   N9        1.0  0.8574  0.77145  0.92639  1.0000
  N   N10       1.0  0.76506  0.19036  0.97436  1.0000
  N   N11       1.0  0.84512  0.9804  0.15014  1.0000
  N   N12       1.0  0.6482299999999998  0.99971  0.33425  1.0000
  N   N13       1.0  0.37209  0.0357  0.25891  1.0000
  N   N14       1.0  0.62778  0.20496  0.56105  1.0000
  N   N15       1.0  0.7056199999999998  0.82696  0.51739  1.0000
  N   N16       1.0  0.22814  0.53852  0.70067  1.0000
