data_image0
_chemical_formula_structural       Cu4H8C28O24
_chemical_formula_sum              "Cu4 H8 C28 O24"
_cell_length_a       8.55157
_cell_length_b       11.50778
_cell_length_c       13.22903
_cell_angle_alpha    89.99838000000001
_cell_angle_beta     103.39897000000002
_cell_angle_gamma    89.95804

_space_group_name_H-M_alt    "P 1"
_space_group_IT_number       1

loop_
  _space_group_symop_operation_xyz
  'x, y, z'

loop_
  _atom_site_type_symbol
  _atom_site_label
  _atom_site_symmetry_multiplicity
  _atom_site_fract_x
  _atom_site_fract_y
  _atom_site_fract_z
  _atom_site_occupancy
  Cu  Cu1       1.0  0.91556  0.58383  0.5306  1.0000
  Cu  Cu2       1.0  0.5843799999999999  0.08453  0.9693899999999998  1.0000
  Cu  Cu3       1.0  0.08443999999999996  0.41617  0.46939999999999993  1.0000
  Cu  Cu4       1.0  0.41562  0.91547  0.03061  1.0000
  H   H1        1.0  0.45166999999999996  0.40789  0.46803999999999996  1.0000
  H   H2        1.0  0.23696  0.12762  0.26016  1.0000
  H   H3        1.0  0.0501  0.9073700000000001  0.03154  1.0000
  H   H4        1.0  0.2609  0.62652  0.24042  1.0000
  H   H5        1.0  0.54834  0.59212  0.53195  1.0000
  H   H6        1.0  0.76305  0.87238  0.73983  1.0000
  H   H7        1.0  0.9499100000000001  0.09263999999999999  0.96846  1.0000
  H   H8        1.0  0.7391  0.37349  0.75958  1.0000
  C   C1        1.0  0.45252  0.34555  0.4065  1.0000
  C   C2        1.0  0.5843  0.33678  0.36598  1.0000
  C   C3        1.0  0.46696  0.18965  0.252  1.0000
  C   C4        1.0  0.33317  0.18859000000000004  0.29098  1.0000
  C   C5        1.0  0.31507  0.27083  0.37037999999999993  1.0000
  C   C6        1.0  0.73733  0.4024  0.40860999999999986  1.0000
  C   C7        1.0  0.4864800000000001  0.11641  0.16144  1.0000
  C   C8        1.0  0.04823999999999999  0.8455  0.09329  1.0000
  C   C9        1.0  0.91648  0.8382699999999998  0.13396  1.0000
  C   C10       1.0  0.03212  0.69088  0.24836  1.0000
  C   C11       1.0  0.16571  0.68823  0.2092  1.0000
  C   C12       1.0  0.18492  0.76979  0.12955  1.0000
  C   C13       1.0  0.76369  0.90437  0.09125  1.0000
  C   C14       1.0  0.01249999999999998  0.61802  0.33912999999999993  1.0000
  C   C15       1.0  0.54748  0.65445  0.5935  1.0000
  C   C16       1.0  0.4157  0.66322  0.63401  1.0000
  C   C17       1.0  0.53304  0.81035  0.748  1.0000
  C   C18       1.0  0.66683  0.81142  0.7090199999999999  1.0000
  C   C19       1.0  0.68494  0.72917  0.62962  1.0000
  C   C20       1.0  0.26266  0.59761  0.59139  1.0000
  C   C21       1.0  0.51354  0.8836  0.83856  1.0000
  C   C22       1.0  0.95176  0.15451  0.9067099999999998  1.0000
  C   C23       1.0  0.08352999999999998  0.16174  0.86604  1.0000
  C   C24       1.0  0.9678799999999999  0.30913  0.7516399999999999  1.0000
  C   C25       1.0  0.83429  0.31178  0.7908  1.0000
  C   C26       1.0  0.81508  0.23022  0.87045  1.0000
  C   C27       1.0  0.23631999999999995  0.09563000000000002  0.9087399999999999  1.0000
  C   C28       1.0  0.98748  0.382  0.66088  1.0000
  O   O1        1.0  0.59369  0.26223  0.28775  1.0000
  O   O2        1.0  0.18917  0.27465  0.40442  1.0000
  O   O3        1.0  0.71967  0.49766000000000005  0.4539  1.0000
  O   O4        1.0  0.86622  0.35415  0.39902  1.0000
  O   O5        1.0  0.56928  0.16046  0.10318999999999998  1.0000
  O   O6        1.0  0.41293  0.01962  0.15213  1.0000
  O   O7        1.0  0.90635  0.76437  0.21254  1.0000
  O   O8        1.0  0.31081  0.7724600000000001  0.09547  1.0000
  O   O9        1.0  0.78115  0.99969  0.04596999999999999  1.0000
  O   O10       1.0  0.63486  0.85628  0.1009  1.0000
  O   O11       1.0  0.93052  0.66246  0.39777  1.0000
  O   O12       1.0  0.08575999999999995  0.52093  0.3481399999999999  1.0000
  O   O13       1.0  0.40631  0.73777  0.71225  1.0000
  O   O14       1.0  0.81083  0.72536  0.59558  1.0000
  O   O15       1.0  0.28033  0.50234  0.54609  1.0000
  O   O16       1.0  0.13379  0.64585  0.60098  1.0000
  O   O17       1.0  0.43072  0.83954  0.89681  1.0000
  O   O18       1.0  0.58707  0.98038  0.84786  1.0000
  O   O19       1.0  0.09365999999999995  0.23564000000000002  0.7874599999999999  1.0000
  O   O20       1.0  0.68919  0.22755  0.90453  1.0000
  O   O21       1.0  0.21886  0.0003100000000000001  0.95403  1.0000
  O   O22       1.0  0.36515  0.14372  0.8991  1.0000
  O   O23       1.0  0.0695  0.33753  0.60222  1.0000
  O   O24       1.0  0.91426  0.47906  0.65186  1.0000
