data_image0
_chemical_formula_structural       Ag4H8C24N16
_chemical_formula_sum              "Ag4 H8 C24 N16"
_cell_length_a       7.90489
_cell_length_b       7.24968
_cell_length_c       12.969909999999999
_cell_angle_alpha    89.9991
_cell_angle_beta     90.00223999999999
_cell_angle_gamma    89.98193

_symmetry_space_group_name_H-M    'P 1'
_symmetry_Int_Tables_number       1

loop_
  _symmetry_equiv_pos_as_xyz
  'x,y,z'

loop_
  _atom_site_type_symbol
  _atom_site_label
  _atom_site_symmetry_multiplicity
  _atom_site_fract_x
  _atom_site_fract_y
  _atom_site_fract_z
  _atom_site_occupancy
  Ag  Ag1       1.0  0.8659899999999998  0.24995000000000006  0.11445000000000002  1.0000
  Ag  Ag2       1.0  0.13402  0.7500500000000002  0.8855500000000002  1.0000
  Ag  Ag3       1.0  0.63412  0.75001  0.6144400000000001  1.0000
  Ag  Ag4       1.0  0.3658799999999999  0.24999000000000005  0.38555  1.0000
  H   H1        1.0  0.7441099999999998  0.9494200000000003  0.3983100000000001  1.0000
  H   H2        1.0  0.25587  0.4492000000000001  0.60169  1.0000
  H   H3        1.0  0.2558899999999999  0.05057  0.60169  1.0000
  H   H4        1.0  0.74414  0.55081  0.3983100000000001  1.0000
  H   H5        1.0  0.7559199999999998  0.050580000000000014  0.8983400000000001  1.0000
  H   H6        1.0  0.24408999999999995  0.5508200000000002  0.10167  1.0000
  H   H7        1.0  0.24408  0.9494200000000003  0.10166000000000003  1.0000
  H   H8        1.0  0.7559199999999998  0.44918  0.89833  1.0000
  C   C1        1.0  0.9800499999999998  0.9783300000000003  0.7113700000000001  1.0000
  C   C2        1.0  0.9872399999999998  0.9861400000000002  0.6038  1.0000
  C   C3        1.0  0.8573999999999998  0.9713600000000002  0.44496  1.0000
  C   C4        1.0  0.019969999999999995  0.4782000000000001  0.28861  1.0000
  C   C5        1.0  0.012759999999999997  0.48616  0.3962100000000001  1.0000
  C   C6        1.0  0.1426  0.47124  0.5550500000000002  1.0000
  C   C7        1.0  0.01996  0.021670000000000005  0.28864  1.0000
  C   C8        1.0  0.012759999999999997  0.013880000000000003  0.3962100000000001  1.0000
  C   C9        1.0  0.1426  0.028650000000000005  0.5550400000000001  1.0000
  C   C10       1.0  0.9800299999999997  0.52181  0.7113900000000002  1.0000
  C   C11       1.0  0.9872399999999998  0.5138500000000003  0.60379  1.0000
  C   C12       1.0  0.8573999999999998  0.5287700000000002  0.4449500000000001  1.0000
  C   C13       1.0  0.51996  0.021740000000000006  0.21137  1.0000
  C   C14       1.0  0.51275  0.01386  0.10379000000000002  1.0000
  C   C15       1.0  0.6426299999999998  0.02863  0.9449600000000001  1.0000
  C   C16       1.0  0.4800299999999999  0.52192  0.78863  1.0000
  C   C17       1.0  0.48720999999999987  0.5138500000000003  0.89621  1.0000
  C   C18       1.0  0.3574  0.52875  0.055050000000000016  1.0000
  C   C19       1.0  0.4800399999999999  0.9782600000000002  0.78863  1.0000
  C   C20       1.0  0.4872499999999999  0.9861400000000002  0.89621  1.0000
  C   C21       1.0  0.3573699999999999  0.9713800000000002  0.05503  1.0000
  C   C22       1.0  0.5199699999999998  0.47807  0.21137  1.0000
  C   C23       1.0  0.51279  0.48615000000000014  0.10379000000000002  1.0000
  C   C24       1.0  0.6425999999999997  0.4712500000000001  0.9449500000000002  1.0000
  N   N1        1.0  0.9822799999999998  0.9735500000000002  0.80253  1.0000
  N   N2        1.0  0.8409899999999998  0.95604  0.54618  1.0000
  N   N3        1.0  0.017819999999999992  0.47355000000000014  0.19746000000000002  1.0000
  N   N4        1.0  0.15902  0.4559800000000001  0.4538300000000001  1.0000
  N   N5        1.0  0.01772  0.026470000000000007  0.19747000000000006  1.0000
  N   N6        1.0  0.15900999999999996  0.04396000000000001  0.4538200000000001  1.0000
  N   N7        1.0  0.9821799999999998  0.52645  0.8025400000000001  1.0000
  N   N8        1.0  0.8409799999999997  0.54403  0.5461700000000002  1.0000
  N   N9        1.0  0.51769  0.026320000000000003  0.30254000000000003  1.0000
  N   N10       1.0  0.6590299999999998  0.04389000000000001  0.04619000000000001  1.0000
  N   N11       1.0  0.4822599999999999  0.5264400000000001  0.6974700000000003  1.0000
  N   N12       1.0  0.3409599999999999  0.5440000000000003  0.95382  1.0000
  N   N13       1.0  0.4822999999999999  0.97369  0.69746  1.0000
  N   N14       1.0  0.34098  0.9561000000000002  0.9538100000000003  1.0000
  N   N15       1.0  0.51774  0.47357  0.30253  1.0000
  N   N16       1.0  0.6590399999999997  0.4560000000000001  0.04618000000000001  1.0000
