data_image0
_chemical_formula_structural       Mn4Nb2H8C24N20
_chemical_formula_sum              "Mn4 Nb2 H8 C24 N20"
_cell_length_a       7.41013
_cell_length_b       9.91438
_cell_length_c       13.71244
_cell_angle_alpha    89.77536
_cell_angle_beta     90.91895
_cell_angle_gamma    97.86561

_symmetry_space_group_name_H-M    'P 1'
_symmetry_Int_Tables_number       1

loop_
  _symmetry_equiv_pos_as_xyz
  'x,y,z'

loop_
  _atom_site_type_symbol
  _atom_site_label
  _atom_site_symmetry_multiplicity
  _atom_site_fract_x
  _atom_site_fract_y
  _atom_site_fract_z
  _atom_site_occupancy
  Mn  Mn1       1.0  0.50433  0.60165  0.4508  1.0000
  Mn  Mn2       1.0  0.96899  0.87792  0.06983  1.0000
  Mn  Mn3       1.0  0.47898  0.41825  0.9595400000000001  1.0000
  Mn  Mn4       1.0  0.046259999999999996  0.13415  0.57621  1.0000
  Nb  Nb1       1.0  0.9731  0.37457  0.22745000000000007  1.0000
  Nb  Nb2       1.0  0.017500000000000005  0.6281  0.7348900000000003  1.0000
  H   H1        1.0  0.67941  0.0938  0.08075000000000003  1.0000
  H   H2        1.0  0.33936  0.09318  0.08202  1.0000
  H   H3        1.0  0.2621599999999999  0.67151  0.058990000000000015  1.0000
  H   H4        1.0  0.60385  0.67139  0.07204  1.0000
  H   H5        1.0  0.34469  0.92702  0.6384200000000002  1.0000
  H   H6        1.0  0.6782  0.9174899999999999  0.6265200000000001  1.0000
  H   H7        1.0  0.7442599999999999  0.29056  0.4816700000000001  1.0000
  H   H8        1.0  0.40615  0.29572  0.4882  1.0000
  C   C1        1.0  0.73758  0.21903000000000003  0.26569  1.0000
  C   C2        1.0  0.95875  0.58284  0.17037000000000005  1.0000
  C   C3        1.0  0.7921299999999999  0.46321  0.32892  1.0000
  C   C4        1.0  0.19602  0.51654  0.30084  1.0000
  C   C5        1.0  0.19519  0.39266  0.12225000000000001  1.0000
  C   C6        1.0  0.77769  0.37141  0.10733000000000002  1.0000
  C   C7        1.0  0.009479999999999999  0.17761  0.16143  1.0000
  C   C8        1.0  0.05278  0.26765  0.3612300000000001  1.0000
  C   C9        1.0  0.58682  0.9991600000000002  0.07728  1.0000
  C   C10       1.0  0.39827  0.99896  0.07601000000000002  1.0000
  C   C11       1.0  0.35589999999999994  0.76557  0.06551  1.0000
  C   C12       1.0  0.54369  0.76563  0.07068000000000002  1.0000
  C   C13       1.0  0.27555  0.75503  0.7803  1.0000
  C   C14       1.0  0.9929  0.41031000000000006  0.6853500000000002  1.0000
  C   C15       1.0  0.18342  0.51672  0.8304700000000003  1.0000
  C   C16       1.0  0.7812  0.52581  0.8161100000000002  1.0000
  C   C17       1.0  0.80251  0.63735  0.6200600000000001  1.0000
  C   C18       1.0  0.20376  0.60732  0.6131100000000003  1.0000
  C   C19       1.0  0.015370000000000007  0.83582  0.6748600000000002  1.0000
  C   C20       1.0  0.9580299999999998  0.75291  0.8598800000000002  1.0000
  C   C21       1.0  0.43184  0.008009999999999998  0.60202  1.0000
  C   C22       1.0  0.61879  0.00304  0.5960100000000002  1.0000
  C   C23       1.0  0.6547800000000001  0.20844  0.5158  1.0000
  C   C24       1.0  0.46783  0.21243  0.52069  1.0000
  N   N1        1.0  0.61415  0.13608  0.28513000000000005  1.0000
  N   N2        1.0  0.94754  0.69359  0.1424  1.0000
  N   N3        1.0  0.68254  0.5002  0.3798700000000001  1.0000
  N   N4        1.0  0.31618  0.59034  0.33746  1.0000
  N   N5        1.0  0.31254  0.39831  0.06416  1.0000
  N   N6        1.0  0.66567  0.37295  0.04495000000000001  1.0000
  N   N7        1.0  0.01741  0.07258  0.12331  1.0000
  N   N8        1.0  0.07378  0.21385000000000004  0.43638  1.0000
  N   N9        1.0  0.65948  0.88248  0.07668000000000001  1.0000
  N   N10       1.0  0.28302999999999995  0.8823499999999999  0.07049  1.0000
  N   N11       1.0  0.4105299999999999  0.82298  0.8059400000000002  1.0000
  N   N12       1.0  0.008210000000000007  0.29992  0.65889  1.0000
  N   N13       1.0  0.28962  0.46364  0.8768800000000001  1.0000
  N   N14       1.0  0.6575500000000001  0.47489000000000003  0.8627600000000002  1.0000
  N   N15       1.0  0.698  0.65883  0.55806  1.0000
  N   N16       1.0  0.3049  0.58528  0.55178  1.0000
  N   N17       1.0  0.01744000000000005  0.9455799999999999  0.6419000000000002  1.0000
  N   N18       1.0  0.94144  0.82088  0.92835  1.0000
  N   N19       1.0  0.3551999999999999  0.11268  0.5641700000000001  1.0000
  N   N20       1.0  0.73088  0.10334999999999998  0.5529900000000002  1.0000
