data_image0
_chemical_formula_structural       Gd2H18C24O12
_chemical_formula_sum              "Gd2 H18 C24 O12"
_cell_length_a       7.46407
_cell_length_b       9.6067
_cell_length_c       10.65836
_cell_angle_alpha    107.36682999999998
_cell_angle_beta     104.97028000000002
_cell_angle_gamma    99.7842

_space_group_name_H-M_alt    "P 1"
_space_group_IT_number       1

loop_
  _space_group_symop_operation_xyz
  'x, y, z'

loop_
  _atom_site_type_symbol
  _atom_site_label
  _atom_site_symmetry_multiplicity
  _atom_site_fract_x
  _atom_site_fract_y
  _atom_site_fract_z
  _atom_site_occupancy
  Gd  Gd1       1.0  0.7498699999999998  0.96236  0.53978  1.0000
  Gd  Gd2       1.0  0.25012999999999996  0.03764  0.46022  1.0000
  H   H1        1.0  0.16271999999999995  0.50851  0.03074  1.0000
  H   H2        1.0  0.48318999999999995  0.18193999999999994  0.93847  1.0000
  H   H3        1.0  0.46437  0.37073000000000006  0.35412  1.0000
  H   H4        1.0  0.12497999999999997  0.59482  0.2615  1.0000
  H   H5        1.0  0.21614999999999995  0.51208  0.38495  1.0000
  H   H6        1.0  0.3796499999999999  0.32382  0.77961  1.0000
  H   H7        1.0  0.2173099999999999  0.42972  0.80525  1.0000
  H   H8        1.0  0.6484499999999997  0.09671  0.11208  1.0000
  H   H9        1.0  0.7664599999999998  0.25124  0.26621  1.0000
  H   H10       1.0  0.8372799999999999  0.49149  0.96927  1.0000
  H   H11       1.0  0.51681  0.81807  0.06153000000000001  1.0000
  H   H12       1.0  0.53563  0.62928  0.64588  1.0000
  H   H13       1.0  0.8750199999999998  0.40519000000000005  0.73851  1.0000
  H   H14       1.0  0.7838499999999998  0.4879299999999999  0.61506  1.0000
  H   H15       1.0  0.62035  0.67619  0.2204  1.0000
  H   H16       1.0  0.7826899999999998  0.5702899999999999  0.19476  1.0000
  H   H17       1.0  0.3515499999999999  0.9033  0.88792  1.0000
  H   H18       1.0  0.23353999999999991  0.7487699999999999  0.73379  1.0000
  C   C1        1.0  0.3052899999999999  0.44856999999999997  0.20321  1.0000
  C   C2        1.0  0.2510599999999999  0.43833999999999995  0.06400000000000002  1.0000
  C   C3        1.0  0.31393  0.34157  0.9682700000000001  1.0000
  C   C4        1.0  0.4330499999999999  0.25585  0.01326  1.0000
  C   C5        1.0  0.4888499999999999  0.26446  0.15178  1.0000
  C   C6        1.0  0.42306  0.3613199999999999  0.24582  1.0000
  C   C7        1.0  0.25033  0.56125  0.30998  1.0000
  C   C8        1.0  0.4158499999999999  0.7029200000000001  0.39308000000000004  1.0000
  C   C9        1.0  0.25756000000000007  0.32854999999999995  0.8184100000000001  1.0000
  C   C10       1.0  0.09227000000000006  0.19314000000000006  0.72019  1.0000
  C   C11       1.0  0.6225899999999998  0.17559999999999998  0.20015  1.0000
  C   C12       1.0  0.5616899999999998  0.08552000000000003  0.28555  1.0000
  C   C13       1.0  0.6947099999999998  0.55144  0.79679  1.0000
  C   C14       1.0  0.7489399999999999  0.56167  0.9360000000000002  1.0000
  C   C15       1.0  0.6860699999999997  0.6584399999999999  0.03173  1.0000
  C   C16       1.0  0.56695  0.7441599999999999  0.9867400000000001  1.0000
  C   C17       1.0  0.5111499999999998  0.73555  0.84822  1.0000
  C   C18       1.0  0.5769399999999998  0.63869  0.7541800000000001  1.0000
  C   C19       1.0  0.7496699999999997  0.4387600000000001  0.6900200000000001  1.0000
  C   C20       1.0  0.5841499999999997  0.29709  0.60692  1.0000
  C   C21       1.0  0.7424399999999999  0.67146  0.18159  1.0000
  C   C22       1.0  0.9077299999999998  0.80687  0.27981  1.0000
  C   C23       1.0  0.37740999999999997  0.8244100000000001  0.7998500000000001  1.0000
  C   C24       1.0  0.43831  0.91449  0.71445  1.0000
  O   O1        1.0  0.38440999999999986  0.83382  0.40701  1.0000
  O   O2        1.0  0.5839099999999998  0.69349  0.44564  1.0000
  O   O3        1.0  0.05797000000000005  0.15866000000000005  0.5862800000000001  1.0000
  O   O4        1.0  0.9844699999999998  0.1169900000000001  0.7633900000000001  1.0000
  O   O5        1.0  0.39745999999999987  0.07696000000000001  0.29967000000000005  1.0000
  O   O6        1.0  0.6863399999999997  0.024969999999999996  0.33976  1.0000
  O   O7        1.0  0.61559  0.16618  0.59299  1.0000
  O   O8        1.0  0.41608999999999996  0.30652  0.55436  1.0000
  O   O9        1.0  0.9420399999999999  0.84135  0.41373  1.0000
  O   O10       1.0  0.015540000000000003  0.8830200000000001  0.23662  1.0000
  O   O11       1.0  0.6025399999999999  0.92305  0.70033  1.0000
  O   O12       1.0  0.31366  0.9750299999999998  0.6602400000000002  1.0000
