data_image0
_chemical_formula_structural       Cu4H6W12C10N4O34
_chemical_formula_sum              "Cu4 H6 W12 C10 N4 O34"
_cell_length_a       12.88927
_cell_length_b       13.4427
_cell_length_c       13.534029999999998
_cell_angle_alpha    63.78286
_cell_angle_beta     61.636619999999986
_cell_angle_gamma    84.01619

_space_group_name_H-M_alt    "P 1"
_space_group_IT_number       1

loop_
  _space_group_symop_operation_xyz
  'x, y, z'

loop_
  _atom_site_type_symbol
  _atom_site_label
  _atom_site_symmetry_multiplicity
  _atom_site_fract_x
  _atom_site_fract_y
  _atom_site_fract_z
  _atom_site_occupancy
  Cu  Cu1       1.0  0.91616  0.07041999999999998  0.9657  1.0000
  Cu  Cu2       1.0  0.08558000000000003  0.93318  0.03241  1.0000
  Cu  Cu3       1.0  0.0002500000000000271  0.49798999999999977  0.5009  1.0000
  Cu  Cu4       1.0  0.49981  0.49983  0.00025  1.0000
  H   H1        1.0  0.94836  0.45637000000000005  0.75877  1.0000
  H   H2        1.0  0.7383  0.5208099999999998  0.57955  1.0000
  H   H3        1.0  0.7622699999999998  0.4515199999999999  0.95396  1.0000
  H   H4        1.0  0.05174000000000001  0.5435299999999997  0.24130000000000001  1.0000
  H   H5        1.0  0.26168  0.47933999999999993  0.42034000000000005  1.0000
  H   H6        1.0  0.2377800000000001  0.54827  0.04613  1.0000
  W   W1        1.0  0.88639  0.26196  0.52934  1.0000
  W   W2        1.0  0.9758000000000004  0.73066  0.77285  1.0000
  W   W3        1.0  0.8314999999999999  0.95487  0.7337800000000001  1.0000
  W   W4        1.0  0.98845  0.17595  0.73414  1.0000
  W   W5        1.0  0.88513  0.024189999999999982  0.27692000000000005  1.0000
  W   W6        1.0  0.8442900000000007  0.8393299999999999  0.59574  1.0000
  W   W7        1.0  0.11135000000000003  0.7388599999999999  0.47340000000000004  1.0000
  W   W8        1.0  0.029169999999999995  0.25527  0.24138000000000004  1.0000
  W   W9        1.0  0.16846000000000003  0.05247  0.2756  1.0000
  W   W10       1.0  0.00985999999999998  0.82647  0.26517  1.0000
  W   W11       1.0  0.12105000000000002  0.9796799999999999  0.7162400000000001  1.0000
  W   W12       1.0  0.14901999999999996  0.1488  0.40871  1.0000
  C   C1        1.0  0.8609  0.46895999999999993  0.7629500000000001  1.0000
  C   C2        1.0  0.7473999999999998  0.50743  0.66073  1.0000
  C   C3        1.0  0.6475199999999999  0.5078099999999999  0.7656200000000001  1.0000
  C   C4        1.0  0.76038  0.46643000000000007  0.8689  1.0000
  C   C5        1.0  0.525  0.53372  0.77199  1.0000
  C   C6        1.0  0.13934  0.5315299999999998  0.23698  1.0000
  C   C7        1.0  0.25286  0.49333000000000005  0.33887  1.0000
  C   C8        1.0  0.3522000000000001  0.49196999999999996  0.23461000000000007  1.0000
  C   C9        1.0  0.23936000000000002  0.53305  0.1315  1.0000
  C   C10       1.0  0.4749300000000001  0.46622  0.22806000000000004  1.0000
  N   N1        1.0  0.85402  0.49000000000000005  0.65888  1.0000
  N   N2        1.0  0.65654  0.4869299999999999  0.8682400000000001  1.0000
  N   N3        1.0  0.14636999999999997  0.51192  0.34041  1.0000
  N   N4        1.0  0.3436000000000001  0.51302  0.13178  1.0000
  O   O1        1.0  0.8875900000000002  0.4057799999999999  0.48647  1.0000
  O   O2        1.0  0.8146400000000001  0.0985  0.63691  1.0000
  O   O3        1.0  0.8757700000000002  0.7048699999999998  0.72642  1.0000
  O   O4        1.0  0.82096  0.9470900000000001  0.46796  1.0000
  O   O5        1.0  0.7203399999999999  0.8674399999999998  0.7386900000000001  1.0000
  O   O6        1.0  0.8700900000000003  0.81284  0.8470000000000001  1.0000
  O   O7        1.0  0.03992999999999996  0.22947999999999996  0.51103  1.0000
  O   O8        1.0  0.09884  0.83501  0.73374  1.0000
  O   O9        1.0  0.8502000000000001  0.82754  0.34251  1.0000
  O   O10       1.0  0.9674600000000001  0.029930000000000012  0.74319  1.0000
  O   O11       1.0  0.9525600000000004  0.91629  0.60327  1.0000
  O   O12       1.0  0.8651800000000001  0.23537000000000002  0.70285  1.0000
  O   O13       1.0  0.8923100000000004  0.26458999999999994  0.38949  1.0000
  O   O14       1.0  0.87537  0.05178  0.14589  1.0000
  O   O15       1.0  0.44492  0.53568  0.87673  1.0000
  O   O16       1.0  0.5122400000000001  0.5509699999999997  0.68194  1.0000
  O   O17       1.0  0.86892  0.9269199999999999  0.020450000000000003  1.0000
  O   O18       1.0  0.11483000000000008  0.5983599999999998  0.51152  1.0000
  O   O19       1.0  0.18289  0.90369  0.36195  1.0000
  O   O20       1.0  0.13958  0.30959000000000003  0.25843  1.0000
  O   O21       1.0  0.18902999999999998  0.04993999999999994  0.5283300000000001  1.0000
  O   O22       1.0  0.28695  0.13660000000000003  0.26071  1.0000
  O   O23       1.0  0.13374  0.17912  0.14985  1.0000
  O   O24       1.0  0.9595599999999999  0.7715  0.48313  1.0000
  O   O25       1.0  0.89313  0.16087999999999994  0.27068000000000003  1.0000
  O   O26       1.0  0.14614999999999997  0.16714999999999988  0.6639100000000001  1.0000
  O   O27       1.0  0.02991000000000003  0.9692799999999999  0.25861  1.0000
  O   O28       1.0  0.030059999999999993  0.09328999999999998  0.3898400000000001  1.0000
  O   O29       1.0  0.13461  0.76436  0.29154  1.0000
  O   O30       1.0  0.10067999999999996  0.73448  0.61994  1.0000
  O   O31       1.0  0.12382000000000001  0.94234  0.85465  1.0000
  O   O32       1.0  0.55528  0.46458  0.12304  1.0000
  O   O33       1.0  0.48793  0.44926  0.31784  1.0000
  O   O34       1.0  0.13114  0.07455999999999999  0.9796  1.0000
