data_image0
_chemical_formula_structural       Mg4H16C16O20
_chemical_formula_sum              "Mg4 H16 C16 O20"
_cell_length_a       7.55176
_cell_length_b       7.5517
_cell_length_c       12.88324
_cell_angle_alpha    90.0
_cell_angle_beta     90.0
_cell_angle_gamma    90.0

_symmetry_space_group_name_H-M    'P 1'
_symmetry_Int_Tables_number       1

loop_
  _symmetry_equiv_pos_as_xyz
  'x,y,z'

loop_
  _atom_site_type_symbol
  _atom_site_label
  _atom_site_symmetry_multiplicity
  _atom_site_fract_x
  _atom_site_fract_y
  _atom_site_fract_z
  _atom_site_occupancy
  Mg  Mg1       1.0  0.44529999999999986  0.11797  0.7817799999999999  1.0000
  Mg  Mg2       1.0  0.5546999999999997  0.88203  0.28178  1.0000
  Mg  Mg3       1.0  0.88203  0.4453  0.03178  1.0000
  Mg  Mg4       1.0  0.11797  0.5547  0.53178  1.0000
  H   H1        1.0  0.4069699999999999  0.09343  0.9919899999999999  1.0000
  H   H2        1.0  0.25729  0.8495  0.99698  1.0000
  H   H3        1.0  0.60895  0.71514  0.9074  1.0000
  H   H4        1.0  0.44401  0.5713099999999999  0.9541299999999999  1.0000
  H   H5        1.0  0.59303  0.9065699999999998  0.49199  1.0000
  H   H6        1.0  0.74271  0.1505  0.49698  1.0000
  H   H7        1.0  0.39105  0.2848699999999999  0.4074  1.0000
  H   H8        1.0  0.55599  0.42869  0.45413  1.0000
  H   H9        1.0  0.9065699999999998  0.4069699999999999  0.24199  1.0000
  H   H10       1.0  0.1505  0.25729  0.24698  1.0000
  H   H11       1.0  0.2848599999999999  0.60894  0.1574  1.0000
  H   H12       1.0  0.4286899999999999  0.44401  0.20413  1.0000
  H   H13       1.0  0.09343  0.59304  0.7419899999999999  1.0000
  H   H14       1.0  0.8494999999999998  0.7427199999999998  0.74698  1.0000
  H   H15       1.0  0.7151399999999998  0.39106  0.6574  1.0000
  H   H16       1.0  0.57131  0.55599  0.7041299999999999  1.0000
  C   C1        1.0  0.27187  0.79456  0.83348  1.0000
  C   C2        1.0  0.36007  0.8446  0.93657  1.0000
  C   C3        1.0  0.49941  0.70535  0.96308  1.0000
  C   C4        1.0  0.5786899999999999  0.71824  0.07052  1.0000
  C   C5        1.0  0.72813  0.20544  0.33348  1.0000
  C   C6        1.0  0.63993  0.1554  0.43657  1.0000
  C   C7        1.0  0.50059  0.29465  0.46309  1.0000
  C   C8        1.0  0.42131  0.28176  0.57052  1.0000
  C   C9        1.0  0.20543  0.27187  0.08348  1.0000
  C   C10       1.0  0.15539999999999995  0.3600699999999999  0.18656999999999999  1.0000
  C   C11       1.0  0.29465  0.4993999999999999  0.21309  1.0000
  C   C12       1.0  0.28175  0.57868  0.32051999999999997  1.0000
  C   C13       1.0  0.79457  0.72813  0.58348  1.0000
  C   C14       1.0  0.8446  0.63994  0.68657  1.0000
  C   C15       1.0  0.70535  0.5006  0.71308  1.0000
  C   C16       1.0  0.71825  0.42132  0.82052  1.0000
  O   O1        1.0  0.29082  0.90013  0.75635  1.0000
  O   O2        1.0  0.19062  0.64825  0.83317  1.0000
  O   O3        1.0  0.7081599999999998  0.6172799999999998  0.09386  1.0000
  O   O4        1.0  0.5095  0.8256499999999999  0.13466  1.0000
  O   O5        1.0  0.44135999999999986  0.015189999999999997  0.92706  1.0000
  O   O6        1.0  0.7091799999999998  0.09987  0.25636  1.0000
  O   O7        1.0  0.80938  0.35175  0.33317  1.0000
  O   O8        1.0  0.29184  0.3827199999999999  0.59386  1.0000
  O   O9        1.0  0.4905  0.17435  0.63465  1.0000
  O   O10       1.0  0.5586399999999998  0.9848099999999997  0.42706  1.0000
  O   O11       1.0  0.09988  0.2908099999999999  0.00636  1.0000
  O   O12       1.0  0.3517499999999999  0.19061  0.08317  1.0000
  O   O13       1.0  0.38271999999999995  0.70817  0.34385999999999994  1.0000
  O   O14       1.0  0.17436  0.50951  0.38465  1.0000
  O   O15       1.0  0.9848099999999997  0.44136  0.17706  1.0000
  O   O16       1.0  0.90012  0.7091899999999998  0.50636  1.0000
  O   O17       1.0  0.64825  0.8094  0.58317  1.0000
  O   O18       1.0  0.61728  0.29183  0.84386  1.0000
  O   O19       1.0  0.82564  0.4904999999999999  0.88465  1.0000
  O   O20       1.0  0.01519  0.55864  0.67706  1.0000
