data_image0
_chemical_formula_structural       Fe6H6C24O30
_chemical_formula_sum              "Fe6 H6 C24 O30"
_cell_length_a       7.04552
_cell_length_b       15.04459
_cell_length_c       15.091280000000001
_cell_angle_alpha    117.78964
_cell_angle_beta     99.14523
_cell_angle_gamma    99.15647999999999

_space_group_name_H-M_alt    "P 1"
_space_group_IT_number       1

loop_
  _space_group_symop_operation_xyz
  'x, y, z'

loop_
  _atom_site_type_symbol
  _atom_site_label
  _atom_site_symmetry_multiplicity
  _atom_site_fract_x
  _atom_site_fract_y
  _atom_site_fract_z
  _atom_site_occupancy
  Fe  Fe1       1.0  0.11181999999999995  0.57503  0.31743  1.0000
  Fe  Fe2       1.0  0.8888199999999998  0.42371000000000003  0.6818200000000001  1.0000
  Fe  Fe3       1.0  0.4627  0.2584  0.57701  1.0000
  Fe  Fe4       1.0  0.5365399999999999  0.7423099999999998  0.42637  1.0000
  Fe  Fe5       1.0  0.7948699999999997  0.67388  0.26504  1.0000
  Fe  Fe6       1.0  0.20458999999999988  0.3192099999999999  0.74237  1.0000
  H   H1        1.0  0.36398  0.022390000000000007  0.55282  1.0000
  H   H2        1.0  0.65997  0.46574  0.0187  1.0000
  H   H3        1.0  0.8081600000000001  0.44649000000000005  0.4681100000000001  1.0000
  H   H4        1.0  0.3452  0.53584  0.98187  1.0000
  H   H5        1.0  0.6368999999999998  0.9775999999999999  0.44727000000000006  1.0000
  H   H6        1.0  0.19104000000000004  0.55281  0.53355  1.0000
  C   C1        1.0  0.6102699999999998  0.53437  0.44718  1.0000
  C   C2        1.0  0.97002  0.53432  0.09941  1.0000
  C   C3        1.0  0.16757  0.55567  0.08973  1.0000
  C   C4        1.0  0.19478999999999996  0.52054  0.99011  1.0000
  C   C5        1.0  0.20439999999999994  0.012330000000000008  0.52904  1.0000
  C   C6        1.0  0.43330999999999986  0.56505  0.46644  1.0000
  C   C7        1.0  0.7306099999999998  0.56333  0.38742  1.0000
  C   C8        1.0  0.56612  0.43482999999999994  0.53565  1.0000
  C   C9        1.0  0.8329799999999998  0.17834  0.56475  1.0000
  C   C10       1.0  0.3261099999999999  0.52916  0.51905  1.0000
  C   C11       1.0  0.1710199999999999  0.8232899999999997  0.43547  1.0000
  C   C12       1.0  0.38883999999999996  0.46501999999999993  0.55461  1.0000
  C   C13       1.0  0.6556599999999998  0.3864499999999999  0.82082  1.0000
  C   C14       1.0  0.13171  0.10044  0.56523  1.0000
  C   C15       1.0  0.92338  0.08853  0.53485  1.0000
  C   C16       1.0  0.80993  0.48153  0.01017  1.0000
  C   C17       1.0  0.7964299999999999  0.9878000000000001  0.4708900000000001  1.0000
  C   C18       1.0  0.8370799999999999  0.44668  0.91063  1.0000
  C   C19       1.0  0.2678199999999999  0.43524  0.61394  1.0000
  C   C20       1.0  0.6732899999999998  0.4703  0.48283  1.0000
  C   C21       1.0  0.8686299999999998  0.89912  0.43602  1.0000
  C   C22       1.0  0.3491699999999999  0.61615  0.17984  1.0000
  C   C23       1.0  0.07762999999999998  0.9116399999999999  0.4652  1.0000
  C   C24       1.0  0.03435999999999993  0.4670500000000001  0.9007600000000001  1.0000
  O   O1        1.0  0.48738  0.38158  0.84065  1.0000
  O   O2        1.0  0.8959  0.54117  0.38401  1.0000
  O   O3        1.0  0.9312200000000002  0.75847  0.21597000000000002  1.0000
  O   O4        1.0  0.22942  0.22717  0.44712  1.0000
  O   O5        1.0  0.35983  0.84451  0.46038  1.0000
  O   O6        1.0  0.09430999999999999  0.41444  0.26325  1.0000
  O   O7        1.0  0.07534  0.43689  0.80724  1.0000
  O   O8        1.0  0.057219999999999986  0.7290899999999998  0.38812000000000013  1.0000
  O   O9        1.0  0.16428000000000004  0.26352  0.84771  1.0000
  O   O10       1.0  0.10419000000000006  0.45982000000000006  0.6179200000000001  1.0000
  O   O11       1.0  0.9053099999999997  0.58496  0.7364800000000001  1.0000
  O   O12       1.0  0.7345399999999999  0.80416  0.37562  1.0000
  O   O13       1.0  0.67646  0.8432  0.58452  1.0000
  O   O14       1.0  0.21382  0.44655  0.21942  1.0000
  O   O15       1.0  0.32251999999999986  0.15362999999999996  0.41542  1.0000
  O   O16       1.0  0.92622  0.5612799999999998  0.19189000000000006  1.0000
  O   O17       1.0  0.33556999999999976  0.38896999999999976  0.66075  1.0000
  O   O18       1.0  0.32455  0.66049  0.27262  1.0000
  O   O19       1.0  0.6768999999999995  0.33945  0.72771  1.0000
  O   O20       1.0  0.84694  0.75308  0.1324  1.0000
  O   O21       1.0  0.000670000000000015  0.21961  0.77141  1.0000
  O   O22       1.0  0.26609  0.19496  0.62924  1.0000
  O   O23       1.0  0.51869  0.6233999999999997  0.16138000000000002  1.0000
  O   O24       1.0  0.9494699999999999  0.27195  0.61156  1.0000
  O   O25       1.0  0.78934  0.5534699999999998  0.78182  1.0000
  O   O26       1.0  0.7719499999999999  0.7702599999999997  0.5544  1.0000
  O   O27       1.0  0.65735  0.6073099999999999  0.33856000000000014  1.0000
  O   O28       1.0  0.63717  0.37171  0.56637  1.0000
  O   O29       1.0  0.64472  0.15827  0.53993  1.0000
  O   O30       1.0  0.3624299999999999  0.62872  0.43654  1.0000
