data_image0
_chemical_formula_structural       La2H24C18S6O12
_chemical_formula_sum              "La2 H24 C18 S6 O12"
_cell_length_a       8.68791
_cell_length_b       10.69759
_cell_length_c       11.604789999999998
_cell_angle_alpha    76.26441
_cell_angle_beta     68.91102
_cell_angle_gamma    81.14506

_space_group_name_H-M_alt    "P 1"
_space_group_IT_number       1

loop_
  _space_group_symop_operation_xyz
  'x, y, z'

loop_
  _atom_site_type_symbol
  _atom_site_label
  _atom_site_symmetry_multiplicity
  _atom_site_fract_x
  _atom_site_fract_y
  _atom_site_fract_z
  _atom_site_occupancy
  La  La1       1.0  0.25112000000000007  0.49491999999999997  0.50085  1.0000
  La  La2       1.0  0.7488799999999997  0.50507  0.49915000000000004  1.0000
  H   H1        1.0  0.34181  0.08103999999999999  0.56435  1.0000
  H   H2        1.0  0.35500999999999994  0.9126300000000002  0.57113  1.0000
  H   H3        1.0  0.29759  0.52814  0.16954  1.0000
  H   H4        1.0  0.22196  0.68899  0.16321  1.0000
  H   H5        1.0  0.45583999999999997  0.39637999999999995  0.01782  1.0000
  H   H6        1.0  0.46122  0.45132  0.8604000000000002  1.0000
  H   H7        1.0  0.14346  0.38048  0.08463  1.0000
  H   H8        1.0  0.15482000000000004  0.42792  0.926  1.0000
  H   H9        1.0  0.42300999999999994  0.12994999999999998  0.7732000000000001  1.0000
  H   H10       1.0  0.27692  0.26802  0.7939100000000001  1.0000
  H   H11       1.0  0.55736  0.18114  0.24699000000000002  1.0000
  H   H12       1.0  0.37452  0.20715  0.20997  1.0000
  H   H13       1.0  0.6581899999999998  0.9189499999999999  0.43565  1.0000
  H   H14       1.0  0.64499  0.08737000000000002  0.42887  1.0000
  H   H15       1.0  0.7024  0.47185999999999995  0.8304600000000001  1.0000
  H   H16       1.0  0.7780400000000001  0.31101  0.83679  1.0000
  H   H17       1.0  0.54415  0.6036099999999999  0.98218  1.0000
  H   H18       1.0  0.53877  0.54867  0.1396  1.0000
  H   H19       1.0  0.8565399999999999  0.6195200000000002  0.9153699999999999  1.0000
  H   H20       1.0  0.84517  0.57207  0.074  1.0000
  H   H21       1.0  0.57699  0.87004  0.22680000000000003  1.0000
  H   H22       1.0  0.72307  0.73197  0.20609  1.0000
  H   H23       1.0  0.44264000000000003  0.81886  0.75301  1.0000
  H   H24       1.0  0.62548  0.7928500000000002  0.7900299999999999  1.0000
  C   C1        1.0  0.40696  0.0036000000000000047  0.51355  1.0000
  C   C2        1.0  0.19342000000000004  0.59469  0.15589  1.0000
  C   C3        1.0  0.3966399999999999  0.38980999999999993  0.95022  1.0000
  C   C4        1.0  0.21384000000000003  0.43597  0.99298  1.0000
  C   C5        1.0  0.40381999999999996  0.23036  0.78764  1.0000
  C   C6        1.0  0.42205  0.18224  0.28946  1.0000
  C   C7        1.0  0.041749999999999995  0.55256  0.26603  1.0000
  C   C8        1.0  0.3611000000000001  0.2907099999999999  0.36307  1.0000
  C   C9        1.0  0.52556  0.30626000000000003  0.67252  1.0000
  C   C10       1.0  0.5930399999999999  0.99639  0.48645000000000005  1.0000
  C   C11       1.0  0.80658  0.40529999999999994  0.84411  1.0000
  C   C12       1.0  0.60336  0.61018  0.04978  1.0000
  C   C13       1.0  0.78616  0.56402  0.00702  1.0000
  C   C14       1.0  0.5961799999999998  0.7696400000000001  0.21236  1.0000
  C   C15       1.0  0.57795  0.8177600000000002  0.71054  1.0000
  C   C16       1.0  0.9582499999999999  0.44744  0.73397  1.0000
  C   C17       1.0  0.6388999999999999  0.70928  0.63693  1.0000
  C   C18       1.0  0.4744399999999999  0.69373  0.32748  1.0000
  S   S1        1.0  0.18554  0.6075  0.00035  1.0000
  S   S2        1.0  0.44076  0.22113999999999998  0.93401  1.0000
  S   S3        1.0  0.3490599999999999  0.024750000000000008  0.37333  1.0000
  S   S4        1.0  0.81446  0.39249999999999996  0.9996500000000001  1.0000
  S   S5        1.0  0.5592399999999998  0.77886  0.06599  1.0000
  S   S6        1.0  0.65094  0.9752399999999998  0.62667  1.0000
  O   O1        1.0  0.059119999999999985  0.51929  0.37638  1.0000
  O   O2        1.0  0.43912999999999996  0.39376  0.3195  1.0000
  O   O3        1.0  0.9014499999999998  0.54911  0.25756  1.0000
  O   O4        1.0  0.23629999999999998  0.2799400000000001  0.46466  1.0000
  O   O5        1.0  0.6778699999999999  0.2997599999999999  0.65808  1.0000
  O   O6        1.0  0.4714199999999999  0.38060000000000005  0.58654  1.0000
  O   O7        1.0  0.9408799999999999  0.48071  0.62362  1.0000
  O   O8        1.0  0.5608700000000001  0.60623  0.6805  1.0000
  O   O9        1.0  0.09855000000000003  0.45088  0.74244  1.0000
  O   O10       1.0  0.7636999999999999  0.7200599999999999  0.53534  1.0000
  O   O11       1.0  0.32212999999999997  0.7002300000000001  0.34192  1.0000
  O   O12       1.0  0.5285799999999999  0.6194  0.41346  1.0000
