data_image0
_chemical_formula_structural       K2Sc2H12C12O24
_chemical_formula_sum              "K2 Sc2 H12 C12 O24"
_cell_length_a       9.11868
_cell_length_b       9.726970000000001
_cell_length_c       13.47918
_cell_angle_alpha    90.53981
_cell_angle_beta     90.07378
_cell_angle_gamma    90.03815

_symmetry_space_group_name_H-M    'P 1'
_symmetry_Int_Tables_number       1

loop_
  _symmetry_equiv_pos_as_xyz
  'x,y,z'

loop_
  _atom_site_type_symbol
  _atom_site_label
  _atom_site_symmetry_multiplicity
  _atom_site_fract_x
  _atom_site_fract_y
  _atom_site_fract_z
  _atom_site_occupancy
  K   K1        1.0  0.5  0.5  0.5  1.0000
  K   K2        1.0  0.0  0.0  0.0  1.0000
  Sc  Sc1       1.0  0.0  0.0  0.5  1.0000
  Sc  Sc2       1.0  0.5  0.5  0.0  1.0000
  H   H1        1.0  0.31112  0.18733000000000002  0.49202000000000007  1.0000
  H   H2        1.0  0.84063  0.28884  0.49834  1.0000
  H   H3        1.0  0.51632  0.5762700000000001  0.23691  1.0000
  H   H4        1.0  0.80849  0.31778  0.00872  1.0000
  H   H5        1.0  0.33742  0.21233  0.00046  1.0000
  H   H6        1.0  0.016469999999999995  0.92485  0.26281  1.0000
  H   H7        1.0  0.68887  0.8126700000000001  0.50797  1.0000
  H   H8        1.0  0.15936  0.71116  0.50165  1.0000
  H   H9        1.0  0.48367  0.42374000000000006  0.76308  1.0000
  H   H10       1.0  0.1915  0.68223  0.99128  1.0000
  H   H11       1.0  0.66257  0.78767  0.99954  1.0000
  H   H12       1.0  0.98352  0.07515  0.73719  1.0000
  C   C1        1.0  0.22354  0.24741  0.53078  1.0000
  C   C2        1.0  0.75943  0.21649  0.53049  1.0000
  C   C3        1.0  0.4878799999999999  0.46477000000000007  0.23084999999999997  1.0000
  C   C4        1.0  0.72306  0.25556  0.9694699999999999  1.0000
  C   C5        1.0  0.25564  0.28492000000000006  0.96893  1.0000
  C   C6        1.0  0.98555  0.03573  0.26909  1.0000
  C   C7        1.0  0.77645  0.7526  0.46921999999999997  1.0000
  C   C8        1.0  0.24056  0.78351  0.46951  1.0000
  C   C9        1.0  0.51211  0.53524  0.76915  1.0000
  C   C10       1.0  0.27693  0.74444  0.03053  1.0000
  C   C11       1.0  0.74435  0.71508  0.03107  1.0000
  C   C12       1.0  0.01444  0.96427  0.7309100000000001  1.0000
  O   O1        1.0  0.10335999999999997  0.18148  0.54548  1.0000
  O   O2        1.0  0.252  0.36807  0.55503  1.0000
  O   O3        1.0  0.79924  0.0905  0.54017  1.0000
  O   O4        1.0  0.63701  0.26356  0.55475  1.0000
  O   O5        1.0  0.48140999999999995  0.41633  0.14219  1.0000
  O   O6        1.0  0.46667  0.4033700000000001  0.3101400000000001  1.0000
  O   O7        1.0  0.60048  0.3174600000000001  0.95418  1.0000
  O   O8        1.0  0.7553599999999999  0.13582  0.94499  1.0000
  O   O9        1.0  0.29646  0.4106  0.96005  1.0000
  O   O10       1.0  0.1334  0.23679000000000003  0.94522  1.0000
  O   O11       1.0  0.9776899999999998  0.08357000000000002  0.35778  1.0000
  O   O12       1.0  0.96307  0.09668000000000003  0.18973  1.0000
  O   O13       1.0  0.8966299999999999  0.8185200000000001  0.45452  1.0000
  O   O14       1.0  0.7479899999999999  0.63193  0.44497  1.0000
  O   O15       1.0  0.20075  0.9095100000000003  0.45983  1.0000
  O   O16       1.0  0.36298  0.73644  0.4452499999999999  1.0000
  O   O17       1.0  0.51858  0.58367  0.85781  1.0000
  O   O18       1.0  0.53332  0.5966400000000001  0.68986  1.0000
  O   O19       1.0  0.39951  0.6825500000000001  0.04581  1.0000
  O   O20       1.0  0.24462999999999996  0.8641900000000001  0.055009999999999996  1.0000
  O   O21       1.0  0.70353  0.58941  0.03994999999999999  1.0000
  O   O22       1.0  0.86659  0.76322  0.05478  1.0000
  O   O23       1.0  0.022299999999999993  0.91643  0.64222  1.0000
  O   O24       1.0  0.03692  0.9033300000000001  0.8102599999999999  1.0000
