data_image0
_chemical_formula_structural       TbH3C3O6
_chemical_formula_sum              "Tb1 H3 C3 O6"
_cell_length_a       6.31858
_cell_length_b       6.3364400000000005
_cell_length_c       6.34012
_cell_angle_alpha    69.76816
_cell_angle_beta     71.94604
_cell_angle_gamma    72.7172

_symmetry_space_group_name_H-M    'P 1'
_symmetry_Int_Tables_number       1

loop_
  _symmetry_equiv_pos_as_xyz
  'x,y,z'

loop_
  _atom_site_type_symbol
  _atom_site_label
  _atom_site_symmetry_multiplicity
  _atom_site_fract_x
  _atom_site_fract_y
  _atom_site_fract_z
  _atom_site_occupancy
  Tb  Tb1       1.0  0.9987099999999998  0.52497  0.4777  1.0000
  H   H1        1.0  0.8998199999999996  0.5871  0.9839  1.0000
  H   H2        1.0  0.09873999999999998  0.015640000000000043  0.4183599999999999  1.0000
  H   H3        1.0  0.5004099999999998  0.43997  0.55528  1.0000
  C   C1        1.0  0.059609999999999996  0.4551600000000001  0.9812799999999999  1.0000
  C   C2        1.0  0.9368299999999997  0.018910000000000027  0.5506099999999999  1.0000
  C   C3        1.0  0.5007799999999999  0.5939200000000001  0.40501  1.0000
  O   O1        1.0  0.14611  0.38951  0.15653  1.0000
  O   O2        1.0  0.32170999999999994  0.6765699999999999  0.32508  1.0000
  O   O3        1.0  0.14451  0.38102  0.80285  1.0000
  O   O4        1.0  0.8460299999999998  0.8449099999999999  0.61596  1.0000
  O   O5        1.0  0.68049  0.67613  0.324  1.0000
  O   O6        1.0  0.85445  0.19646999999999998  0.62559  1.0000
