data_image0
_chemical_formula_structural       In4P6H24C30N6O24
_chemical_formula_sum              "In4 P6 H24 C30 N6 O24"
_cell_length_a       10.42373
_cell_length_b       11.77391
_cell_length_c       11.127330000000002
_cell_angle_alpha    108.50855
_cell_angle_beta     101.36447
_cell_angle_gamma    102.10466999999998

_symmetry_space_group_name_H-M    'P 1'
_symmetry_Int_Tables_number       1

loop_
  _symmetry_equiv_pos_as_xyz
  'x,y,z'

loop_
  _atom_site_type_symbol
  _atom_site_label
  _atom_site_symmetry_multiplicity
  _atom_site_fract_x
  _atom_site_fract_y
  _atom_site_fract_z
  _atom_site_occupancy
  In  In1       1.0  0.010499999999999997  0.0076499999999999875  0.76904  1.0000
  In  In2       1.0  0.9895  0.9923499999999998  0.23096000000000003  1.0000
  In  In3       1.0  0.5  0.0  0.0  1.0000
  In  In4       1.0  0.4999999999999999  0.0  0.5  1.0000
  P   P1        1.0  0.18236999999999998  0.99179  0.03567  1.0000
  P   P2        1.0  0.37094  0.10340999999999999  0.75929  1.0000
  P   P3        1.0  0.8395199999999999  0.13726  0.58872  1.0000
  P   P4        1.0  0.8176199999999999  0.00822000000000003  0.9643300000000001  1.0000
  P   P5        1.0  0.62906  0.8965899999999999  0.24070999999999998  1.0000
  P   P6        1.0  0.1604699999999999  0.8627399999999998  0.4112799999999999  1.0000
  H   H1        1.0  0.8417900000000001  0.8784099999999999  0.47936  1.0000
  H   H2        1.0  0.95968  0.73504  0.76526  1.0000
  H   H3        1.0  0.74894  0.67237  0.30449  1.0000
  H   H4        1.0  0.86627  0.51483  0.59935  1.0000
  H   H5        1.0  0.60921  0.50213  0.19489  1.0000
  H   H6        1.0  0.83786  0.34767  0.44029000000000007  1.0000
  H   H7        1.0  0.49274  0.28375  0.03452  1.0000
  H   H8        1.0  0.71831  0.14118999999999998  0.26889  1.0000
  H   H9        1.0  0.6109  0.87485  0.69404  1.0000
  H   H10       1.0  0.38095999999999997  0.7095699999999999  0.30001  1.0000
  H   H11       1.0  0.62328  0.67326  0.70487  1.0000
  H   H12       1.0  0.37859  0.4979799999999999  0.29429  1.0000
  H   H13       1.0  0.1582  0.12159999999999996  0.52064  1.0000
  H   H14       1.0  0.25105  0.3276299999999999  0.69551  1.0000
  H   H15       1.0  0.39079  0.49786999999999987  0.8051099999999999  1.0000
  H   H16       1.0  0.16213999999999992  0.6523399999999998  0.55971  1.0000
  H   H17       1.0  0.50726  0.7162599999999999  0.9654900000000001  1.0000
  H   H18       1.0  0.28168  0.85881  0.73111  1.0000
  H   H19       1.0  0.38909999999999995  0.12516  0.30596  1.0000
  H   H20       1.0  0.61903  0.29042999999999997  0.69999  1.0000
  H   H21       1.0  0.37671  0.32675  0.29513  1.0000
  H   H22       1.0  0.6214  0.50202  0.70571  1.0000
  H   H23       1.0  0.04031999999999999  0.26496999999999993  0.23474  1.0000
  H   H24       1.0  0.13372  0.48518  0.40065  1.0000
  C   C1        1.0  0.84525  0.79596  0.50196  1.0000
  C   C2        1.0  0.91157  0.71386  0.66157  1.0000
  C   C3        1.0  0.7937899999999999  0.6776899999999999  0.40352  1.0000
  C   C4        1.0  0.86039  0.59266  0.56782  1.0000
  C   C5        1.0  0.79893  0.57265  0.43522  1.0000
  C   C6        1.0  0.7353599999999998  0.44571  0.33305  1.0000
  C   C7        1.0  0.63728  0.4247799999999999  0.21528000000000003  1.0000
  C   C8        1.0  0.7648399999999997  0.34095999999999993  0.35194  1.0000
  C   C9        1.0  0.5711999999999999  0.30344999999999994  0.12493999999999998  1.0000
  C   C10       1.0  0.6963  0.22284  0.25626  1.0000
  C   C11       1.0  0.56176  0.78898  0.60719  1.0000
  C   C12       1.0  0.43254  0.6967299999999998  0.38737  1.0000
  C   C13       1.0  0.5665499999999999  0.6732999999999999  0.61187  1.0000
  C   C14       1.0  0.43225  0.5778899999999998  0.38567  1.0000
  C   C15       1.0  0.49984999999999996  0.5629799999999999  0.49951  1.0000
  C   C16       1.0  0.15474  0.20405  0.49804  1.0000
  C   C17       1.0  0.08842  0.28615  0.33843  1.0000
  C   C18       1.0  0.20619999999999997  0.32232  0.59648  1.0000
  C   C19       1.0  0.1396  0.4073499999999999  0.43217999999999995  1.0000
  C   C20       1.0  0.20107  0.42736  0.56478  1.0000
  C   C21       1.0  0.26463  0.5543  0.66695  1.0000
  C   C22       1.0  0.36271  0.5752199999999998  0.78472  1.0000
  C   C23       1.0  0.23515  0.65905  0.64806  1.0000
  C   C24       1.0  0.4287999999999999  0.6965599999999998  0.8750599999999998  1.0000
  C   C25       1.0  0.3036999999999999  0.7771699999999998  0.74374  1.0000
  C   C26       1.0  0.43823  0.21103  0.39281  1.0000
  C   C27       1.0  0.56746  0.30328  0.61263  1.0000
  C   C28       1.0  0.43343999999999994  0.3267  0.38813  1.0000
  C   C29       1.0  0.5677399999999999  0.42212  0.61434  1.0000
  C   C30       1.0  0.50014  0.43702999999999986  0.50049  1.0000
  N   N1        1.0  0.9031300000000001  0.81378  0.62837  1.0000
  N   N2        1.0  0.60015  0.20326999999999998  0.14561  1.0000
  N   N3        1.0  0.4956499999999999  0.8009699999999997  0.49658  1.0000
  N   N4        1.0  0.09686  0.18622999999999995  0.37163  1.0000
  N   N5        1.0  0.39984  0.7967399999999999  0.85439  1.0000
  N   N6        1.0  0.50435  0.19903999999999997  0.50342  1.0000
  O   O1        1.0  0.12941  0.9334099999999999  0.8809200000000001  1.0000
  O   O2        1.0  0.08279999999999993  0.9095699999999998  0.08664  1.0000
  O   O3        1.0  0.32615  0.9769199999999998  0.08415  1.0000
  O   O4        1.0  0.18768  0.13029  0.09159  1.0000
  O   O5        1.0  0.20229000000000003  0.029580000000000002  0.66213  1.0000
  O   O6        1.0  0.37941  0.07898  0.88761  1.0000
  O   O7        1.0  0.46041999999999994  0.03813  0.68617  1.0000
  O   O8        1.0  0.3783  0.23623999999999995  0.77655  1.0000
  O   O9        1.0  0.97218  0.10784999999999995  0.64604  1.0000
  O   O10       1.0  0.71606  0.04737999999999996  0.59952  1.0000
  O   O11       1.0  0.8251399999999999  0.1082  0.42742  1.0000
  O   O12       1.0  0.85108  0.27419  0.62947  1.0000
  O   O13       1.0  0.8705900000000001  0.06658999999999998  0.11908  1.0000
  O   O14       1.0  0.9171899999999998  0.09042999999999997  0.91336  1.0000
  O   O15       1.0  0.67385  0.02308000000000002  0.91585  1.0000
  O   O16       1.0  0.8123100000000002  0.86971  0.9084100000000002  1.0000
  O   O17       1.0  0.7976999999999999  0.9704199999999997  0.33787  1.0000
  O   O18       1.0  0.62058  0.9210299999999999  0.11239000000000002  1.0000
  O   O19       1.0  0.5395799999999998  0.9618699999999999  0.31383  1.0000
  O   O20       1.0  0.62169  0.76377  0.22345000000000004  1.0000
  O   O21       1.0  0.027809999999999988  0.8921499999999999  0.35396  1.0000
  O   O22       1.0  0.28392999999999996  0.9526299999999999  0.40048  1.0000
  O   O23       1.0  0.17484999999999992  0.8918099999999998  0.57258  1.0000
  O   O24       1.0  0.14891  0.72582  0.37053  1.0000
