data_image0
_chemical_formula_structural       Er4P4H28C20N4O28
_chemical_formula_sum              "Er4 P4 H28 C20 N4 O28"
_cell_length_a       9.51368
_cell_length_b       8.88616
_cell_length_c       14.932140000000002
_cell_angle_alpha    89.72915
_cell_angle_beta     89.87902
_cell_angle_gamma    89.89146

_space_group_name_H-M_alt    "P 1"
_space_group_IT_number       1

loop_
  _space_group_symop_operation_xyz
  'x, y, z'

loop_
  _atom_site_type_symbol
  _atom_site_label
  _atom_site_symmetry_multiplicity
  _atom_site_fract_x
  _atom_site_fract_y
  _atom_site_fract_z
  _atom_site_occupancy
  Er  Er1       1.0  0.05275  0.37578  0.3931900000000001  1.0000
  Er  Er2       1.0  0.44519  0.61793  0.89718  1.0000
  Er  Er3       1.0  0.94437  0.87509  0.10495  1.0000
  Er  Er4       1.0  0.55806  0.12743  0.60642  1.0000
  P   P1        1.0  0.13469  0.06225  0.28403  1.0000
  P   P2        1.0  0.37023  0.9334  0.78603  1.0000
  P   P3        1.0  0.8639700000000001  0.56097  0.21296  1.0000
  P   P4        1.0  0.63727  0.43867  0.7145900000000001  1.0000
  H   H1        1.0  0.14496  0.26081  0.17813  1.0000
  H   H2        1.0  0.31435  0.17334  0.18412  1.0000
  H   H3        1.0  0.45454000000000006  0.20581  0.30706  1.0000
  H   H4        1.0  0.45989  0.38979  0.3484  1.0000
  H   H5        1.0  0.38589  0.49156000000000005  0.20856  1.0000
  H   H6        1.0  0.20024  0.49629000000000006  0.19238  1.0000
  H   H7        1.0  0.27709000000000006  0.86853  0.32473  1.0000
  H   H8        1.0  0.35711  0.73823  0.6792200000000003  1.0000
  H   H9        1.0  0.18865  0.82698  0.68628  1.0000
  H   H10       1.0  0.04947  0.79491  0.8078500000000002  1.0000
  H   H11       1.0  0.040590000000000015  0.61061  0.85049  1.0000
  H   H12       1.0  0.1149  0.50842  0.71034  1.0000
  H   H13       1.0  0.29972  0.50424  0.69258  1.0000
  H   H14       1.0  0.22818  0.12906  0.82359  1.0000
  H   H15       1.0  0.8579  0.75707  0.3180400000000001  1.0000
  H   H16       1.0  0.68709  0.67291  0.3138  1.0000
  H   H17       1.0  0.54606  0.70801  0.19385000000000005  1.0000
  H   H18       1.0  0.54066  0.89193  0.14934  1.0000
  H   H19       1.0  0.61476  0.99124  0.28931000000000007  1.0000
  H   H20       1.0  0.80019  0.9942299999999998  0.30635000000000007  1.0000
  H   H21       1.0  0.7234400000000001  0.36919  0.17386  1.0000
  H   H22       1.0  0.6457900000000001  0.24095  0.82  1.0000
  H   H23       1.0  0.81533  0.32647  0.81438  1.0000
  H   H24       1.0  0.95713  0.29348  0.69377  1.0000
  H   H25       1.0  0.9626600000000001  0.11196000000000002  0.64927  1.0000
  H   H26       1.0  0.88688  0.008599999999999997  0.7904900000000002  1.0000
  H   H27       1.0  0.7022200000000001  0.004149999999999999  0.80576  1.0000
  H   H28       1.0  0.7774  0.63184  0.67418  1.0000
  C   C1        1.0  0.22452000000000003  0.21439  0.22403  1.0000
  C   C2        1.0  0.39121  0.2911600000000001  0.34138  1.0000
  C   C3        1.0  0.35632  0.24015  0.43625000000000014  1.0000
  C   C4        1.0  0.28366  0.48211  0.24303000000000005  1.0000
  C   C5        1.0  0.26248  0.61152  0.30886  1.0000
  C   C6        1.0  0.27827  0.78389  0.72574  1.0000
  C   C7        1.0  0.11108000000000001  0.70793  0.84248  1.0000
  C   C8        1.0  0.14624  0.75921  0.93698  1.0000
  C   C9        1.0  0.21728000000000003  0.51708  0.74394  1.0000
  C   C10       1.0  0.23956  0.38507  0.80779  1.0000
  C   C11       1.0  0.7764300000000001  0.71296  0.27329  1.0000
  C   C12       1.0  0.6088900000000002  0.79243  0.15767  1.0000
  C   C13       1.0  0.64437  0.73734  0.06357  1.0000
  C   C14       1.0  0.71707  0.9816900000000001  0.25565  1.0000
  C   C15       1.0  0.73882  0.11235999999999999  0.19058000000000003  1.0000
  C   C16       1.0  0.72628  0.28616  0.7744  1.0000
  C   C17       1.0  0.89394  0.21033  0.6581500000000002  1.0000
  C   C18       1.0  0.8591500000000001  0.26587  0.56416  1.0000
  C   C19       1.0  0.7858  0.01888  0.7553  1.0000
  C   C20       1.0  0.76595  0.88845  0.68962  1.0000
  N   N1        1.0  0.26508000000000004  0.33442  0.2878900000000001  1.0000
  N   N2        1.0  0.23701000000000003  0.66284  0.78955  1.0000
  N   N3        1.0  0.73591  0.83515  0.21016  1.0000
  N   N4        1.0  0.7673500000000001  0.16648  0.7106300000000002  1.0000
  O   O1        1.0  0.24243000000000003  0.28326  0.47112  1.0000
  O   O2        1.0  0.44954  0.16223000000000004  0.47713  1.0000
  O   O3        1.0  0.32709  0.73217  0.29062  1.0000
  O   O4        1.0  0.17789  0.59072  0.37484  1.0000
  O   O5        1.0  0.24362  0.9796500000000001  0.34497  1.0000
  O   O6        1.0  0.07362  0.95525  0.21421  1.0000
  O   O7        1.0  0.02605  0.14332000000000003  0.3427  1.0000
  O   O8        1.0  0.25695  0.70899  0.9735600000000001  1.0000
  O   O9        1.0  0.057460000000000004  0.84387  0.97621  1.0000
  O   O10       1.0  0.17766000000000004  0.2640600000000001  0.78684  1.0000
  O   O11       1.0  0.32174  0.4025300000000001  0.87477  1.0000
  O   O12       1.0  0.26387  0.01966  0.8471200000000002  1.0000
  O   O13       1.0  0.43317  0.03808  0.7148  1.0000
  O   O14       1.0  0.47731  0.84882  0.8445300000000002  1.0000
  O   O15       1.0  0.75581  0.78428  0.02691  1.0000
  O   O16       1.0  0.5556000000000001  0.6507100000000002  0.02653000000000001  1.0000
  O   O17       1.0  0.6774  0.23473  0.20955  1.0000
  O   O18       1.0  0.82065  0.0915  0.12365000000000002  1.0000
  O   O19       1.0  0.75675  0.47895000000000004  0.15165  1.0000
  O   O20       1.0  0.9230800000000001  0.45343000000000006  0.2832800000000001  1.0000
  O   O21       1.0  0.97298  0.64301  0.15474000000000004  1.0000
  O   O22       1.0  0.7477500000000001  0.21924  0.52702  1.0000
  O   O23       1.0  0.94897  0.35113000000000005  0.52517  1.0000
  O   O24       1.0  0.82686  0.7662400000000001  0.70969  1.0000
  O   O25       1.0  0.68656  0.91113  0.6214800000000001  1.0000
  O   O26       1.0  0.7437  0.52226  0.6517700000000002  1.0000
  O   O27       1.0  0.57594  0.54299  0.78605  1.0000
  O   O28       1.0  0.52769  0.35707  0.65681  1.0000
