data_image0
_chemical_formula_structural       Cu2H16C22N6
_chemical_formula_sum              "Cu2 H16 C22 N6"
_cell_length_a       9.17797
_cell_length_b       13.04387
_cell_length_c       13.15615
_cell_angle_alpha    76.55338
_cell_angle_beta     74.11956
_cell_angle_gamma    70.0581

_space_group_name_H-M_alt    "P 1"
_space_group_IT_number       1

loop_
  _space_group_symop_operation_xyz
  'x, y, z'

loop_
  _atom_site_type_symbol
  _atom_site_label
  _atom_site_symmetry_multiplicity
  _atom_site_fract_x
  _atom_site_fract_y
  _atom_site_fract_z
  _atom_site_occupancy
  Cu  Cu1       1.0  0.75526  0.4498199999999999  0.06044  1.0000
  Cu  Cu2       1.0  0.24473000000000014  0.5501799999999998  0.9395599999999998  1.0000
  H   H1        1.0  0.10977999999999996  0.57823  0.73335  1.0000
  H   H2        1.0  0.21727000000000005  0.55394  0.54454  1.0000
  H   H3        1.0  0.6867600000000004  0.46632999999999997  0.60861  1.0000
  H   H4        1.0  0.55584  0.49673  0.7966199999999999  1.0000
  H   H5        1.0  0.8165300000000001  0.9351599999999998  0.95425  1.0000
  H   H6        1.0  0.93041  0.7429099999999998  0.9199  1.0000
  H   H7        1.0  0.36133  0.71434  0.98138  1.0000
  H   H8        1.0  0.26783000000000007  0.9084499999999998  0.01798  1.0000
  H   H9        1.0  0.89022  0.42177999999999993  0.26665  1.0000
  H   H10       1.0  0.78272  0.44605999999999996  0.45545  1.0000
  H   H11       1.0  0.3132400000000001  0.5336799999999999  0.39138999999999996  1.0000
  H   H12       1.0  0.44415999999999994  0.50327  0.20338  1.0000
  H   H13       1.0  0.18346999999999997  0.06484  0.04575  1.0000
  H   H14       1.0  0.06958999999999999  0.25709  0.0801  1.0000
  H   H15       1.0  0.63866  0.28567  0.01862  1.0000
  H   H16       1.0  0.7321699999999999  0.09154999999999995  0.9820200000000001  1.0000
  C   C1        1.0  0.23751999999999987  0.5543199999999999  0.7022300000000001  1.0000
  C   C2        1.0  0.29928999999999994  0.54008  0.5957  1.0000
  C   C3        1.0  0.46453999999999995  0.50808  0.55649  1.0000
  C   C4        1.0  0.5580000000000002  0.4922199999999999  0.63096  1.0000
  C   C5        1.0  0.48731999999999986  0.5085399999999998  0.73627  1.0000
  C   C6        1.0  0.9684099999999999  0.05765999999999999  0.01091  1.0000
  C   C7        1.0  0.06155  0.10842  0.03906  1.0000
  C   C8        1.0  0.9981599999999999  0.21677999999999997  0.05897  1.0000
  C   C9        1.0  0.24233000000000007  0.7687599999999998  0.9749  1.0000
  C   C10       1.0  0.18747999999999998  0.8768  0.99579  1.0000
  C   C11       1.0  0.56668  0.49407999999999996  0.00817  1.0000
  C   C12       1.0  0.7624800000000002  0.44567999999999997  0.29777  1.0000
  C   C13       1.0  0.7007099999999996  0.45991999999999994  0.4043  1.0000
  C   C14       1.0  0.53546  0.4919199999999999  0.44351  1.0000
  C   C15       1.0  0.4419899999999999  0.50779  0.36904  1.0000
  C   C16       1.0  0.5126800000000001  0.4914599999999999  0.26373  1.0000
  C   C17       1.0  0.031580000000000205  0.9423399999999997  0.98909  1.0000
  C   C18       1.0  0.9384400000000003  0.89158  0.96094  1.0000
  C   C19       1.0  0.0018400000000001362  0.7832299999999998  0.94102  1.0000
  C   C20       1.0  0.75766  0.23124  0.0251  1.0000
  C   C21       1.0  0.81251  0.1232  0.00421  1.0000
  C   C22       1.0  0.4333199999999998  0.5059199999999999  0.99183  1.0000
  N   N1        1.0  0.32842999999999994  0.53927  0.77254  1.0000
  N   N2        1.0  0.8484700000000001  0.27828  0.05289  1.0000
  N   N3        1.0  0.05885000000000011  0.5097399999999997  0.97976  1.0000
  N   N4        1.0  0.67157  0.46074  0.22745  1.0000
  N   N5        1.0  0.1515300000000001  0.72172  0.94711  1.0000
  N   N6        1.0  0.94115  0.49027  0.020229999999999998  1.0000
