data_image0
_chemical_formula_structural       V4Ni2H20C24N4O10
_chemical_formula_sum              "V4 Ni2 H20 C24 N4 O10"
_cell_length_a       7.82056
_cell_length_b       11.43277
_cell_length_c       13.35709
_cell_angle_alpha    94.96010000000001
_cell_angle_beta     106.12323
_cell_angle_gamma    100.90427

_space_group_name_H-M_alt    "P 1"
_space_group_IT_number       1

loop_
  _space_group_symop_operation_xyz
  'x, y, z'

loop_
  _atom_site_type_symbol
  _atom_site_label
  _atom_site_symmetry_multiplicity
  _atom_site_fract_x
  _atom_site_fract_y
  _atom_site_fract_z
  _atom_site_occupancy
  V   V1        1.0  0.86467  0.68591  0.98204  1.0000
  V   V2        1.0  0.8341  0.44667  0.88697  1.0000
  V   V3        1.0  0.13934  0.31878  0.02115  1.0000
  V   V4        1.0  0.17250999999999997  0.55938  0.11434000000000001  1.0000
  Ni  Ni1       1.0  0.50385  0.50112  0.00136  1.0000
  Ni  Ni2       1.0  0.00316  0.0016800000000000003  0.00113  1.0000
  H   H1        1.0  0.10104000000000002  0.85824  0.84132  1.0000
  H   H2        1.0  0.10595000000000003  0.8675600000000001  0.65806  1.0000
  H   H3        1.0  0.85781  0.17489  0.66091  1.0000
  H   H4        1.0  0.8638299999999999  0.15438  0.84347  1.0000
  H   H5        1.0  0.9179  0.11276000000000003  0.5051400000000001  1.0000
  H   H6        1.0  0.64536  0.66449  0.20810000000000006  1.0000
  H   H7        1.0  0.83048  0.65759  0.3901900000000001  1.0000
  H   H8        1.0  0.9163100000000001  0.3143  0.27352  1.0000
  H   H9        1.0  0.71409  0.33187  0.09844000000000001  1.0000
  H   H10       1.0  0.0653  0.39314  0.45583  1.0000
  H   H11       1.0  0.9072499999999999  0.14577  0.1615  1.0000
  H   H12       1.0  0.89231  0.13187  0.34279  1.0000
  H   H13       1.0  0.13975000000000007  0.82366  0.33896  1.0000
  H   H14       1.0  0.14199  0.8488  0.15819000000000005  1.0000
  H   H15       1.0  0.08099999999999999  0.88636  0.49508  1.0000
  H   H16       1.0  0.36229000000000006  0.33713  0.7950000000000002  1.0000
  H   H17       1.0  0.17263000000000006  0.34227  0.61362  1.0000
  H   H18       1.0  0.0869200000000001  0.68506  0.7297800000000002  1.0000
  H   H19       1.0  0.29391  0.66981  0.90414  1.0000
  H   H20       1.0  0.93781  0.60654  0.5478100000000001  1.0000
  C   C1        1.0  0.049099999999999984  0.9270199999999998  0.79787  1.0000
  C   C2        1.0  0.049699999999999946  0.93306  0.69518  1.0000
  C   C3        1.0  0.97953  0.02262000000000002  0.64058  1.0000
  C   C4        1.0  0.9132099999999999  0.10329000000000002  0.6977600000000002  1.0000
  C   C5        1.0  0.91591  0.09169000000000004  0.8003400000000003  1.0000
  C   C6        1.0  0.97278  0.036279999999999986  0.53305  1.0000
  C   C7        1.0  0.7038600000000002  0.58662  0.22814000000000006  1.0000
  C   C8        1.0  0.80678  0.58151  0.32931000000000005  1.0000
  C   C9        1.0  0.8849099999999999  0.48102  0.35101  1.0000
  C   C10       1.0  0.8523699999999999  0.39105999999999996  0.26484  1.0000
  C   C11       1.0  0.7429099999999996  0.40093000000000006  0.16603  1.0000
  C   C12       1.0  0.9930400000000001  0.46610000000000007  0.4555500000000001  1.0000
  C   C13       1.0  0.9574  0.07614000000000001  0.20452000000000006  1.0000
  C   C14       1.0  0.95111  0.06754  0.3059700000000001  1.0000
  C   C15       1.0  0.019579999999999938  0.9769099999999997  0.35995  1.0000
  C   C16       1.0  0.08700000000000004  0.89669  0.30292  1.0000
  C   C17       1.0  0.08956999999999998  0.9109799999999999  0.20156000000000004  1.0000
  C   C18       1.0  0.025920000000000012  0.96284  0.46735000000000004  1.0000
  C   C19       1.0  0.30294  0.41459000000000007  0.77486  1.0000
  C   C20       1.0  0.19752999999999998  0.41881000000000007  0.67405  1.0000
  C   C21       1.0  0.11855999999999997  0.51871  0.65222  1.0000
  C   C22       1.0  0.15201000000000003  0.60905  0.73819  1.0000
  C   C23       1.0  0.2639  0.6004  0.83661  1.0000
  C   C24       1.0  0.009720000000000025  0.53344  0.54783  1.0000
  N   N1        1.0  0.9845099999999999  0.005909999999999984  0.85223  1.0000
  N   N2        1.0  0.6671800000000001  0.49681000000000003  0.14744  1.0000
  N   N3        1.0  0.023779999999999992  0.99815  0.15035  1.0000
  N   N4        1.0  0.34087  0.50521  0.855  1.0000
  O   O1        1.0  0.6573000000000001  0.40746000000000004  0.9316000000000001  1.0000
  O   O2        1.0  0.6542500000000002  0.6689200000000002  0.9913900000000002  1.0000
  O   O3        1.0  0.011770000000000036  0.65208  0.10564000000000003  1.0000
  O   O4        1.0  0.94366  0.82929  0.9705400000000001  1.0000
  O   O5        1.0  0.8525800000000001  0.59591  0.8580200000000002  1.0000
  O   O6        1.0  0.35084  0.59654  0.06988  1.0000
  O   O7        1.0  0.34848  0.33732  0.0092  1.0000
  O   O8        1.0  0.98785  0.34984000000000004  0.8987500000000003  1.0000
  O   O9        1.0  0.06283  0.17449  0.03072  1.0000
  O   O10       1.0  0.15153000000000003  0.4103800000000001  0.14475  1.0000
