data_image0
_chemical_formula_structural       Zn8H20C40N4O26
_chemical_formula_sum              "Zn8 H20 C40 N4 O26"
_cell_length_a       10.27125
_cell_length_b       14.94783
_cell_length_c       19.056209999999997
_cell_angle_alpha    89.99909
_cell_angle_beta     89.88406999999998
_cell_angle_gamma    90.00182

_symmetry_space_group_name_H-M    'P 1'
_symmetry_Int_Tables_number       1

loop_
  _symmetry_equiv_pos_as_xyz
  'x,y,z'

loop_
  _atom_site_type_symbol
  _atom_site_label
  _atom_site_symmetry_multiplicity
  _atom_site_fract_x
  _atom_site_fract_y
  _atom_site_fract_z
  _atom_site_occupancy
  Zn  Zn1       1.0  0.6616999999999998  0.91706  0.7523999999999998  1.0000
  Zn  Zn2       1.0  0.9788399999999998  0.9992099999999999  0.7515  1.0000
  Zn  Zn3       1.0  0.17518  0.7883499999999998  0.74875  1.0000
  Zn  Zn4       1.0  0.49171999999999993  0.73099  0.74823  1.0000
  Zn  Zn5       1.0  0.33847999999999995  0.41709  0.24769  1.0000
  Zn  Zn6       1.0  0.02163  0.49928  0.24849  1.0000
  Zn  Zn7       1.0  0.82681  0.28828  0.25125  1.0000
  Zn  Zn8       1.0  0.50664  0.23144999999999993  0.25178999999999996  1.0000
  H   H1        1.0  0.9556799999999998  0.10435999999999997  0.9439699999999999  1.0000
  H   H2        1.0  0.92966  0.16704999999999995  0.0664  1.0000
  H   H3        1.0  0.5277299999999999  0.08791999999999997  0.06402  1.0000
  H   H4        1.0  0.5590699999999998  0.022289999999999994  0.9445700000000001  1.0000
  H   H5        1.0  0.55595  0.029419999999999995  0.56139  1.0000
  H   H6        1.0  0.52659  0.09475999999999998  0.44164  1.0000
  H   H7        1.0  0.9293999999999999  0.16865  0.43795999999999996  1.0000
  H   H8        1.0  0.95551  0.10524999999999997  0.55924  1.0000
  H   H9        1.0  0.29408  0.09731999999999998  0.71109  1.0000
  H   H10       1.0  0.28424  0.09191  0.80181  1.0000
  H   H11       1.0  0.04445999999999999  0.6043399999999998  0.05598999999999999  1.0000
  H   H12       1.0  0.07047  0.6670099999999998  0.93362  1.0000
  H   H13       1.0  0.47239999999999993  0.58788  0.9359999999999999  1.0000
  H   H14       1.0  0.44101  0.52228  0.05544999999999999  1.0000
  H   H15       1.0  0.44415  0.5293899999999999  0.43859  1.0000
  H   H16       1.0  0.47348999999999997  0.5947399999999998  0.55835  1.0000
  H   H17       1.0  0.07067999999999999  0.66862  0.5620099999999999  1.0000
  H   H18       1.0  0.04458  0.6052399999999998  0.44077  1.0000
  H   H19       1.0  0.7058999999999999  0.5975799999999998  0.28886  1.0000
  H   H20       1.0  0.7156599999999999  0.5918499999999998  0.19818  1.0000
  C   C1        1.0  0.77732  0.02039  0.86775  1.0000
  C   C2        1.0  0.7589  0.06038  0.93861  1.0000
  C   C3        1.0  0.86423  0.10122999999999997  0.9723699999999998  1.0000
  C   C4        1.0  0.8480899999999999  0.13708  0.03903  1.0000
  C   C5        1.0  0.72598  0.13228  0.07223  1.0000
  C   C6        1.0  0.7071899999999999  0.17478999999999995  0.14233  1.0000
  C   C7        1.0  0.62144  0.09111999999999998  0.03819999999999999  1.0000
  C   C8        1.0  0.6378999999999999  0.055339999999999986  0.97178  1.0000
  C   C9        1.0  0.7768799999999999  0.02257  0.6374199999999999  1.0000
  C   C10       1.0  0.7579599999999999  0.06313999999999999  0.56651  1.0000
  C   C11       1.0  0.63628  0.06010999999999998  0.53386  1.0000
  C   C12       1.0  0.6203199999999999  0.096  0.46731999999999996  1.0000
  C   C13       1.0  0.7255299999999998  0.13538  0.43242  1.0000
  C   C14       1.0  0.7064599999999999  0.17754999999999996  0.36189  1.0000
  C   C15       1.0  0.8477  0.13849999999999996  0.46515  1.0000
  C   C16       1.0  0.86321  0.10294  0.53194  1.0000
  C   C17       1.0  0.23207999999999998  0.06949  0.75367  1.0000
  C   C18       1.0  0.37117  0.9229299999999998  0.75183  1.0000
  C   C19       1.0  0.7940799999999999  0.7699699999999998  0.7500899999999999  1.0000
  C   C20       1.0  0.23777999999999996  0.9677599999999997  0.75217  1.0000
  C   C21       1.0  0.22303999999999993  0.5203  0.1323  1.0000
  C   C22       1.0  0.24113  0.5603499999999998  0.06135999999999999  1.0000
  C   C23       1.0  0.13594  0.60119  0.02763  1.0000
  C   C24       1.0  0.15211  0.6370599999999997  0.96095  1.0000
  C   C25       1.0  0.27417  0.6323  0.9277999999999998  1.0000
  C   C26       1.0  0.29292  0.6746699999999998  0.85782  1.0000
  C   C27       1.0  0.37869  0.59107  0.96183  1.0000
  C   C28       1.0  0.36222  0.5553  0.02825  1.0000
  C   C29       1.0  0.22278  0.5224  0.36257  1.0000
  C   C30       1.0  0.24212999999999998  0.56307  0.43347  1.0000
  C   C31       1.0  0.36373  0.56009  0.46613999999999994  1.0000
  C   C32       1.0  0.3798099999999999  0.59601  0.53265  1.0000
  C   C33       1.0  0.2746  0.63538  0.56758  1.0000
  C   C34       1.0  0.29331  0.67751  0.63795  1.0000
  C   C35       1.0  0.15241  0.6385099999999998  0.53486  1.0000
  C   C36       1.0  0.13683999999999996  0.60294  0.4681  1.0000
  C   C37       1.0  0.76809  0.5697599999999998  0.24643999999999996  1.0000
  C   C38       1.0  0.6295199999999999  0.42286  0.24822  1.0000
  C   C39       1.0  0.20623999999999995  0.26983  0.24975  1.0000
  C   C40       1.0  0.7623799999999998  0.46811999999999987  0.24799  1.0000
  N   N1        1.0  0.1359  0.9186199999999998  0.75136  1.0000
  N   N2        1.0  0.66622  0.77951  0.7502099999999999  1.0000
  N   N3        1.0  0.8647  0.41860999999999987  0.24845  1.0000
  N   N4        1.0  0.33399999999999996  0.27784  0.24988  1.0000
  O   O1        1.0  0.88765  0.031169999999999993  0.83839  1.0000
  O   O2        1.0  0.6813799999999999  0.9767599999999997  0.8423299999999999  1.0000
  O   O3        1.0  0.59409  0.17055  0.17062  1.0000
  O   O4        1.0  0.8071999999999999  0.2144  0.16756  1.0000
  O   O5        1.0  0.8903099999999998  0.02856  0.66398  1.0000
  O   O6        1.0  0.67888  0.9849899999999998  0.66591  1.0000
  O   O7        1.0  0.59288  0.17465999999999995  0.33458  1.0000
  O   O8        1.0  0.8071399999999999  0.21515999999999996  0.33524  1.0000
  O   O9        1.0  0.10846999999999997  0.10232  0.75067  1.0000
  O   O10       1.0  0.36815  0.8370099999999998  0.74983  1.0000
  O   O11       1.0  0.47189  0.96925  0.75323  1.0000
  O   O12       1.0  0.85374  0.6958799999999998  0.74966  1.0000
  O   O13       1.0  0.86053  0.84424  0.75015  1.0000
  O   O14       1.0  0.11229  0.53117  0.16161  1.0000
  O   O15       1.0  0.31851  0.4768  0.15761  1.0000
  O   O16       1.0  0.40595999999999993  0.67038  0.82956  1.0000
  O   O17       1.0  0.19281  0.7143399999999999  0.8324499999999998  1.0000
  O   O18       1.0  0.10997999999999997  0.5284499999999999  0.33602  1.0000
  O   O19       1.0  0.32131999999999994  0.48449  0.33412  1.0000
  O   O20       1.0  0.40728  0.6746099999999998  0.66535  1.0000
  O   O21       1.0  0.19296999999999992  0.7150799999999998  0.66473  1.0000
  O   O22       1.0  0.8915099999999999  0.60271  0.24945  1.0000
  O   O23       1.0  0.6317899999999999  0.33708  0.25018  1.0000
  O   O24       1.0  0.52862  0.46975  0.24657  1.0000
  O   O25       1.0  0.14398  0.19684  0.24981  1.0000
  O   O26       1.0  0.13864999999999997  0.3449399999999999  0.24997  1.0000
