data_image0
_chemical_formula_structural       CoMo6H20C24N12O9
_chemical_formula_sum              "Co1 Mo6 H20 C24 N12 O9"
_cell_length_a       9.33076
_cell_length_b       11.19961
_cell_length_c       11.71354
_cell_angle_alpha    92.30605
_cell_angle_beta     113.62654
_cell_angle_gamma    105.72862

_space_group_name_H-M_alt    "P 1"
_space_group_IT_number       1

loop_
  _space_group_symop_operation_xyz
  'x, y, z'

loop_
  _atom_site_type_symbol
  _atom_site_label
  _atom_site_symmetry_multiplicity
  _atom_site_fract_x
  _atom_site_fract_y
  _atom_site_fract_z
  _atom_site_occupancy
  Co  Co1       1.0  0.9970000000000001  0.4999300000000001  0.4966000000000001  1.0000
  Mo  Mo1       1.0  0.4008  0.66629  0.7533  1.0000
  Mo  Mo2       1.0  0.54742  0.6154  0.04286  1.0000
  Mo  Mo3       1.0  0.49410999999999994  0.8992999999999999  0.8752000000000001  1.0000
  Mo  Mo4       1.0  0.57142  0.33506  0.22646000000000002  1.0000
  Mo  Mo5       1.0  0.44632  0.37864  0.96529  1.0000
  Mo  Mo6       1.0  0.52326  0.12061  0.14442  1.0000
  H   H1        1.0  0.8707599999999999  0.55637  0.21505  1.0000
  H   H2        1.0  0.25578000000000006  0.76075  0.54653  1.0000
  H   H3        1.0  0.34415  0.9292199999999999  0.4388000000000001  1.0000
  H   H4        1.0  0.18741999999999998  0.91225  0.20375  1.0000
  H   H5        1.0  0.96119  0.57427  0.74154  1.0000
  H   H6        1.0  0.7989  0.67371  0.38696  1.0000
  H   H7        1.0  0.6629400000000001  0.8111400000000001  0.44281000000000004  1.0000
  H   H8        1.0  0.66812  0.8229599999999999  0.6615900000000001  1.0000
  H   H9        1.0  0.13003000000000012  0.7781499999999999  0.8975200000000002  1.0000
  H   H10       1.0  0.20063  0.79372  0.04763  1.0000
  H   H11       1.0  0.12801000000000004  0.44318  0.78236  1.0000
  H   H12       1.0  0.74363  0.23929  0.45276000000000005  1.0000
  H   H13       1.0  0.65497  0.07144  0.56253  1.0000
  H   H14       1.0  0.81225  0.08811000000000002  0.79629  1.0000
  H   H15       1.0  0.037659999999999985  0.42399  0.25801  1.0000
  H   H16       1.0  0.19918000000000008  0.32835000000000003  0.6127900000000001  1.0000
  H   H17       1.0  0.33761  0.18978999999999996  0.55874  1.0000
  H   H18       1.0  0.32938  0.17645  0.34068  1.0000
  H   H19       1.0  0.86787  0.22081000000000003  0.10052  1.0000
  H   H20       1.0  0.8041700000000002  0.21048000000000006  0.9531600000000002  1.0000
  C   C1        1.0  0.9192500000000001  0.7166  0.05628000000000001  1.0000
  C   C2        1.0  0.019500000000000028  0.73006  0.19112  1.0000
  C   C3        1.0  0.97544  0.64006  0.26248  1.0000
  C   C4        1.0  0.1896700000000001  0.75165  0.44643  1.0000
  C   C5        1.0  0.24078999999999995  0.84705  0.38434000000000007  1.0000
  C   C6        1.0  0.15673000000000012  0.83775  0.25418  1.0000
  C   C7        1.0  0.82798  0.70199  0.84577  1.0000
  C   C8        1.0  0.8215400000000002  0.70318  0.71828  1.0000
  C   C9        1.0  0.89629  0.62813  0.67796  1.0000
  C   C10       1.0  0.80575  0.68357  0.4808  1.0000
  C   C11       1.0  0.7261500000000002  0.7601200000000001  0.51219  1.0000
  C   C12       1.0  0.73399  0.7701600000000001  0.63364  1.0000
  C   C13       1.0  0.08631000000000007  0.28477  0.9447000000000002  1.0000
  C   C14       1.0  0.9830699999999999  0.27004  0.8116  1.0000
  C   C15       1.0  0.024170000000000004  0.35892  0.73857  1.0000
  C   C16       1.0  0.80857  0.24704  0.55307  1.0000
  C   C17       1.0  0.7593900000000001  0.15311000000000002  0.6174500000000002  1.0000
  C   C18       1.0  0.84603  0.1635  0.74761  1.0000
  C   C19       1.0  0.17427  0.29375  0.15461  1.0000
  C   C20       1.0  0.17636000000000002  0.29454  0.28022  1.0000
  C   C21       1.0  0.10162999999999998  0.3694099999999999  0.32112  1.0000
  C   C22       1.0  0.19300000000000003  0.31678  0.5195300000000002  1.0000
  C   C23       1.0  0.27356999999999987  0.24063  0.48938  1.0000
  C   C24       1.0  0.26453000000000004  0.22989000000000004  0.3676  1.0000
  N   N1        1.0  0.7522100000000003  0.6896  0.00189  1.0000
  N   N2        1.0  0.6990900000000002  0.6848300000000003  0.8721200000000001  1.0000
  N   N3        1.0  0.9625800000000001  0.72378  0.95788  1.0000
  N   N4        1.0  0.11707000000000013  0.72765  0.9676500000000002  1.0000
  N   N5        1.0  0.05883999999999998  0.64613  0.38798  1.0000
  N   N6        1.0  0.8893899999999999  0.61745  0.56085  1.0000
  N   N7        1.0  0.25353000000000003  0.31952  0.99862  1.0000
  N   N8        1.0  0.30766  0.31163  0.1304  1.0000
  N   N9        1.0  0.04168000000000003  0.27577  0.04259  1.0000
  N   N10       1.0  0.88788  0.27704  0.03466  1.0000
  N   N11       1.0  0.9403300000000001  0.35078  0.61345  1.0000
  N   N12       1.0  0.10725000000000001  0.38043  0.43745000000000006  1.0000
  O   O1        1.0  0.40223  0.51268  0.86133  1.0000
  O   O2        1.0  0.49788000000000004  0.82491  0.71129  1.0000
  O   O3        1.0  0.21172000000000007  0.57491  0.6322200000000001  1.0000
  O   O4        1.0  0.4538800000000002  0.7392100000000003  0.9362500000000001  1.0000
  O   O5        1.0  0.60367  0.48919  0.13824  1.0000
  O   O6        1.0  0.5120200000000001  0.17705000000000004  0.29708000000000007  1.0000
  O   O7        1.0  0.7749  0.41096  0.3496000000000001  1.0000
  O   O8        1.0  0.54166  0.25271  0.04442  1.0000
  O   O9        1.0  0.50521  0.00288  0.009990000000000002  1.0000
