data_image0
_chemical_formula_structural       U6P12H12C6O36
_chemical_formula_sum              "U6 P12 H12 C6 O36"
_cell_length_a       9.50175
_cell_length_b       9.56689
_cell_length_c       19.8233
_cell_angle_alpha    89.50595
_cell_angle_beta     89.81193
_cell_angle_gamma    121.53197999999999

_symmetry_space_group_name_H-M    'P 1'
_symmetry_Int_Tables_number       1

loop_
  _symmetry_equiv_pos_as_xyz
  'x,y,z'

loop_
  _atom_site_type_symbol
  _atom_site_label
  _atom_site_symmetry_multiplicity
  _atom_site_fract_x
  _atom_site_fract_y
  _atom_site_fract_z
  _atom_site_occupancy
  U   U1        1.0  0.21446  0.63781  0.049550000000000004  1.0000
  U   U2        1.0  0.36228  0.57314  0.38128  1.0000
  U   U3        1.0  0.41902  0.78175  0.71635  1.0000
  U   U4        1.0  0.6347  0.21248000000000003  0.94746  1.0000
  U   U5        1.0  0.58554  0.37231  0.61431  1.0000
  U   U6        1.0  0.76983  0.41553  0.27978  1.0000
  P   P1        1.0  0.65759  0.89808  0.01763  1.0000
  P   P2        1.0  0.4284  0.78401  0.9033400000000001  1.0000
  P   P3        1.0  0.10517000000000001  0.74046  0.35475  1.0000
  P   P4        1.0  0.20554999999999995  0.62952  0.23633  1.0000
  P   P5        1.0  0.23735  0.34736  0.67939  1.0000
  P   P6        1.0  0.38063  0.58887  0.56835  1.0000
  P   P7        1.0  0.8959  0.6502  0.9750700000000001  1.0000
  P   P8        1.0  0.78022  0.42536  0.09266  1.0000
  P   P9        1.0  0.75818  0.11863  0.64578  1.0000
  P   P10       1.0  0.63041  0.21205000000000002  0.76076  1.0000
  P   P11       1.0  0.32815  0.22396  0.31848  1.0000
  P   P12       1.0  0.57024  0.36039  0.42719999999999997  1.0000
  H   H1        1.0  0.71933  0.8672  0.9030600000000001  1.0000
  H   H2        1.0  0.58859  0.673  0.93958  1.0000
  H   H3        1.0  0.15405999999999997  0.85513  0.24280000000000002  1.0000
  H   H4        1.0  0.3430799999999999  0.9011  0.27791  1.0000
  H   H5        1.0  0.16193  0.29992  0.56297  1.0000
  H   H6        1.0  0.09567000000000002  0.42532  0.59671  1.0000
  H   H7        1.0  0.8559199999999999  0.712  0.08806  1.0000
  H   H8        1.0  0.66318  0.57597  0.052480000000000006  1.0000
  H   H9        1.0  0.85334  0.15611  0.76017  1.0000
  H   H10       1.0  0.91039  0.34822  0.72477  1.0000
  H   H11       1.0  0.27806  0.14693  0.43554000000000004  1.0000
  H   H12       1.0  0.40057  0.07766  0.40112  1.0000
  C   C1        1.0  0.61086  0.79724  0.93587  1.0000
  C   C2        1.0  0.21297000000000002  0.80417  0.27323  1.0000
  C   C3        1.0  0.1979  0.40376  0.59634  1.0000
  C   C4        1.0  0.78984  0.60289  0.05667  1.0000
  C   C5        1.0  0.81045  0.21938  0.72783  1.0000
  C   C6        1.0  0.38223  0.18136  0.40129  1.0000
  O   O1        1.0  0.2834  0.63338  0.9408100000000001  1.0000
  O   O2        1.0  0.41578000000000004  0.7500800000000001  0.82637  1.0000
  O   O3        1.0  0.43871000000000004  0.94941  0.9169099999999999  1.0000
  O   O4        1.0  0.73637  0.0831  0.99197  1.0000
  O   O5        1.0  0.47622  0.83424  0.047490000000000004  1.0000
  O   O6        1.0  0.76454  0.87594  0.06468  1.0000
  O   O7        1.0  0.34993  0.62403  0.27036  1.0000
  O   O8        1.0  0.24235  0.66066  0.15928  1.0000
  O   O9        1.0  0.03028999999999998  0.4751  0.24878000000000003  1.0000
  O   O10       1.0  0.9212800000000001  0.64581  0.3265  1.0000
  O   O11       1.0  0.15474  0.61174  0.38053  1.0000
  O   O12       1.0  0.13509  0.86137  0.40719000000000005  1.0000
  O   O13       1.0  0.37163  0.72657  0.60573  1.0000
  O   O14       1.0  0.37045  0.61065  0.49102000000000007  1.0000
  O   O15       1.0  0.53404  0.57699  0.58574  1.0000
  O   O16       1.0  0.3461  0.27482  0.65382  1.0000
  O   O17       1.0  0.35234  0.5237  0.71329  1.0000
  O   O18       1.0  0.10068999999999997  0.23134  0.72414  1.0000
  O   O19       1.0  0.63208  0.27783  0.056850000000000005  1.0000
  O   O20       1.0  0.7419499999999999  0.4169  0.16949  1.0000
  O   O21       1.0  0.9492399999999999  0.43878  0.08072  1.0000
  O   O22       1.0  0.08030000000000002  0.73098  0.00212  1.0000
  O   O23       1.0  0.83543  0.47073999999999994  0.9467900000000001  1.0000
  O   O24       1.0  0.87435  0.75398  0.92587  1.0000
  O   O25       1.0  0.63235  0.35836  0.72481  1.0000
  O   O26       1.0  0.65146  0.24495  0.8378899999999999  1.0000
  O   O27       1.0  0.4757  0.039509999999999997  0.74745  1.0000
  O   O28       1.0  0.65624  0.93427  0.67375  1.0000
  O   O29       1.0  0.63546  0.17266  0.61659  1.0000
  O   O30       1.0  0.8860100000000001  0.14647  0.59587  1.0000
  O   O31       1.0  0.7075  0.34818  0.38964  1.0000
  O   O32       1.0  0.5919  0.3532  0.5045  1.0000
  O   O33       1.0  0.56326  0.51506  0.40787  1.0000
  O   O34       1.0  0.25724  0.33395  0.34342  1.0000
  O   O35       1.0  0.50614  0.33822  0.28319  1.0000
  O   O36       1.0  0.21027  0.08773  0.27561  1.0000
