data_image0
_chemical_formula_structural       Cu8H24C36N12Cl4O12
_chemical_formula_sum              "Cu8 H24 C36 N12 Cl4 O12"
_cell_length_a       9.52892
_cell_length_b       12.928100000000002
_cell_length_c       14.572799999999999
_cell_angle_alpha    63.22323000000001
_cell_angle_beta     86.29704999999998
_cell_angle_gamma    78.64520999999999

_space_group_name_H-M_alt    "P 1"
_space_group_IT_number       1

loop_
  _space_group_symop_operation_xyz
  'x, y, z'

loop_
  _atom_site_type_symbol
  _atom_site_label
  _atom_site_symmetry_multiplicity
  _atom_site_fract_x
  _atom_site_fract_y
  _atom_site_fract_z
  _atom_site_occupancy
  Cu  Cu1       1.0  0.41666000000000003  0.7865299999999998  0.9716800000000002  1.0000
  Cu  Cu2       1.0  0.45872000000000007  0.91388  0.07829000000000003  1.0000
  Cu  Cu3       1.0  0.6385499999999997  0.94179  0.89412  1.0000
  Cu  Cu4       1.0  0.4417700000000001  0.64023  0.21822000000000003  1.0000
  Cu  Cu5       1.0  0.91433  0.76064  0.026410000000000006  1.0000
  Cu  Cu6       1.0  0.95236  0.9959399999999998  0.9201600000000002  1.0000
  Cu  Cu7       1.0  0.14586  0.83393  0.10131  1.0000
  Cu  Cu8       1.0  0.93209  0.86351  0.7809700000000003  1.0000
  H   H1        1.0  0.71771  0.9053500000000002  0.6048500000000001  1.0000
  H   H2        1.0  0.80837  0.4480999999999999  0.7907900000000002  1.0000
  H   H3        1.0  0.8065800000000001  0.5069100000000001  0.08387  1.0000
  H   H4        1.0  0.6896199999999999  0.8862800000000001  0.44465  1.0000
  H   H5        1.0  0.3180799999999999  0.78876  0.7119900000000002  1.0000
  H   H6        1.0  0.63045  0.40975  0.08180000000000003  1.0000
  H   H7        1.0  0.7332999999999998  0.26208999999999993  0.81852  1.0000
  H   H8        1.0  0.50543  0.98894  0.27177000000000007  1.0000
  H   H9        1.0  0.55675  0.22348000000000004  0.10727000000000002  1.0000
  H   H10       1.0  0.2811  0.7816299999999999  0.5470700000000001  1.0000
  H   H11       1.0  0.4316600000000001  0.6410999999999999  0.4546000000000001  1.0000
  H   H12       1.0  0.79873  0.6422200000000001  0.75779  1.0000
  H   H13       1.0  0.23279000000000002  0.49955000000000005  0.39852000000000004  1.0000
  H   H14       1.0  0.31157  0.23563  0.21185000000000004  1.0000
  H   H15       1.0  0.30962000000000006  0.58858  0.9145700000000002  1.0000
  H   H16       1.0  0.19798999999999997  0.3232500000000002  0.56101  1.0000
  H   H17       1.0  0.8253200000000002  0.50976  0.27916  1.0000
  H   H18       1.0  0.13188000000000005  0.4938799999999999  0.9134600000000003  1.0000
  H   H19       1.0  0.2359  0.07813999999999996  0.18310000000000007  1.0000
  H   H20       1.0  0.008560000000000003  0.26285  0.72668  1.0000
  H   H21       1.0  0.059159999999999976  0.33370999999999995  0.8866000000000002  1.0000
  H   H22       1.0  0.7825799999999999  0.3413000000000001  0.44473  1.0000
  H   H23       1.0  0.92572  0.10152999999999998  0.54362  1.0000
  H   H24       1.0  0.30912999999999996  0.39824  0.24103000000000005  1.0000
  C   C1        1.0  0.52076  0.8459500000000001  0.6685400000000002  1.0000
  C   C2        1.0  0.6426499999999999  0.23040000000000005  0.96526  1.0000
  C   C3        1.0  0.62269  0.87826  0.59191  1.0000
  C   C4        1.0  0.7524  0.3996099999999999  0.8597800000000002  1.0000
  C   C5        1.0  0.82008  0.5596700000000001  0.00277  1.0000
  C   C6        1.0  0.6067300000000001  0.8687699999999999  0.5017500000000001  1.0000
  C   C7        1.0  0.39894  0.8092200000000002  0.6532000000000001  1.0000
  C   C8        1.0  0.654  0.3769300000000001  0.02455  1.0000
  C   C9        1.0  0.7106100000000001  0.2959599999999999  0.8750100000000002  1.0000
  C   C10       1.0  0.7267200000000001  0.43851999999999997  0.9357200000000002  1.0000
  C   C11       1.0  0.48281999999999997  0.9018400000000002  0.29548  1.0000
  C   C12       1.0  0.61248  0.27310000000000006  0.03866  1.0000
  C   C13       1.0  0.37872999999999996  0.8047000000000001  0.5612  1.0000
  C   C14       1.0  0.44306  0.7234600000000002  0.38936000000000004  1.0000
  C   C15       1.0  0.5427800000000002  0.84872  0.76827  1.0000
  C   C16       1.0  0.60971  0.11410999999999989  0.9815600000000002  1.0000
  C   C17       1.0  0.4845399999999999  0.8324400000000002  0.48736000000000007  1.0000
  C   C18       1.0  0.8168299999999998  0.6289900000000002  0.8351800000000003  1.0000
  C   C19       1.0  0.032709999999999996  0.51254  0.3287  1.0000
  C   C20       1.0  0.14541  0.19583000000000012  0.03247  1.0000
  C   C21       1.0  0.13517999999999994  0.46407000000000015  0.40914  1.0000
  C   C22       1.0  0.25557  0.25755  0.14088000000000003  1.0000
  C   C23       1.0  0.32537  0.56034  0.9957100000000002  1.0000
  C   C24       1.0  0.11562999999999997  0.36621  0.50015  1.0000
  C   C25       1.0  0.9067299999999998  0.46735  0.34082000000000007  1.0000
  C   C26       1.0  0.1561800000000001  0.40265999999999985  0.9720200000000002  1.0000
  C   C27       1.0  0.21353999999999998  0.16951000000000002  0.12506000000000003  1.0000
  C   C28       1.0  0.22986000000000004  0.3736500000000001  0.06307  1.0000
  C   C29       1.0  0.9813700000000001  0.20087999999999992  0.7030300000000003  1.0000
  C   C30       1.0  0.11480000000000003  0.31329999999999997  0.95729  1.0000
  C   C31       1.0  0.88334  0.37272000000000005  0.4332300000000001  1.0000
  C   C32       1.0  0.93688  0.11861  0.6087  1.0000
  C   C33       1.0  0.056359999999999924  0.6133400000000002  0.22837000000000002  1.0000
  C   C34       1.0  0.11244000000000001  0.09598  0.01608  1.0000
  C   C35       1.0  0.9898299999999999  0.32193  0.5108200000000002  1.0000
  C   C36       1.0  0.3260799999999999  0.4618700000000001  0.16351  1.0000
  N   N1        1.0  0.46969  0.8208099999999998  0.3951900000000001  1.0000
  N   N2        1.0  0.87321  0.6995900000000002  0.8587  1.0000
  N   N3        1.0  0.8752599999999999  0.6559800000000001  0.9636100000000002  1.0000
  N   N4        1.0  0.78149  0.53869  0.92442  1.0000
  N   N5        1.0  0.46327  0.8569200000000002  0.23306000000000004  1.0000
  N   N6        1.0  0.43893  0.7446800000000002  0.29219  1.0000
  N   N7        1.0  0.9704100000000001  0.21953999999999996  0.6032000000000001  1.0000
  N   N8        1.0  0.38485  0.55467  0.13979000000000003  1.0000
  N   N9        1.0  0.38437999999999994  0.6162400000000001  0.034710000000000005  1.0000
  N   N10       1.0  0.28667999999999993  0.46180000000000004  0.07427  1.0000
  N   N11       1.0  0.9540399999999999  0.09549999999999999  0.76524  1.0000
  N   N12       1.0  0.92682  0.04375999999999985  0.7058200000000002  1.0000
  Cl  Cl1       1.0  0.50296  0.4678800000000002  0.36505  1.0000
  Cl  Cl2       1.0  0.16406999999999994  0.8243400000000003  0.86771  1.0000
  Cl  Cl3       1.0  0.9906800000000001  0.83773  0.63676  1.0000
  Cl  Cl4       1.0  0.6697099999999999  0.6938900000000002  0.13093  1.0000
  O   O1        1.0  0.6052400000000001  0.9287199999999999  0.7645600000000002  1.0000
  O   O2        1.0  0.35059  0.78679  0.10277000000000001  1.0000
  O   O3        1.0  0.44919999999999993  0.942  0.9380000000000002  1.0000
  O   O4        1.0  0.5333  0.06137000000000002  0.05712000000000001  1.0000
  O   O5        1.0  0.50006  0.7679100000000001  0.8483100000000002  1.0000
  O   O6        1.0  0.66576  0.07882  0.91657  1.0000
  O   O7        1.0  0.12495000000000003  0.68694  0.23115  1.0000
  O   O8        1.0  0.8438800000000001  0.8957400000000001  0.8932700000000002  1.0000
  O   O9        1.0  0.95166  0.8803300000000002  0.06036000000000001  1.0000
  O   O10       1.0  0.03151000000000001  0.12086000000000002  0.93972  1.0000
  O   O11       1.0  0.007469999999999996  0.61466  0.14833  1.0000
  O   O12       1.0  0.17213999999999996  0.99401  0.08165000000000001  1.0000
