data_image0
_chemical_formula_structural       Co3H8C20N12O8
_chemical_formula_sum              "Co3 H8 C20 N12 O8"
_cell_length_a       8.14435
_cell_length_b       8.833820000000001
_cell_length_c       11.46753
_cell_angle_alpha    113.43257999999999
_cell_angle_beta     94.67865
_cell_angle_gamma    112.20743999999998

_symmetry_space_group_name_H-M    'P 1'
_symmetry_Int_Tables_number       1

loop_
  _symmetry_equiv_pos_as_xyz
  'x,y,z'

loop_
  _atom_site_type_symbol
  _atom_site_label
  _atom_site_symmetry_multiplicity
  _atom_site_fract_x
  _atom_site_fract_y
  _atom_site_fract_z
  _atom_site_occupancy
  Co  Co1       1.0  0.021070000000000005  0.05855  0.20179  1.0000
  Co  Co2       1.0  0.98722  0.9543599999999999  0.8020599999999999  1.0000
  Co  Co3       1.0  0.49619  0.49847999999999987  0.5002599999999999  1.0000
  H   H1        1.0  0.9739  0.22826  0.50076  1.0000
  H   H2        1.0  0.79839  0.40463  0.60423  1.0000
  H   H3        1.0  0.58476  0.35419  0.24182  1.0000
  H   H4        1.0  0.34177  0.80774  0.26014  1.0000
  H   H5        1.0  0.02157000000000004  0.77173  0.50117  1.0000
  H   H6        1.0  0.19488  0.59294  0.39663999999999994  1.0000
  H   H7        1.0  0.4137199999999999  0.6466799999999999  0.7588299999999999  1.0000
  H   H8        1.0  0.65223  0.18895  0.74116  1.0000
  C   C1        1.0  0.76194  0.15732  0.10309  1.0000
  C   C2        1.0  0.76878  0.22883  0.24164  1.0000
  C   C3        1.0  0.88674  0.25501  0.44222999999999996  1.0000
  C   C4        1.0  0.78991  0.3526000000000001  0.4996  1.0000
  C   C5        1.0  0.6705  0.32451  0.29879  1.0000
  C   C6        1.0  0.53782  0.8533699999999999  0.42428  1.0000
  C   C7        1.0  0.62577  0.9644299999999999  0.5603199999999999  1.0000
  C   C8        1.0  0.4098599999999999  0.88928  0.36555  1.0000
  C   C9        1.0  0.57474  0.69312  0.34441  1.0000
  C   C10       1.0  0.76423  0.9353199999999999  0.6292499999999999  1.0000
  C   C11       1.0  0.24277000000000007  0.8507300000000001  0.89987  1.0000
  C   C12       1.0  0.23213999999999999  0.7755  0.7606799999999999  1.0000
  C   C13       1.0  0.10971999999999996  0.7457199999999999  0.5596099999999999  1.0000
  C   C14       1.0  0.20469  0.64631  0.50151  1.0000
  C   C15       1.0  0.32747999999999994  0.6768099999999999  0.7025399999999999  1.0000
  C   C16       1.0  0.45693  0.14399000000000006  0.57707  1.0000
  C   C17       1.0  0.36948  0.033460000000000004  0.44093  1.0000
  C   C18       1.0  0.58473  0.10778000000000001  0.63573  1.0000
  C   C19       1.0  0.42319  0.30507  0.66015  1.0000
  C   C20       1.0  0.2321999999999999  0.06288999999999997  0.3714299999999999  1.0000
  N   N1        1.0  0.86446  0.0693  0.058089999999999996  1.0000
  N   N2        1.0  0.82626  0.016869999999999993  0.9272699999999999  1.0000
  N   N3        1.0  0.7039599999999999  0.0719099999999999  0.8968599999999999  1.0000
  N   N4        1.0  0.66283  0.16152  0.00574  1.0000
  N   N5        1.0  0.87901  0.19449  0.31305  1.0000
  N   N6        1.0  0.68106  0.38721999999999995  0.4283799999999999  1.0000
  N   N7        1.0  0.1419  0.94055  0.94534  1.0000
  N   N8        1.0  0.18271000000000007  0.99565  0.07656  1.0000
  N   N9        1.0  0.30514  0.94054  0.1067  1.0000
  N   N10       1.0  0.34381999999999996  0.8484299999999999  0.9973599999999999  1.0000
  N   N11       1.0  0.12094  0.80924  0.68945  1.0000
  N   N12       1.0  0.31383  0.61169  0.5724599999999999  1.0000
  O   O1        1.0  0.69617  0.71121  0.28615  1.0000
  O   O2        1.0  0.4652899999999999  0.5391  0.34448  1.0000
  O   O3        1.0  0.73339  0.7771999999999999  0.6214999999999999  1.0000
  O   O4        1.0  0.9174300000000001  0.07468000000000004  0.70478  1.0000
  O   O5        1.0  0.31306  0.29005  0.72748  1.0000
  O   O6        1.0  0.52621  0.45755  0.65571  1.0000
  O   O7        1.0  0.2602900000000001  0.22277000000000005  0.3833  1.0000
  O   O8        1.0  0.08267999999999999  0.92361  0.29058  1.0000
