data_image0
_chemical_formula_structural       Mn4H20C32N4O16
_chemical_formula_sum              "Mn4 H20 C32 N4 O16"
_cell_length_a       7.72156
_cell_length_b       7.71331
_cell_length_c       16.67872
_cell_angle_alpha    90.52003
_cell_angle_beta     90.07329
_cell_angle_gamma    89.93585

_space_group_name_H-M_alt    "P 1"
_space_group_IT_number       1

loop_
  _space_group_symop_operation_xyz
  'x, y, z'

loop_
  _atom_site_type_symbol
  _atom_site_label
  _atom_site_symmetry_multiplicity
  _atom_site_fract_x
  _atom_site_fract_y
  _atom_site_fract_z
  _atom_site_occupancy
  Mn  Mn1       1.0  0.9634700000000003  0.29053  0.72112  1.0000
  Mn  Mn2       1.0  0.028420000000000008  0.79539  0.28434  1.0000
  Mn  Mn3       1.0  0.46903  0.29518  0.78326  1.0000
  Mn  Mn4       1.0  0.53049  0.79918  0.22106  1.0000
  H   H1        1.0  0.90778  0.90673  0.50777  1.0000
  H   H2        1.0  0.8993  0.9791599999999998  0.60365  1.0000
  H   H3        1.0  0.16910000000000006  0.03342999999999999  0.50751  1.0000
  H   H4        1.0  0.6011500000000002  0.003159999999999999  0.67148  1.0000
  H   H5        1.0  0.6782  0.91922  0.41832  1.0000
  H   H6        1.0  0.09240000000000002  0.4024099999999999  0.49008  1.0000
  H   H7        1.0  0.10407  0.47932  0.39595  1.0000
  H   H8        1.0  0.82913  0.53621  0.49815  1.0000
  H   H9        1.0  0.40225  0.51177  0.33088  1.0000
  H   H10       1.0  0.32077  0.40277999999999997  0.58088  1.0000
  H   H11       1.0  0.40337  0.90973  0.9931199999999999  1.0000
  H   H12       1.0  0.39013  0.98234  0.8981399999999998  1.0000
  H   H13       1.0  0.66627  0.04416  0.00122  1.0000
  H   H14       1.0  0.09073  0.009739999999999997  0.8333099999999998  1.0000
  H   H15       1.0  0.17611  0.9158299999999998  0.08447999999999997  1.0000
  H   H16       1.0  0.5927600000000002  0.411  0.0058699999999999985  1.0000
  H   H17       1.0  0.60077  0.48823  0.10101  1.0000
  H   H18       1.0  0.33093  0.5404  0.00509  1.0000
  H   H19       1.0  0.9  0.51122  0.16924  1.0000
  H   H20       1.0  0.82252  0.42144  0.91647  1.0000
  C   C1        1.0  0.41539  0.9666899999999999  0.45505999999999996  1.0000
  C   C2        1.0  0.30491  0.00817  0.51884  1.0000
  C   C3        1.0  0.3739100000000001  0.02728  0.59629  1.0000
  C   C4        1.0  0.55013  0.99488  0.61072  1.0000
  C   C5        1.0  0.66226  0.95408  0.5466499999999999  1.0000
  C   C6        1.0  0.59257  0.94546  0.4686899999999999  1.0000
  C   C7        1.0  0.34425  0.94048  0.3728299999999999  1.0000
  C   C8        1.0  0.2614300000000001  0.09521  0.66132  1.0000
  C   C9        1.0  0.5832400000000002  0.45909  0.5472499999999998  1.0000
  C   C10       1.0  0.6943600000000001  0.5082  0.48548  1.0000
  C   C11       1.0  0.6269400000000003  0.5325799999999998  0.40829  1.0000
  C   C12       1.0  0.45185  0.4990399999999999  0.39163  1.0000
  C   C13       1.0  0.33888  0.45105  0.4538399999999999  1.0000
  C   C14       1.0  0.40688  0.43563  0.5318  1.0000
  C   C15       1.0  0.65186  0.4294099999999999  0.62947  1.0000
  C   C16       1.0  0.74179  0.60634  0.34663  1.0000
  C   C17       1.0  0.91327  0.97014  0.05065999999999998  1.0000
  C   C18       1.0  0.80096  0.01583  0.98851  1.0000
  C   C19       1.0  0.86722  0.03502  0.91081  1.0000
  C   C20       1.0  0.04223  0.0007999999999999981  0.89436  1.0000
  C   C21       1.0  0.15641  0.95712  0.95693  1.0000
  C   C22       1.0  0.08944  0.94618  0.03515  1.0000
  C   C23       1.0  0.84645  0.9418399999999999  0.13323  1.0000
  C   C24       1.0  0.7522900000000002  0.10431  0.8478  1.0000
  C   C25       1.0  0.08445999999999998  0.4704599999999999  0.9530599999999998  1.0000
  C   C26       1.0  0.19533  0.51426  0.01637  1.0000
  C   C27       1.0  0.1265  0.53479  0.09364999999999997  1.0000
  C   C28       1.0  0.95055  0.50217  0.10847999999999997  1.0000
  C   C29       1.0  0.83801  0.46011  0.0447  1.0000
  C   C30       1.0  0.90754  0.4490699999999999  0.96694  1.0000
  C   C31       1.0  0.15279  0.44193  0.8706599999999998  1.0000
  C   C32       1.0  0.23934  0.60392  0.15814  1.0000
  N   N1        1.0  0.83566  0.9163899999999998  0.55854  1.0000
  N   N2        1.0  0.16609  0.4130399999999999  0.43996  1.0000
  N   N3        1.0  0.3289700000000001  0.91851  0.94306  1.0000
  N   N4        1.0  0.6646500000000002  0.42343  0.05663999999999999  1.0000
  O   O1        1.0  0.10833000000000002  0.14807  0.64244  1.0000
  O   O2        1.0  0.31748  0.10762  0.7337  1.0000
  O   O3        1.0  0.45031  0.9405  0.31365  1.0000
  O   O4        1.0  0.18123  0.91718  0.36572  1.0000
  O   O5        1.0  0.89319  0.65835  0.36859  1.0000
  O   O6        1.0  0.69078  0.62444  0.27375  1.0000
  O   O7        1.0  0.54225  0.42487  0.68709  1.0000
  O   O8        1.0  0.81515  0.4088  0.6380799999999998  1.0000
  O   O9        1.0  0.60096  0.15898999999999994  0.8686399999999997  1.0000
  O   O10       1.0  0.80383  0.11653  0.7746899999999999  1.0000
  O   O11       1.0  0.95744  0.9330499999999998  0.19034  1.0000
  O   O12       1.0  0.68305  0.92551  0.14253  1.0000
  O   O13       1.0  0.3919  0.65754  0.13904  1.0000
  O   O14       1.0  0.18386  0.6165  0.23051999999999995  1.0000
  O   O15       1.0  0.04248  0.43291  0.81316  1.0000
  O   O16       1.0  0.31621  0.42549  0.8616299999999998  1.0000
