data_image0
_chemical_formula_structural       Nd2P2H24C42O14
_chemical_formula_sum              "Nd2 P2 H24 C42 O14"
_cell_length_a       10.72697
_cell_length_b       12.01162
_cell_length_c       14.713160000000002
_cell_angle_alpha    72.97905
_cell_angle_beta     72.10098
_cell_angle_gamma    67.06397

_symmetry_space_group_name_H-M    'P 1'
_symmetry_Int_Tables_number       1

loop_
  _symmetry_equiv_pos_as_xyz
  'x,y,z'

loop_
  _atom_site_type_symbol
  _atom_site_label
  _atom_site_symmetry_multiplicity
  _atom_site_fract_x
  _atom_site_fract_y
  _atom_site_fract_z
  _atom_site_occupancy
  Nd  Nd1       1.0  0.99954  0.46726  0.3697500000000001  1.0000
  Nd  Nd2       1.0  0.9997799999999997  0.53337  0.6310000000000001  1.0000
  P   P1        1.0  0.86337  0.28081  0.27434  1.0000
  P   P2        1.0  0.1365399999999999  0.71936  0.7258100000000001  1.0000
  H   H1        1.0  0.4903899999999999  0.36645000000000005  0.56468  1.0000
  H   H2        1.0  0.054449999999999964  0.11082000000000002  0.38776000000000005  1.0000
  H   H3        1.0  0.73685  0.32043999999999995  0.4685000000000001  1.0000
  H   H4        1.0  0.03636000000000004  0.16645999999999994  0.10954  1.0000
  H   H5        1.0  0.3545  0.38467999999999997  0.31291000000000013  1.0000
  H   H6        1.0  0.59796  0.33662999999999993  0.21678000000000006  1.0000
  H   H7        1.0  0.8071299999999999  0.08939999999999997  0.21457000000000007  1.0000
  H   H8        1.0  0.74192  0.58775  0.97819  1.0000
  H   H9        1.0  0.06778999999999993  0.24795999999999996  0.9296400000000002  1.0000
  H   H10       1.0  0.12359000000000003  0.88044  0.44551000000000013  1.0000
  H   H11       1.0  0.88798  0.85856  0.26696  1.0000
  H   H12       1.0  0.7172000000000001  0.51318  0.15859  1.0000
  H   H13       1.0  0.50893  0.6336499999999999  0.4353200000000001  1.0000
  H   H14       1.0  0.94563  0.8891799999999999  0.6125  1.0000
  H   H15       1.0  0.26244  0.67939  0.53181  1.0000
  H   H16       1.0  0.9637500000000002  0.8334599999999998  0.8903900000000002  1.0000
  H   H17       1.0  0.6454600000000001  0.6154999999999999  0.6865600000000002  1.0000
  H   H18       1.0  0.40203999999999995  0.66313  0.78323  1.0000
  H   H19       1.0  0.19255999999999995  0.9107  0.7854900000000001  1.0000
  H   H20       1.0  0.25823000000000007  0.4122199999999999  0.021910000000000006  1.0000
  H   H21       1.0  0.93231  0.75212  0.07028  1.0000
  H   H22       1.0  0.8764799999999995  0.11931  0.55433  1.0000
  H   H23       1.0  0.11230000000000002  0.1416  0.73292  1.0000
  H   H24       1.0  0.28297000000000005  0.48668999999999996  0.84142  1.0000
  C   C1        1.0  0.8737799999999999  0.3344  0.14537  1.0000
  C   C2        1.0  0.51724  0.35814  0.48886  1.0000
  C   C3        1.0  0.92603  0.11397999999999996  0.2988000000000001  1.0000
  C   C4        1.0  0.6827300000000002  0.32426  0.3369  1.0000
  C   C5        1.0  0.01772  0.05522999999999999  0.36223  1.0000
  C   C6        1.0  0.6534899999999997  0.3324599999999998  0.4352000000000001  1.0000
  C   C7        1.0  0.40959  0.37624  0.4452000000000001  1.0000
  C   C8        1.0  0.9731600000000002  0.25903  0.08107000000000002  1.0000
  C   C9        1.0  0.4385  0.36837  0.3472000000000001  1.0000
  C   C10       1.0  0.5751500000000002  0.34200999999999987  0.2930500000000001  1.0000
  C   C11       1.0  0.87797  0.04413999999999999  0.26398  1.0000
  C   C12       1.0  0.9065000000000001  0.42164999999999997  0.94431  1.0000
  C   C13       1.0  0.9311799999999999  0.4659600000000001  0.83594  1.0000
  C   C14       1.0  0.80634  0.49655  0.00813  1.0000
  C   C15       1.0  0.99036  0.3035299999999999  0.9810500000000002  1.0000
  C   C16       1.0  0.007089999999999944  0.85817  0.36057  1.0000
  C   C17       1.0  0.05641000000000006  0.92762  0.39393  1.0000
  C   C18       1.0  0.9212899999999999  0.9160599999999999  0.29324  1.0000
  C   C19       1.0  0.03859000000000002  0.72266  0.40192  1.0000
  C   C20       1.0  0.26494  0.40831999999999996  0.5052  1.0000
  C   C21       1.0  0.79168  0.45403  0.10862  1.0000
  C   C22       1.0  0.12639999999999993  0.6655600000000002  0.85468  1.0000
  C   C23       1.0  0.48211000000000004  0.64207  0.5111  1.0000
  C   C24       1.0  0.07399  0.88622  0.70123  1.0000
  C   C25       1.0  0.31702999999999987  0.6757299999999999  0.6631600000000002  1.0000
  C   C26       1.0  0.9822900000000001  0.94493  0.63783  1.0000
  C   C27       1.0  0.3459600000000001  0.6675599999999999  0.56491  1.0000
  C   C28       1.0  0.5898800000000001  0.6242499999999999  0.5545300000000001  1.0000
  C   C29       1.0  0.027080000000000035  0.7408999999999999  0.91893  1.0000
  C   C30       1.0  0.56123  0.6318699999999999  0.65255  1.0000
  C   C31       1.0  0.42467999999999984  0.65801  0.7069400000000001  1.0000
  C   C32       1.0  0.12191000000000003  0.95612  0.7360000000000001  1.0000
  C   C33       1.0  0.09353999999999997  0.57824  0.05596000000000002  1.0000
  C   C34       1.0  0.06864999999999995  0.53391  0.16449000000000005  1.0000
  C   C35       1.0  0.19374000000000005  0.5035  0.99202  1.0000
  C   C36       1.0  0.009839999999999988  0.69649  0.01901  1.0000
  C   C37       1.0  0.99299  0.14189  0.6393  1.0000
  C   C38       1.0  0.94361  0.07245999999999996  0.6060300000000001  1.0000
  C   C39       1.0  0.07874999999999996  0.08418999999999999  0.7067400000000001  1.0000
  C   C40       1.0  0.96164  0.27728999999999987  0.5980000000000001  1.0000
  C   C41       1.0  0.7346299999999999  0.59238  0.4946  1.0000
  C   C42       1.0  0.20856  0.5458299999999999  0.8914500000000002  1.0000
  O   O1        1.0  0.051569999999999956  0.41545999999999994  0.7866300000000003  1.0000
  O   O2        1.0  0.24448999999999996  0.42896  0.58962  1.0000
  O   O3        1.0  0.061119999999999966  0.6852  0.48753000000000013  1.0000
  O   O4        1.0  0.8360200000000001  0.55076  0.79562  1.0000
  O   O5        1.0  0.03724999999999988  0.6558500000000002  0.34952  1.0000
  O   O6        1.0  0.16446  0.41639999999999994  0.47098000000000007  1.0000
  O   O7        1.0  0.9460599999999999  0.3258199999999999  0.3138900000000001  1.0000
  O   O8        1.0  0.9480899999999999  0.58417  0.21390000000000003  1.0000
  O   O9        1.0  0.75509  0.57168  0.4101  1.0000
  O   O10       1.0  0.93847  0.31452999999999987  0.5123200000000001  1.0000
  O   O11       1.0  0.16391999999999998  0.44936999999999994  0.20480000000000007  1.0000
  O   O12       1.0  0.96342  0.34401999999999994  0.6500800000000001  1.0000
  O   O13       1.0  0.83507  0.58422  0.5288  1.0000
  O   O14       1.0  0.053490000000000024  0.67454  0.68642  1.0000
