data_image0
_chemical_formula_structural       Co2H4C8O8
_chemical_formula_sum              "Co2 H4 C8 O8"
_cell_length_a       6.11751
_cell_length_b       7.21739
_cell_length_c       8.61629
_cell_angle_alpha    111.36818
_cell_angle_beta     112.40555000000002
_cell_angle_gamma    90.22776

_symmetry_space_group_name_H-M    'P 1'
_symmetry_Int_Tables_number       1

loop_
  _symmetry_equiv_pos_as_xyz
  'x,y,z'

loop_
  _atom_site_type_symbol
  _atom_site_label
  _atom_site_symmetry_multiplicity
  _atom_site_fract_x
  _atom_site_fract_y
  _atom_site_fract_z
  _atom_site_occupancy
  Co  Co1       1.0  0.49218  0.5017499999999999  0.4988700000000001  1.0000
  Co  Co2       1.0  0.007860000000000027  0.9998099999999999  0.4988  1.0000
  H   H1        1.0  0.25495  0.0541999999999999  0.90795  1.0000
  H   H2        1.0  0.33029000000000003  0.42369999999999997  0.06543  1.0000
  H   H3        1.0  0.7448  0.9414299999999998  0.08833  1.0000
  H   H4        1.0  0.67092  0.57635  0.9407  1.0000
  C   C1        1.0  0.41209  0.84299  0.74225  1.0000
  C   C2        1.0  0.41063  0.97994  0.91729  1.0000
  C   C3        1.0  0.65275  0.65124  0.25909  1.0000
  C   C4        1.0  0.48323  0.51023  0.07638  1.0000
  C   C5        1.0  0.59344  0.15414  0.25759  1.0000
  C   C6        1.0  0.58946  0.016240000000000008  0.08007  1.0000
  C   C7        1.0  0.3462299999999999  0.3486599999999998  0.74251  1.0000
  C   C8        1.0  0.51615  0.4877699999999999  0.925  1.0000
  O   O1        1.0  0.57742  0.7348599999999998  0.7453400000000002  1.0000
  O   O2        1.0  0.24201  0.8247599999999998  0.58906  1.0000
  O   O3        1.0  0.82509  0.76309  0.26947  1.0000
  O   O4        1.0  0.62178  0.66454  0.40177  1.0000
  O   O5        1.0  0.4263  0.2599399999999999  0.25803  1.0000
  O   O6        1.0  0.77047  0.17178999999999994  0.40669  1.0000
  O   O7        1.0  0.18099  0.23082999999999998  0.73368  1.0000
  O   O8        1.0  0.36946999999999997  0.33945  0.59803  1.0000
