data_image0
_chemical_formula_structural       Cd4H12C36N4O16
_chemical_formula_sum              "Cd4 H12 C36 N4 O16"
_cell_length_a       7.36734
_cell_length_b       9.01081
_cell_length_c       16.44653
_cell_angle_alpha    89.95494
_cell_angle_beta     90.05807
_cell_angle_gamma    90.46061

_symmetry_space_group_name_H-M    'P 1'
_symmetry_Int_Tables_number       1

loop_
  _symmetry_equiv_pos_as_xyz
  'x,y,z'

loop_
  _atom_site_type_symbol
  _atom_site_label
  _atom_site_symmetry_multiplicity
  _atom_site_fract_x
  _atom_site_fract_y
  _atom_site_fract_z
  _atom_site_occupancy
  Cd  Cd1       1.0  0.4229  0.12806  0.7857699999999997  1.0000
  Cd  Cd2       1.0  0.5795899999999999  0.62854  0.21614  1.0000
  Cd  Cd3       1.0  0.92949  0.11974999999999998  0.71704  1.0000
  Cd  Cd4       1.0  0.07971  0.6319899999999998  0.28749999999999987  1.0000
  H   H1        1.0  0.68724  0.8882299999999999  0.01933  1.0000
  H   H2        1.0  0.21258999999999995  0.6835599999999997  0.030939999999999995  1.0000
  H   H3        1.0  0.004999999999999999  0.8374999999999999  0.80026  1.0000
  H   H4        1.0  0.31563999999999987  0.39418999999999993  0.9863799999999999  1.0000
  H   H5        1.0  0.7897599999999999  0.18142  0.97277  1.0000
  H   H6        1.0  0.9935  0.34244999999999987  0.20341  1.0000
  H   H7        1.0  0.19427  0.8890999999999999  0.4838999999999999  1.0000
  H   H8        1.0  0.71967  0.6833699999999999  0.47204  1.0000
  H   H9        1.0  0.50992  0.8331799999999998  0.70288  1.0000
  H   H10       1.0  0.8146299999999997  0.3919299999999999  0.51587  1.0000
  H   H11       1.0  0.28805  0.18323  0.5288999999999998  1.0000
  H   H12       1.0  0.49074999999999996  0.34428  0.29834  1.0000
  C   C1        1.0  0.68973  0.9608599999999999  0.8583  1.0000
  C   C2        1.0  0.8299  0.8755  0.9039499999999998  1.0000
  C   C3        1.0  0.8093799999999998  0.8525199999999997  0.9879099999999998  1.0000
  C   C4        1.0  0.9471399999999998  0.783  0.03278  1.0000
  C   C5        1.0  0.9259299999999998  0.75642  0.12282999999999998  1.0000
  C   C6        1.0  0.10662999999999997  0.73585  0.99472  1.0000
  C   C7        1.0  0.12586  0.75628  0.9105399999999998  1.0000
  C   C8        1.0  0.28893  0.71428  0.8698199999999998  1.0000
  C   C9        1.0  0.9869899999999998  0.8245499999999998  0.8653  1.0000
  C   C10       1.0  0.30561  0.46553  0.14687  1.0000
  C   C11       1.0  0.16842  0.3796899999999999  0.09963  1.0000
  C   C12       1.0  0.19228  0.3554899999999999  0.01612  1.0000
  C   C13       1.0  0.057069999999999975  0.28223  0.9709499999999998  1.0000
  C   C14       1.0  0.08353  0.25144  0.8818699999999998  1.0000
  C   C15       1.0  0.8954799999999998  0.23572999999999994  0.00873  1.0000
  C   C16       1.0  0.87294  0.25839  0.09271  1.0000
  C   C17       1.0  0.7083399999999997  0.21588999999999994  0.1332  1.0000
  C   C18       1.0  0.01145  0.32753  0.13839999999999994  1.0000
  C   C19       1.0  0.19751  0.9585899999999999  0.64305  1.0000
  C   C20       1.0  0.3375  0.87384  0.5979  1.0000
  C   C21       1.0  0.31699  0.85149  0.51402  1.0000
  C   C22       1.0  0.45327  0.7807199999999997  0.46943999999999997  1.0000
  C   C23       1.0  0.43276  0.75539  0.3796699999999999  1.0000
  C   C24       1.0  0.6124999999999998  0.73393  0.50796  1.0000
  C   C25       1.0  0.63124  0.75418  0.59219  1.0000
  C   C26       1.0  0.79326  0.7115499999999999  0.63362  1.0000
  C   C27       1.0  0.49286999999999986  0.82223  0.63754  1.0000
  C   C28       1.0  0.8064299999999998  0.47052999999999995  0.35739  1.0000
  C   C29       1.0  0.66632  0.3838199999999999  0.4023599999999999  1.0000
  C   C30       1.0  0.6905299999999998  0.35688  0.48553  1.0000
  C   C31       1.0  0.5570399999999998  0.28169  0.53026  1.0000
  C   C32       1.0  0.5895999999999998  0.24867  0.61857  1.0000
  C   C33       1.0  0.39434  0.23700999999999997  0.49304  1.0000
  C   C34       1.0  0.3723299999999999  0.26022999999999996  0.40903  1.0000
  C   C35       1.0  0.2089199999999999  0.21565999999999994  0.3685799999999999  1.0000
  C   C36       1.0  0.5095199999999999  0.33137  0.3634199999999999  1.0000
  N   N1        1.0  0.4227299999999999  0.6868999999999997  0.8350099999999998  1.0000
  N   N2        1.0  0.574  0.18743  0.1679  1.0000
  N   N3        1.0  0.9256499999999998  0.6828499999999998  0.6695199999999999  1.0000
  N   N4        1.0  0.07459999999999997  0.18478  0.33425  1.0000
  O   O1        1.0  0.55805  0.01678  0.89727  1.0000
  O   O2        1.0  0.70381  0.9799099999999998  0.78055  1.0000
  O   O3        1.0  0.77218  0.7830899999999998  0.15481  1.0000
  O   O4        1.0  0.06752  0.71075  0.1603  1.0000
  O   O5        1.0  0.44148  0.5218399999999997  0.10955  1.0000
  O   O6        1.0  0.28868  0.48335  0.22424999999999995  1.0000
  O   O7        1.0  0.23819999999999994  0.28175  0.8509399999999998  1.0000
  O   O8        1.0  0.94672  0.19639999999999994  0.8445299999999998  1.0000
  O   O9        1.0  0.06557  0.01482  0.60406  1.0000
  O   O10       1.0  0.21030999999999997  0.97601  0.7211599999999999  1.0000
  O   O11       1.0  0.2802499999999999  0.78316  0.34761  1.0000
  O   O12       1.0  0.5720899999999999  0.70808  0.34209  1.0000
  O   O13       1.0  0.93487  0.53215  0.39744  1.0000
  O   O14       1.0  0.7997999999999998  0.48266999999999993  0.27908  1.0000
  O   O15       1.0  0.75125  0.26314  0.6440899999999998  1.0000
  O   O16       1.0  0.45037  0.21044999999999994  0.65964  1.0000
