data_image0
_chemical_formula_structural       Tb2H18C36N6O12
_chemical_formula_sum              "Tb2 H18 C36 N6 O12"
_cell_length_a       9.73284
_cell_length_b       11.492500000000001
_cell_length_c       13.49598
_cell_angle_alpha    65.604
_cell_angle_beta     85.47655999999999
_cell_angle_gamma    78.53804

_symmetry_space_group_name_H-M    'P 1'
_symmetry_Int_Tables_number       1

loop_
  _symmetry_equiv_pos_as_xyz
  'x,y,z'

loop_
  _atom_site_type_symbol
  _atom_site_label
  _atom_site_symmetry_multiplicity
  _atom_site_fract_x
  _atom_site_fract_y
  _atom_site_fract_z
  _atom_site_occupancy
  Tb  Tb1       1.0  0.76707  0.49932999999999994  0.98417  1.0000
  Tb  Tb2       1.0  0.23698  0.49716999999999995  0.01654  1.0000
  H   H1        1.0  0.005790000000000005  0.12324000000000003  0.45226999999999995  1.0000
  H   H2        1.0  0.05901000000000003  0.23965999999999996  0.25572  1.0000
  H   H3        1.0  0.46611  0.99267  0.31571  1.0000
  H   H4        1.0  0.29644000000000004  0.8246499999999999  0.6733  1.0000
  H   H5        1.0  0.7033199999999998  0.57602  0.71152  1.0000
  H   H6        1.0  0.73967  0.6963599999999999  0.51185  1.0000
  H   H7        1.0  0.10485000000000001  0.55963  0.32868  1.0000
  H   H8        1.0  0.75022  0.42391  0.26752  1.0000
  H   H9        1.0  0.6718900000000001  0.38497  0.45813  1.0000
  H   H10       1.0  0.99487  0.87596  0.54838  1.0000
  H   H11       1.0  0.9418000000000001  0.7588199999999999  0.74488  1.0000
  H   H12       1.0  0.5347  0.006299999999999942  0.6856300000000001  1.0000
  H   H13       1.0  0.70654  0.1718  0.32893  1.0000
  H   H14       1.0  0.30068  0.42329  0.28675  1.0000
  H   H15       1.0  0.26175  0.3045  0.48628  1.0000
  H   H16       1.0  0.8975  0.43862  0.6734  1.0000
  H   H17       1.0  0.25165  0.576  0.7328400000000002  1.0000
  H   H18       1.0  0.32833000000000007  0.6163  0.54162  1.0000
  C   C1        1.0  0.3173  0.19639  0.15684  1.0000
  C   C2        1.0  0.10751000000000005  0.09647999999999998  0.41988  1.0000
  C   C3        1.0  0.13656  0.16161  0.30964  1.0000
  C   C4        1.0  0.2683  0.12473999999999996  0.27072  1.0000
  C   C5        1.0  0.36280000000000007  0.022910000000000014  0.34329  1.0000
  C   C6        1.0  0.32413  0.96241  0.45231  1.0000
  C   C7        1.0  0.4252000000000001  0.8541299999999998  0.52971  1.0000
  C   C8        1.0  0.3954500000000001  0.7924199999999999  0.64091  1.0000
  C   C9        1.0  0.49623999999999996  0.69025  0.70775  1.0000
  C   C10       1.0  0.6229500000000002  0.6546300000000002  0.66176  1.0000
  C   C11       1.0  0.6427999999999999  0.7218099999999996  0.55054  1.0000
  C   C12       1.0  0.47109000000000006  0.6158199999999999  0.82591  1.0000
  C   C13       1.0  0.98623  0.5161999999999999  0.17094000000000004  1.0000
  C   C14       1.0  0.9602600000000001  0.49058  0.46055999999999997  1.0000
  C   C15       1.0  0.00929999999999998  0.51985  0.35388  1.0000
  C   C16       1.0  0.9334800000000001  0.4958199999999999  0.2828  1.0000
  C   C17       1.0  0.81005  0.44598999999999994  0.32006  1.0000
  C   C18       1.0  0.7678499999999999  0.42298  0.42682  1.0000
  C   C19       1.0  0.6848500000000001  0.80201  0.8444999999999999  1.0000
  C   C20       1.0  0.89321  0.90237  0.58097  1.0000
  C   C21       1.0  0.86415  0.8369000000000002  0.6911099999999999  1.0000
  C   C22       1.0  0.73257  0.87371  0.7302399999999999  1.0000
  C   C23       1.0  0.6378599999999999  0.9757700000000001  0.65792  1.0000
  C   C24       1.0  0.67656  0.0364  0.54892  1.0000
  C   C25       1.0  0.57604  0.14475999999999997  0.47113  1.0000
  C   C26       1.0  0.60713  0.20529  0.36008  1.0000
  C   C27       1.0  0.5073099999999999  0.3075699999999999  0.29228  1.0000
  C   C28       1.0  0.38028  0.34441999999999995  0.33724  1.0000
  C   C29       1.0  0.35902000000000006  0.2782199999999999  0.4484  1.0000
  C   C30       1.0  0.53383  0.38132999999999995  0.17428  1.0000
  C   C31       1.0  0.016609999999999975  0.4817  0.8302600000000001  1.0000
  C   C32       1.0  0.04052000000000003  0.50952  0.54025  1.0000
  C   C33       1.0  0.99266  0.4789  0.64736  1.0000
  C   C34       1.0  0.06902999999999998  0.5027700000000002  0.71827  1.0000
  C   C35       1.0  0.19168000000000004  0.5536399999999998  0.68055  1.0000
  C   C36       1.0  0.23287999999999995  0.5776600000000001  0.57345  1.0000
  N   N1        1.0  0.19810999999999995  0.99875  0.49085999999999996  1.0000
  N   N2        1.0  0.54711  0.81858  0.48545  1.0000
  N   N3        1.0  0.8406699999999998  0.44368  0.49645000000000006  1.0000
  N   N4        1.0  0.80254  0.00018000000000000172  0.51024  1.0000
  N   N5        1.0  0.4538  0.18126  0.51445  1.0000
  N   N6        1.0  0.15956000000000006  0.5572899999999997  0.50392  1.0000
  O   O1        1.0  0.22316000000000003  0.2966999999999999  0.09448000000000001  1.0000
  O   O2        1.0  0.43729  0.16697  0.12752  1.0000
  O   O3        1.0  0.34589  0.6243299999999999  0.86172  1.0000
  O   O4        1.0  0.57584  0.54049  0.88558  1.0000
  O   O5        1.0  0.10342000000000001  0.5551  0.14111  1.0000
  O   O6        1.0  0.91641  0.48861999999999994  0.11002000000000002  1.0000
  O   O7        1.0  0.7783900000000002  0.7005199999999998  0.90568  1.0000
  O   O8        1.0  0.56616  0.83279  0.87526  1.0000
  O   O9        1.0  0.65946  0.37144  0.13935  1.0000
  O   O10       1.0  0.4299200000000001  0.45755999999999997  0.11403  1.0000
  O   O11       1.0  0.9017800000000001  0.43879999999999997  0.86074  1.0000
  O   O12       1.0  0.08354000000000004  0.5132099999999998  0.89029  1.0000
