data_image0
_chemical_formula_structural       Ho2CuH12C32N4O24
_chemical_formula_sum              "Ho2 Cu1 H12 C32 N4 O24"
_cell_length_a       9.77793
_cell_length_b       10.5814
_cell_length_c       11.87129
_cell_angle_alpha    78.35941
_cell_angle_beta     71.44989
_cell_angle_gamma    68.74831

_space_group_name_H-M_alt    "P 1"
_space_group_IT_number       1

loop_
  _space_group_symop_operation_xyz
  'x, y, z'

loop_
  _atom_site_type_symbol
  _atom_site_label
  _atom_site_symmetry_multiplicity
  _atom_site_fract_x
  _atom_site_fract_y
  _atom_site_fract_z
  _atom_site_occupancy
  Ho  Ho1       1.0  0.5895600000000002  0.58441  0.63724  1.0000
  Ho  Ho2       1.0  0.41048000000000007  0.41223  0.36268000000000006  1.0000
  Cu  Cu1       1.0  0.0002199999999999988  0.49772000000000005  0.49954  1.0000
  H   H1        1.0  0.37689  0.9720300000000001  0.4617  1.0000
  H   H2        1.0  0.9675100000000001  0.18749  0.3482  1.0000
  H   H3        1.0  0.16579999999999992  0.7532000000000002  0.33683  1.0000
  H   H4        1.0  0.6804500000000001  0.43963000000000013  0.9347500000000001  1.0000
  H   H5        1.0  0.94407  0.32142  0.19134000000000004  1.0000
  H   H6        1.0  0.1707000000000001  0.33821  0.81523  1.0000
  H   H7        1.0  0.6216199999999998  0.023500000000000007  0.53817  1.0000
  H   H8        1.0  0.031740000000000025  0.8084700000000001  0.65118  1.0000
  H   H9        1.0  0.8321500000000001  0.2424  0.66356  1.0000
  H   H10       1.0  0.3195299999999999  0.5611000000000002  0.06501  1.0000
  H   H11       1.0  0.05637999999999989  0.67849  0.8083000000000001  1.0000
  H   H12       1.0  0.8293200000000001  0.66134  0.18433000000000002  1.0000
  C   C1        1.0  0.28270999999999996  0.84865  0.4035500000000001  1.0000
  C   C2        1.0  0.28782000000000024  0.9725100000000001  0.42515  1.0000
  C   C3        1.0  0.17513000000000015  0.09464000000000002  0.40425  1.0000
  C   C4        1.0  0.05872000000000004  0.09404999999999998  0.36001  1.0000
  C   C5        1.0  0.06081  0.97139  0.33314  1.0000
  C   C6        1.0  0.17014  0.84806  0.35474  1.0000
  C   C7        1.0  0.3920000000000002  0.71609  0.43873  1.0000
  C   C8        1.0  0.17047000000000004  0.22828  0.43160000000000004  1.0000
  C   C9        1.0  0.9246400000000002  0.3937399999999999  0.86209  1.0000
  C   C10       1.0  0.7903899999999999  0.40513000000000005  0.95483  1.0000
  C   C11       1.0  0.7981  0.37704000000000004  0.07368  1.0000
  C   C12       1.0  0.9386799999999998  0.33827000000000007  0.09949000000000001  1.0000
  C   C13       1.0  0.07064000000000004  0.32269  0.00589  1.0000
  C   C14       1.0  0.06653999999999988  0.34949000000000013  0.8871200000000001  1.0000
  C   C15       1.0  0.91893  0.4326400000000001  0.7354  1.0000
  C   C16       1.0  0.6591800000000003  0.38837  0.17595  1.0000
  C   C17       1.0  0.7159200000000001  0.14713000000000004  0.59654  1.0000
  C   C18       1.0  0.7106400000000002  0.02334  0.57473  1.0000
  C   C19       1.0  0.8240000000000005  0.90126  0.59517  1.0000
  C   C20       1.0  0.94034  0.9018300000000001  0.63956  1.0000
  C   C21       1.0  0.93802  0.024330000000000008  0.66685  1.0000
  C   C22       1.0  0.82843  0.14741000000000004  0.6455  1.0000
  C   C23       1.0  0.6082800000000002  0.28078  0.56132  1.0000
  C   C24       1.0  0.82974  0.7672300000000001  0.5678  1.0000
  C   C25       1.0  0.07540000000000006  0.60543  0.13762  1.0000
  C   C26       1.0  0.20966000000000007  0.59489  0.04493  1.0000
  C   C27       1.0  0.20216999999999993  0.6229300000000001  0.926  1.0000
  C   C28       1.0  0.06152000000000003  0.66218  0.90019  1.0000
  C   C29       1.0  0.9295099999999997  0.6781900000000001  0.99379  1.0000
  C   C30       1.0  0.9335400000000003  0.65034  0.11256  1.0000
  C   C31       1.0  0.08107  0.56437  0.26421  1.0000
  C   C32       1.0  0.34133000000000013  0.60943  0.82375  1.0000
  N   N1        1.0  0.9380600000000001  0.9719600000000002  0.2861  1.0000
  N   N2        1.0  0.21827000000000002  0.28104000000000007  0.03433  1.0000
  N   N3        1.0  0.0604  0.02407000000000001  0.71422  1.0000
  N   N4        1.0  0.78157  0.71966  0.9660300000000002  1.0000
  O   O1        1.0  0.3791999999999999  0.6059100000000001  0.42104  1.0000
  O   O2        1.0  0.4895600000000002  0.7189800000000001  0.48648  1.0000
  O   O3        1.0  0.2948700000000001  0.25043  0.4168700000000001  1.0000
  O   O4        1.0  0.03704999999999998  0.31129000000000007  0.46812  1.0000
  O   O5        1.0  0.8461000000000001  0.08407  0.26323  1.0000
  O   O6        1.0  0.9328800000000004  0.8601599999999999  0.27372  1.0000
  O   O7        1.0  0.04230999999999997  0.43604  0.65736  1.0000
  O   O8        1.0  0.7929499999999999  0.46194000000000013  0.70929  1.0000
  O   O9        1.0  0.53049  0.4027299999999999  0.15945  1.0000
  O   O10       1.0  0.6696500000000002  0.3824600000000002  0.2819  1.0000
  O   O11       1.0  0.21525000000000005  0.26701  0.14167  1.0000
  O   O12       1.0  0.3350100000000002  0.26435  0.9499500000000001  1.0000
  O   O13       1.0  0.62326  0.3899000000000002  0.57919  1.0000
  O   O14       1.0  0.5101000000000002  0.27995  0.51321  1.0000
  O   O15       1.0  0.70563  0.7444600000000001  0.58282  1.0000
  O   O16       1.0  0.9632400000000002  0.68425  0.53165  1.0000
  O   O17       1.0  0.1527999999999999  0.9120100000000001  0.73656  1.0000
  O   O18       1.0  0.06502000000000001  0.13579999999999998  0.72732  1.0000
  O   O19       1.0  0.9582200000000001  0.55867  0.34195  1.0000
  O   O20       1.0  0.20677999999999996  0.53604  0.29048  1.0000
  O   O21       1.0  0.47032999999999986  0.5943100000000001  0.8401600000000001  1.0000
  O   O22       1.0  0.3309800000000003  0.6135  0.7180200000000001  1.0000
  O   O23       1.0  0.7836099999999999  0.73796  0.8585800000000001  1.0000
  O   O24       1.0  0.6655499999999999  0.73206  0.05059  1.0000
