data_image0
_chemical_formula_structural       Mg2H6C6O12
_chemical_formula_sum              "Mg2 H6 C6 O12"
_cell_length_a       8.12969
_cell_length_b       8.09052
_cell_length_c       9.08657
_cell_angle_alpha    62.33205999999999
_cell_angle_beta     62.40014000000001
_cell_angle_gamma    58.6834

_space_group_name_H-M_alt    "P 1"
_space_group_IT_number       1

loop_
  _space_group_symop_operation_xyz
  'x, y, z'

loop_
  _atom_site_type_symbol
  _atom_site_label
  _atom_site_symmetry_multiplicity
  _atom_site_fract_x
  _atom_site_fract_y
  _atom_site_fract_z
  _atom_site_occupancy
  Mg  Mg1       1.0  0.0  0.0  0.0  1.0000
  Mg  Mg2       1.0  0.5000000000000002  0.4999999999999998  0.5  1.0000
  H   H1        1.0  0.7390700000000003  0.35237  0.75211  1.0000
  H   H2        1.0  0.34918000000000005  0.15098  0.75484  1.0000
  H   H3        1.0  0.14999000000000004  0.74812  0.75617  1.0000
  H   H4        1.0  0.26093000000000016  0.64762  0.24789  1.0000
  H   H5        1.0  0.6508199999999998  0.8490199999999998  0.24516000000000004  1.0000
  H   H6        1.0  0.8500100000000003  0.25187999999999994  0.24383000000000005  1.0000
  C   C1        1.0  0.74673  0.21034000000000003  0.7519  1.0000
  C   C2        1.0  0.20890000000000014  0.2916299999999998  0.7518000000000002  1.0000
  C   C3        1.0  0.2896899999999999  0.74728  0.75283  1.0000
  C   C4        1.0  0.25327  0.78966  0.24809000000000006  1.0000
  C   C5        1.0  0.7911100000000002  0.70837  0.24819  1.0000
  C   C6        1.0  0.71031  0.2527199999999999  0.24717  1.0000
  O   O1        1.0  0.84464  0.046659999999999896  0.8452600000000002  1.0000
  O   O2        1.0  0.6561500000000001  0.23272000000000004  0.65857  1.0000
  O   O3        1.0  0.04489999999999996  0.2677  0.84203  1.0000
  O   O4        1.0  0.23239999999999994  0.45632999999999996  0.6587500000000001  1.0000
  O   O5        1.0  0.2666799999999998  0.8393399999999998  0.8455200000000003  1.0000
  O   O6        1.0  0.45259000000000005  0.65398  0.6561  1.0000
  O   O7        1.0  0.15535999999999997  0.9533399999999999  0.15474  1.0000
  O   O8        1.0  0.34385000000000016  0.7672699999999998  0.34143  1.0000
  O   O9        1.0  0.9551000000000002  0.7322999999999997  0.15797  1.0000
  O   O10       1.0  0.7676000000000002  0.5436699999999999  0.34125  1.0000
  O   O11       1.0  0.73332  0.16066000000000003  0.15448  1.0000
  O   O12       1.0  0.54741  0.34601999999999994  0.3439  1.0000
