data_image0
_chemical_formula_structural       Zn8H26C18S2N32O14
_chemical_formula_sum              "Zn8 H26 C18 S2 N32 O14"
_cell_length_a       7.32329
_cell_length_b       12.99595
_cell_length_c       12.996
_cell_angle_alpha    88.37664
_cell_angle_beta     84.96095
_cell_angle_gamma    84.96092999999999

_symmetry_space_group_name_H-M    'P 1'
_symmetry_Int_Tables_number       1

loop_
  _symmetry_equiv_pos_as_xyz
  'x,y,z'

loop_
  _atom_site_type_symbol
  _atom_site_label
  _atom_site_symmetry_multiplicity
  _atom_site_fract_x
  _atom_site_fract_y
  _atom_site_fract_z
  _atom_site_occupancy
  Zn  Zn1       1.0  0.28307000000000004  0.61139  0.78462  1.0000
  Zn  Zn2       1.0  0.7169500000000001  0.21538  0.38861  1.0000
  Zn  Zn3       1.0  0.7169500000000001  0.38861  0.21538  1.0000
  Zn  Zn4       1.0  0.28307000000000004  0.7846200000000001  0.61139  1.0000
  Zn  Zn5       1.0  0.50001  0.15469  0.84531  1.0000
  Zn  Zn6       1.0  0.5000100000000002  0.84531  0.15469  1.0000
  Zn  Zn7       1.0  7.58008370981592e-18  0.18021  0.81979  1.0000
  Zn  Zn8       1.0  9.999999999976933e-06  0.8197900000000001  0.18021  1.0000
  H   H1        1.0  0.9114999999999999  0.50806  0.72301  1.0000
  H   H2        1.0  0.8484000000000003  0.38616  0.74681  1.0000
  H   H3        1.0  0.07701000000000005  0.27873  0.13829  1.0000
  H   H4        1.0  0.16030999999999998  0.20869  0.03423  1.0000
  H   H5        1.0  0.52569  0.41043  0.82891  1.0000
  H   H6        1.0  0.4516500000000001  0.30341  0.053869999999999994  1.0000
  H   H7        1.0  0.08851000000000002  0.27699  0.49194  1.0000
  H   H8        1.0  0.1516100000000001  0.25319  0.61384  1.0000
  H   H9        1.0  0.9230100000000003  0.8617  0.7212699999999999  1.0000
  H   H10       1.0  0.8397100000000004  0.96577  0.7913099999999998  1.0000
  H   H11       1.0  0.47431999999999996  0.17109  0.58957  1.0000
  H   H12       1.0  0.54836  0.9461300000000002  0.69659  1.0000
  H   H13       1.0  0.08850999999999999  0.49194000000000004  0.27699  1.0000
  H   H14       1.0  0.15161000000000008  0.61384  0.25319  1.0000
  H   H15       1.0  0.92301  0.72127  0.8616999999999999  1.0000
  H   H16       1.0  0.8397100000000001  0.79131  0.9657699999999999  1.0000
  H   H17       1.0  0.47432  0.58957  0.17109  1.0000
  H   H18       1.0  0.54836  0.69659  0.9461299999999998  1.0000
  H   H19       1.0  0.9115  0.72301  0.50806  1.0000
  H   H20       1.0  0.84841  0.74681  0.38615999999999995  1.0000
  H   H21       1.0  0.07701000000000002  0.1383  0.27873  1.0000
  H   H22       1.0  0.16031  0.03423  0.20869  1.0000
  H   H23       1.0  0.52569  0.8289100000000003  0.41043  1.0000
  H   H24       1.0  0.4516600000000001  0.05387000000000001  0.30341  1.0000
  H   H25       1.0  0.027600000000000024  0.66487  0.6648699999999999  1.0000
  H   H26       1.0  0.9724100000000001  0.33513  0.33512999999999993  1.0000
  C   C1        1.0  0.38882000000000005  0.39018  0.81642  1.0000
  C   C2        1.0  0.10421000000000004  0.40331  0.7837599999999999  1.0000
  C   C3        1.0  0.5961700000000002  0.28353  0.03095  1.0000
  C   C4        1.0  0.89151  0.26231  0.03416  1.0000
  C   C5        1.0  0.6112000000000002  0.18358  0.60982  1.0000
  C   C6        1.0  0.8958000000000003  0.21624  0.59669  1.0000
  C   C7        1.0  0.40384000000000003  0.96905  0.71646  1.0000
  C   C8        1.0  0.10850000000000001  0.96584  0.73769  1.0000
  C   C9        1.0  0.6112000000000002  0.60982  0.18358  1.0000
  C   C10       1.0  0.8958000000000003  0.59669  0.21624  1.0000
  C   C11       1.0  0.40384000000000014  0.71646  0.96905  1.0000
  C   C12       1.0  0.10849999999999997  0.7376900000000001  0.96584  1.0000
  C   C13       1.0  0.38881999999999994  0.81642  0.39018  1.0000
  C   C14       1.0  0.10421000000000002  0.78376  0.4033099999999999  1.0000
  C   C15       1.0  0.59618  0.03095  0.28353  1.0000
  C   C16       1.0  0.8915200000000001  0.03416  0.26231  1.0000
  C   C17       1.0  0.4089000000000001  0.02687  0.02686  1.0000
  C   C18       1.0  0.59112  0.9731400000000002  0.97313  1.0000
  S   S1        1.0  0.66424  0.68467  0.68467  1.0000
  S   S2        1.0  0.33578  0.31533  0.31532999999999994  1.0000
  N   N1        1.0  0.33794  0.29504  0.82171  1.0000
  N   N2        1.0  0.15601000000000004  0.30205  0.7989799999999999  1.0000
  N   N3        1.0  0.24856000000000006  0.46114  0.7936  1.0000
  N   N4        1.0  0.9296800000000001  0.44112  0.76625  1.0000
  N   N5        1.0  0.65777  0.23283000000000004  0.9462699999999997  1.0000
  N   N6        1.0  0.8478300000000002  0.21805  0.94785  1.0000
  N   N7        1.0  0.7353600000000002  0.30501  0.08789  1.0000
  N   N8        1.0  0.06543  0.26715  0.06172  1.0000
  N   N9        1.0  0.66207  0.17828  0.7049499999999999  1.0000
  N   N10       1.0  0.8440000000000002  0.20102000000000003  0.69795  1.0000
  N   N11       1.0  0.7514500000000002  0.20640000000000003  0.53886  1.0000
  N   N12       1.0  0.07033  0.23375  0.55888  1.0000
  N   N13       1.0  0.34224000000000016  0.05373  0.76717  1.0000
  N   N14       1.0  0.15218000000000004  0.05215  0.78194  1.0000
  N   N15       1.0  0.26465  0.9121100000000001  0.69498  1.0000
  N   N16       1.0  0.9345800000000004  0.9382800000000002  0.7328499999999998  1.0000
  N   N17       1.0  0.66207  0.70496  0.17829  1.0000
  N   N18       1.0  0.84401  0.69795  0.20102  1.0000
  N   N19       1.0  0.7514500000000002  0.53886  0.20639999999999997  1.0000
  N   N20       1.0  0.07033000000000003  0.55888  0.23375  1.0000
  N   N21       1.0  0.34225  0.76717  0.05372999999999999  1.0000
  N   N22       1.0  0.15217999999999998  0.7819400000000001  0.05215  1.0000
  N   N23       1.0  0.26465  0.69498  0.91211  1.0000
  N   N24       1.0  0.9345800000000004  0.73285  0.9382799999999998  1.0000
  N   N25       1.0  0.33794  0.82171  0.29504  1.0000
  N   N26       1.0  0.15600999999999998  0.7989800000000001  0.30205  1.0000
  N   N27       1.0  0.24857000000000004  0.7936  0.46114  1.0000
  N   N28       1.0  0.9296800000000001  0.76625  0.44112  1.0000
  N   N29       1.0  0.65777  0.9462700000000001  0.23283  1.0000
  N   N30       1.0  0.84784  0.94785  0.21805  1.0000
  N   N31       1.0  0.7353600000000002  0.08789  0.30501  1.0000
  N   N32       1.0  0.06543000000000002  0.061720000000000004  0.26715  1.0000
  O   O1        1.0  0.5545700000000002  0.60169  0.7394699999999998  1.0000
  O   O2        1.0  0.34147  0.10904  0.9846899999999997  1.0000
  O   O3        1.0  0.44544000000000006  0.26053  0.3983099999999999  1.0000
  O   O4        1.0  0.6585500000000002  0.015310000000000008  0.8909599999999998  1.0000
  O   O5        1.0  0.44544  0.39831000000000005  0.26053  1.0000
  O   O6        1.0  0.6585500000000002  0.89095  0.01531  1.0000
  O   O7        1.0  0.5545700000000002  0.73947  0.60169  1.0000
  O   O8        1.0  0.34146  0.98469  0.10904999999999998  1.0000
  O   O9        1.0  0.83301  0.6293500000000001  0.6293499999999997  1.0000
  O   O10       1.0  0.7114200000000003  0.7596  0.7595999999999998  1.0000
  O   O11       1.0  0.13077  0.69481  0.69481  1.0000
  O   O12       1.0  0.16700000000000012  0.37065  0.37065  1.0000
  O   O13       1.0  0.28858999999999996  0.2404  0.24039  1.0000
  O   O14       1.0  0.8692400000000001  0.30518999999999996  0.30519  1.0000
