data_image0
_chemical_formula_structural       Zn4H20C44N4O16
_chemical_formula_sum              "Zn4 H20 C44 N4 O16"
_cell_length_a       7.75363
_cell_length_b       9.54367
_cell_length_c       16.16852
_cell_angle_alpha    90.11535
_cell_angle_beta     90.14717
_cell_angle_gamma    85.99104

_space_group_name_H-M_alt    "P 1"
_space_group_IT_number       1

loop_
  _space_group_symop_operation_xyz
  'x, y, z'

loop_
  _atom_site_type_symbol
  _atom_site_label
  _atom_site_symmetry_multiplicity
  _atom_site_fract_x
  _atom_site_fract_y
  _atom_site_fract_z
  _atom_site_occupancy
  Zn  Zn1       1.0  0.73943  0.9117900000000001  0.8145699999999998  1.0000
  Zn  Zn2       1.0  0.74784  0.59221  0.31918  1.0000
  Zn  Zn3       1.0  0.26055  0.08821  0.18542  1.0000
  Zn  Zn4       1.0  0.2521699999999999  0.4078  0.68081  1.0000
  H   H1        1.0  0.8143  0.81565  0.55014  1.0000
  H   H2        1.0  0.99884  0.10956  0.7844  1.0000
  H   H3        1.0  0.08780999999999999  0.3296  0.84183  1.0000
  H   H4        1.0  0.7858  0.24882  0.06265  1.0000
  H   H5        1.0  0.68779  0.04023  0.9896  1.0000
  H   H6        1.0  0.68409  0.6810400000000001  0.0518  1.0000
  H   H7        1.0  0.49417  0.39145  0.28751  1.0000
  H   H8        1.0  0.40821  0.17038  0.34507  1.0000
  H   H9        1.0  0.7185500000000002  0.25171  0.56365  1.0000
  H   H10       1.0  0.81254  0.4617  0.49212  1.0000
  H   H11       1.0  0.18569  0.18435  0.44986  1.0000
  H   H12       1.0  0.0011599999999999946  0.8904400000000001  0.21559  1.0000
  H   H13       1.0  0.91219  0.6704  0.15817  1.0000
  H   H14       1.0  0.21419999999999997  0.75117  0.9373499999999998  1.0000
  H   H15       1.0  0.31221  0.95977  0.0104  1.0000
  H   H16       1.0  0.3159  0.31896  0.9482  1.0000
  H   H17       1.0  0.50583  0.60855  0.71249  1.0000
  H   H18       1.0  0.59179  0.82962  0.65492  1.0000
  H   H19       1.0  0.28145  0.74829  0.43635  1.0000
  H   H20       1.0  0.18746  0.5383000000000001  0.50787  1.0000
  C   C1        1.0  0.83899  0.02927  0.6610699999999998  1.0000
  C   C2        1.0  0.931  0.00932  0.57994  1.0000
  C   C3        1.0  0.89542  0.89705  0.52822  1.0000
  C   C4        1.0  0.03767  0.11167  0.55199  1.0000
  C   C5        1.0  0.09142  0.23239  0.60121  1.0000
  C   C6        1.0  0.9506000000000002  0.14498  0.84462  1.0000
  C   C7        1.0  4.999999999999828e-05  0.26939  0.87765  1.0000
  C   C8        1.0  0.9372499999999999  0.31248  0.9565399999999997  1.0000
  C   C9        1.0  0.83167  0.22377000000000002  0.0  1.0000
  C   C10       1.0  0.7809  0.10408000000000002  0.96046  1.0000
  C   C11       1.0  0.97869  0.44269000000000003  0.98959  1.0000
  C   C12       1.0  0.66367  0.47259  0.1612  1.0000
  C   C13       1.0  0.56927  0.49055  0.08051  1.0000
  C   C14       1.0  0.60208  0.60272  0.02959  1.0000
  C   C15       1.0  0.46507  0.38712  0.05066  1.0000
  C   C16       1.0  0.41778  0.26025000000000004  0.0988  1.0000
  C   C17       1.0  0.54443  0.35655  0.34734  1.0000
  C   C18       1.0  0.49648  0.23181  0.38012  1.0000
  C   C19       1.0  0.5628  0.18856000000000003  0.45831  1.0000
  C   C20       1.0  0.67025  0.27735  0.50143  1.0000
  C   C21       1.0  0.71886  0.39782  0.46246  1.0000
  C   C22       1.0  0.52276  0.05782000000000001  0.49025  1.0000
  C   C23       1.0  0.16099999999999998  0.9707200000000001  0.33893  1.0000
  C   C24       1.0  0.069  0.9906800000000001  0.42005  1.0000
  C   C25       1.0  0.10458  0.10295000000000001  0.47177999999999987  1.0000
  C   C26       1.0  0.96234  0.88833  0.448  1.0000
  C   C27       1.0  0.90858  0.76761  0.39879  1.0000
  C   C28       1.0  0.04939999999999998  0.8550200000000001  0.15538  1.0000
  C   C29       1.0  0.9999499999999999  0.73061  0.12235  1.0000
  C   C30       1.0  0.06275  0.68752  0.04346  1.0000
  C   C31       1.0  0.16833000000000004  0.77623  0.0  1.0000
  C   C32       1.0  0.2191  0.89592  0.03953  1.0000
  C   C33       1.0  0.021299999999999993  0.55731  0.0104  1.0000
  C   C34       1.0  0.33632  0.52742  0.8388  1.0000
  C   C35       1.0  0.43073  0.50946  0.91948  1.0000
  C   C36       1.0  0.39792  0.39728  0.97041  1.0000
  C   C37       1.0  0.53493  0.61289  0.94933  1.0000
  C   C38       1.0  0.58222  0.73975  0.90119  1.0000
  C   C39       1.0  0.45557  0.64345  0.65265  1.0000
  C   C40       1.0  0.50352  0.76819  0.61988  1.0000
  C   C41       1.0  0.4372  0.81144  0.54169  1.0000
  C   C42       1.0  0.32975  0.72265  0.49857  1.0000
  C   C43       1.0  0.28114  0.60218  0.53754  1.0000
  C   C44       1.0  0.47724  0.94218  0.50975  1.0000
  N   N1        1.0  0.83795  0.06518  0.88372  1.0000
  N   N2        1.0  0.65727  0.4369  0.3864  1.0000
  N   N3        1.0  0.16204  0.93482  0.11628  1.0000
  N   N4        1.0  0.34273  0.5631  0.61359  1.0000
  O   O1        1.0  0.82456  0.91324  0.70268  1.0000
  O   O2        1.0  0.77638  0.14841  0.67979  1.0000
  O   O3        1.0  0.182  0.21144  0.66757  1.0000
  O   O4        1.0  0.06289  0.35505  0.57346  1.0000
  O   O5        1.0  0.68033  0.5894900000000001  0.20243  1.0000
  O   O6        1.0  0.72305  0.35262  0.18314  1.0000
  O   O7        1.0  0.34016  0.27896  0.17047  1.0000
  O   O8        1.0  0.43975  0.14166  0.0661  1.0000
  O   O9        1.0  0.17542  0.08676000000000002  0.2973  1.0000
  O   O10       1.0  0.22360999999999998  0.8515900000000001  0.32021  1.0000
  O   O11       1.0  0.81801  0.78856  0.33242  1.0000
  O   O12       1.0  0.9371000000000003  0.64495  0.42654  1.0000
  O   O13       1.0  0.31964  0.41052  0.79757  1.0000
  O   O14       1.0  0.27695  0.64739  0.81686  1.0000
  O   O15       1.0  0.65985  0.7210300000000001  0.82952  1.0000
  O   O16       1.0  0.56025  0.85835  0.93387  1.0000
