data_image0
_chemical_formula_structural       Zn4H24C16N32
_chemical_formula_sum              "Zn4 H24 C16 N32"
_cell_length_a       10.30817
_cell_length_b       10.30817
_cell_length_c       12.55078
_cell_angle_alpha    90.12694000000002
_cell_angle_beta     89.87353
_cell_angle_gamma    90.00724999999998

_symmetry_space_group_name_H-M    'P 1'
_symmetry_Int_Tables_number       1

loop_
  _symmetry_equiv_pos_as_xyz
  'x,y,z'

loop_
  _atom_site_type_symbol
  _atom_site_label
  _atom_site_symmetry_multiplicity
  _atom_site_fract_x
  _atom_site_fract_y
  _atom_site_fract_z
  _atom_site_occupancy
  Zn  Zn1       1.0  0.71042  0.71042  0.5  1.0000
  Zn  Zn2       1.0  0.28943  0.28943  9.999999999999999e-06  1.0000
  Zn  Zn3       1.0  0.7894799999999998  0.21092000000000002  0.74871  1.0000
  Zn  Zn4       1.0  0.21091  0.7894799999999998  0.25129  1.0000
  H   H1        1.0  0.59831  0.43521999999999994  0.4312  1.0000
  H   H2        1.0  0.8932599999999999  0.49046000000000006  0.76657  1.0000
  H   H3        1.0  0.85257  0.63497  0.70574  1.0000
  H   H4        1.0  0.4007799999999999  0.56588  0.93171  1.0000
  H   H5        1.0  0.10552999999999998  0.5088  0.2679  1.0000
  H   H6        1.0  0.14619999999999997  0.36438  0.20616  1.0000
  H   H7        1.0  0.06572  0.09981  0.6806  1.0000
  H   H8        1.0  0.00868  0.39297  0.01789  1.0000
  H   H9        1.0  0.8643199999999999  0.35335  0.95628  1.0000
  H   H10       1.0  0.93474  0.90074  0.18186  1.0000
  H   H11       1.0  0.99014  0.60644  0.51728  1.0000
  H   H12       1.0  0.13474  0.64685  0.45663  1.0000
  H   H13       1.0  0.90073  0.9347399999999999  0.81814  1.0000
  H   H14       1.0  0.60643  0.99014  0.48272  1.0000
  H   H15       1.0  0.64684  0.13474  0.54337  1.0000
  H   H16       1.0  0.09979999999999999  0.06572  0.31940999999999997  1.0000
  H   H17       1.0  0.3929599999999999  0.00869  0.98212  1.0000
  H   H18       1.0  0.35334  0.8643299999999999  0.04372  1.0000
  H   H19       1.0  0.43521  0.59831  0.5688  1.0000
  H   H20       1.0  0.49046  0.89327  0.23343  1.0000
  H   H21       1.0  0.63496  0.85258  0.29426  1.0000
  H   H22       1.0  0.56588  0.40079  0.06829  1.0000
  H   H23       1.0  0.50879  0.10554000000000001  0.7321  1.0000
  H   H24       1.0  0.36436999999999997  0.1462  0.79384  1.0000
  C   C1        1.0  0.7854299999999999  0.46971999999999997  0.63222  1.0000
  C   C2        1.0  0.65906  0.42425  0.50093  1.0000
  C   C3        1.0  0.21415999999999996  0.5298  0.1336  1.0000
  C   C4        1.0  0.34038  0.57604  0.00203  1.0000
  C   C5        1.0  0.029629999999999997  0.28549  0.8831  1.0000
  C   C6        1.0  0.07579  0.15947  0.7513  1.0000
  C   C7        1.0  0.96994  0.71428  0.38311  1.0000
  C   C8        1.0  0.9242499999999999  0.84063  0.25205  1.0000
  C   C9        1.0  0.71427  0.96995  0.61689  1.0000
  C   C10       1.0  0.8406199999999999  0.9242600000000001  0.74795  1.0000
  C   C11       1.0  0.28548999999999997  0.029629999999999997  0.11691  1.0000
  C   C12       1.0  0.15945999999999996  0.07578  0.24870999999999996  1.0000
  C   C13       1.0  0.46971  0.78544  0.36778  1.0000
  C   C14       1.0  0.42425  0.65907  0.49907  1.0000
  C   C15       1.0  0.5298  0.21416000000000002  0.8664  1.0000
  C   C16       1.0  0.57604  0.34039  0.99797  1.0000
  N   N1        1.0  0.7222699999999999  0.52597  0.54884  1.0000
  N   N2        1.0  0.7603499999999999  0.34151  0.63466  1.0000
  N   N3        1.0  0.67866  0.3127  0.54953  1.0000
  N   N4        1.0  0.8688  0.53566  0.6974  1.0000
  N   N5        1.0  0.27674  0.47411  0.04914  1.0000
  N   N6        1.0  0.24010999999999993  0.65779  0.13738  1.0000
  N   N7        1.0  0.32158  0.68706  0.05208  1.0000
  N   N8        1.0  0.13051  0.4638  0.19851  1.0000
  N   N9        1.0  0.9740199999999998  0.22380000000000003  0.79836  1.0000
  N   N10       1.0  0.15742  0.25859  0.8869499999999999  1.0000
  N   N11       1.0  0.18665  0.17717  0.80148  1.0000
  N   N12       1.0  0.9637799999999997  0.36923  0.94835  1.0000
  N   N13       1.0  0.025919999999999995  0.77684  0.2991  1.0000
  N   N14       1.0  0.84198  0.7402  0.38664  1.0000
  N   N15       1.0  0.813  0.82189  0.30174  1.0000
  N   N16       1.0  0.03554  0.63047  0.44795  1.0000
  N   N17       1.0  0.77684  0.02592  0.7009  1.0000
  N   N18       1.0  0.7401899999999999  0.8419900000000001  0.61336  1.0000
  N   N19       1.0  0.8218799999999999  0.8130100000000001  0.69825  1.0000
  N   N20       1.0  0.6304699999999999  0.03554  0.55205  1.0000
  N   N21       1.0  0.22379  0.97403  0.20164999999999997  1.0000
  N   N22       1.0  0.25858  0.15742  0.11306  1.0000
  N   N23       1.0  0.17717  0.18665  0.19853  1.0000
  N   N24       1.0  0.36922  0.96379  0.05165  1.0000
  N   N25       1.0  0.52596  0.72227  0.45116  1.0000
  N   N26       1.0  0.3415099999999999  0.76035  0.36534  1.0000
  N   N27       1.0  0.3127  0.67867  0.45047  1.0000
  N   N28       1.0  0.53566  0.86881  0.3026  1.0000
  N   N29       1.0  0.4741  0.27674  0.95086  1.0000
  N   N30       1.0  0.6577899999999999  0.24011999999999997  0.86262  1.0000
  N   N31       1.0  0.6870599999999999  0.32159  0.94792  1.0000
  N   N32       1.0  0.4637899999999999  0.13051  0.8015  1.0000
