data_image0
_chemical_formula_structural       EuH3C3O6
_chemical_formula_sum              "Eu1 H3 C3 O6"
_cell_length_a       6.53777
_cell_length_b       6.19693
_cell_length_c       6.354369999999999
_cell_angle_alpha    67.79629
_cell_angle_beta     59.34498999999998
_cell_angle_gamma    66.51543

_symmetry_space_group_name_H-M    'P 1'
_symmetry_Int_Tables_number       1

loop_
  _symmetry_equiv_pos_as_xyz
  'x,y,z'

loop_
  _atom_site_type_symbol
  _atom_site_label
  _atom_site_symmetry_multiplicity
  _atom_site_fract_x
  _atom_site_fract_y
  _atom_site_fract_z
  _atom_site_occupancy
  Eu  Eu1       1.0  0.0012399999999999941  0.61934  0.36477  1.0000
  H   H1        1.0  0.13657  0.24332000000000006  0.92577  1.0000
  H   H2        1.0  0.8158399999999998  0.008450000000000003  0.7535  1.0000
  H   H3        1.0  0.48238000000000003  0.99921  0.16825  1.0000
  C   C1        1.0  0.0749500000000001  0.44398  0.8932199999999999  1.0000
  C   C2        1.0  0.90691  0.08107000000000002  0.54715  1.0000
  C   C3        1.0  0.48975999999999986  0.8039800000000001  0.25119  1.0000
  O   O1        1.0  0.61303  0.69359  0.37996  1.0000
  O   O2        1.0  0.9298000000000001  0.55088  0.7873199999999999  1.0000
  O   O3        1.0  0.15405  0.54302  0.96817  1.0000
  O   O4        1.0  0.3705800000000001  0.71965  0.20936999999999997  1.0000
  O   O5        1.0  0.05922  0.19798  0.47943  1.0000
  O   O6        1.0  0.85146  0.030560000000000007  0.41116  1.0000
