data_image0
_chemical_formula_structural       Ni4H12C32O20
_chemical_formula_sum              "Ni4 H12 C32 O20"
_cell_length_a       11.77115
_cell_length_b       12.206530000000003
_cell_length_c       11.997409999999999
_cell_angle_alpha    76.28029
_cell_angle_beta     60.50626
_cell_angle_gamma    61.189150000000005

_space_group_name_H-M_alt    "P 1"
_space_group_IT_number       1

loop_
  _space_group_symop_operation_xyz
  'x, y, z'

loop_
  _atom_site_type_symbol
  _atom_site_label
  _atom_site_symmetry_multiplicity
  _atom_site_fract_x
  _atom_site_fract_y
  _atom_site_fract_z
  _atom_site_occupancy
  Ni  Ni1       1.0  0.45275000000000004  0.50114  0.09286000000000001  1.0000
  Ni  Ni2       1.0  0.04574999999999994  0.50118  0.90758  1.0000
  Ni  Ni3       1.0  0.6945199999999996  0.61122  0.99998  1.0000
  Ni  Ni4       1.0  0.3049199999999999  0.39027  0.99988  1.0000
  H   H1        1.0  0.7950499999999997  0.19583  0.05345  1.0000
  H   H2        1.0  0.043989999999999994  0.80501  0.9465  1.0000
  H   H3        1.0  0.7420499999999998  0.55877  0.30185  1.0000
  H   H4        1.0  0.60164  0.4414699999999999  0.69784  1.0000
  H   H5        1.0  0.9569799999999998  0.4415299999999999  0.30212  1.0000
  H   H6        1.0  0.69969  0.55875  0.69822  1.0000
  H   H7        1.0  0.009579999999999946  0.1957  0.9466000000000001  1.0000
  H   H8        1.0  0.1517600000000001  0.8049099999999999  0.05328  1.0000
  H   H9        1.0  0.60386  0.00037999999999999997  0.00032  1.0000
  H   H10       1.0  0.3558799999999997  0.5003099999999999  0.49954000000000004  1.0000
  H   H11       1.0  0.14435000000000012  0.5002699999999999  0.49993  1.0000
  H   H12       1.0  0.39581  0.0008299999999999998  0.00025  1.0000
  C   C1        1.0  0.56138  0.23453999999999994  0.04524  1.0000
  C   C2        1.0  0.6898599999999998  0.11041999999999999  0.02492  1.0000
  C   C3        1.0  0.80752  0.10948  0.02829  1.0000
  C   C4        1.0  0.8406700000000001  0.76676  0.95458  1.0000
  C   C5        1.0  0.8247099999999999  0.89068  0.97511  1.0000
  C   C6        1.0  0.9449300000000003  0.8914499999999997  0.9716600000000001  1.0000
  C   C7        1.0  0.5458200000000001  0.54659  0.26269  1.0000
  C   C8        1.0  0.5507999999999997  0.52862  0.38816  1.0000
  C   C9        1.0  0.66728  0.53215  0.38903  1.0000
  C   C10       1.0  0.35463000000000006  0.45359  0.737  1.0000
  C   C11       1.0  0.46734000000000003  0.4715099999999999  0.6113  1.0000
  C   C12       1.0  0.58792  0.46836  0.61057  1.0000
  C   C13       1.0  0.19192000000000012  0.45359  0.26278  1.0000
  C   C14       1.0  0.06143999999999998  0.47145999999999993  0.38853000000000004  1.0000
  C   C15       1.0  0.94396  0.46829999999999994  0.38935000000000003  1.0000
  C   C16       1.0  0.9077599999999996  0.5466299999999998  0.7372  1.0000
  C   C17       1.0  0.9209399999999998  0.52863  0.6116200000000002  1.0000
  C   C18       1.0  0.8009199999999999  0.5321  0.61084  1.0000
  C   C19       1.0  0.2039799999999999  0.23469999999999996  0.9549000000000001  1.0000
  C   C20       1.0  0.20009000000000002  0.11041999999999999  0.97511  1.0000
  C   C21       1.0  0.08345999999999999  0.10936  0.97169  1.0000
  C   C22       1.0  0.3928300000000002  0.7667799999999999  0.04574  1.0000
  C   C23       1.0  0.28498999999999997  0.89077  0.02505  1.0000
  C   C24       1.0  0.16416000000000008  0.8914399999999998  0.02821  1.0000
  C   C25       1.0  0.6962299999999999  0.00051  0.00017  1.0000
  C   C26       1.0  0.9372299999999998  0.00041  0.00011  1.0000
  C   C27       1.0  0.4482100000000001  0.5001199999999999  0.49971  1.0000
  C   C28       1.0  0.68758  0.50044  0.4999  1.0000
  C   C29       1.0  0.052069999999999964  0.50006  0.5000500000000001  1.0000
  C   C30       1.0  0.8122399999999999  0.5003  0.50006  1.0000
  C   C31       1.0  0.30354  0.00068  0.00015  1.0000
  C   C32       1.0  0.06267  0.00037999999999999997  4e-05  1.0000
  O   O1        1.0  0.48842999999999986  0.24875999999999998  0.9871600000000001  1.0000
  O   O2        1.0  0.5416099999999998  0.31311  0.11285  1.0000
  O   O3        1.0  0.7237599999999998  0.75251  0.012090000000000002  1.0000
  O   O4        1.0  0.9674699999999999  0.68822  0.8871  1.0000
  O   O5        1.0  0.49061  0.48895  0.24704  1.0000
  O   O6        1.0  0.6035299999999999  0.61802  0.18344  1.0000
  O   O7        1.0  0.2260099999999999  0.51163  0.7529300000000001  1.0000
  O   O8        1.0  0.40407999999999983  0.38203  0.81627  1.0000
  O   O9        1.0  0.26241  0.51181  0.24671  1.0000
  O   O10       1.0  0.21387999999999996  0.38203  0.18359  1.0000
  O   O11       1.0  0.02054000000000007  0.4892199999999999  0.75296  1.0000
  O   O12       1.0  0.7785599999999999  0.6177599999999999  0.8165500000000001  1.0000
  O   O13       1.0  0.2633  0.24889999999999998  0.012359999999999998  1.0000
  O   O14       1.0  0.14426  0.31334  0.8879400000000001  1.0000
  O   O15       1.0  0.5240699999999999  0.7523899999999999  0.98767  1.0000
  O   O16       1.0  0.34453  0.68839  0.11374000000000001  1.0000
  O   O17       1.0  0.3756  0.50165  0.9885100000000001  1.0000
  O   O18       1.0  0.8651599999999999  0.49997999999999987  0.01124  1.0000
  O   O19       1.0  0.6345499999999998  0.49996999999999997  0.98888  1.0000
  O   O20       1.0  0.12265000000000004  0.50101  0.01159  1.0000
