data_image0
_chemical_formula_structural       Cu4H16C36N8O16
_chemical_formula_sum              "Cu4 H16 C36 N8 O16"
_cell_length_a       9.90413
_cell_length_b       9.870780000000002
_cell_length_c       9.280600000000002
_cell_angle_alpha    85.74008999999998
_cell_angle_beta     86.25965
_cell_angle_gamma    109.87623

_space_group_name_H-M_alt    "P 1"
_space_group_IT_number       1

loop_
  _space_group_symop_operation_xyz
  'x, y, z'

loop_
  _atom_site_type_symbol
  _atom_site_label
  _atom_site_symmetry_multiplicity
  _atom_site_fract_x
  _atom_site_fract_y
  _atom_site_fract_z
  _atom_site_occupancy
  Cu  Cu1       1.0  0.9998100000000002  0.5009000000000001  0.24991  1.0000
  Cu  Cu2       1.0  0.50043  0.0026700000000000022  0.24834  1.0000
  Cu  Cu3       1.0  0.00020000000000002714  0.4990900000000001  0.75009  1.0000
  Cu  Cu4       1.0  0.49958  0.99732  0.75166  1.0000
  H   H1        1.0  0.19411  0.19504000000000005  0.09095  1.0000
  H   H2        1.0  0.75797  0.63262  0.22009999999999996  1.0000
  H   H3        1.0  0.6291300000000001  0.7603500000000001  0.22346  1.0000
  H   H4        1.0  0.8066900000000002  0.80533  0.40713  1.0000
  H   H5        1.0  0.37097000000000013  0.24482000000000004  0.27822  1.0000
  H   H6        1.0  0.2432300000000001  0.3718800000000001  0.27354  1.0000
  H   H7        1.0  0.80588  0.80495  0.9090500000000001  1.0000
  H   H8        1.0  0.24204000000000012  0.3673800000000001  0.7799  1.0000
  H   H9        1.0  0.3708800000000001  0.23963999999999994  0.77655  1.0000
  H   H10       1.0  0.19332000000000005  0.19467000000000007  0.59288  1.0000
  H   H11       1.0  0.62904  0.7551800000000001  0.72177  1.0000
  H   H12       1.0  0.7567700000000003  0.62812  0.72646  1.0000
  H   H13       1.0  0.21970999999999993  0.78201  0.24544  1.0000
  H   H14       1.0  0.77955  0.22172000000000003  0.2547  1.0000
  H   H15       1.0  0.7802900000000003  0.21798  0.75456  1.0000
  H   H16       1.0  0.22046000000000004  0.7782800000000001  0.7453  1.0000
  C   C1        1.0  0.9689800000000002  0.27696000000000004  0.05344  1.0000
  C   C2        1.0  0.9784900000000001  0.13088  0.02844  1.0000
  C   C3        1.0  0.10837000000000002  0.10913000000000003  0.05054  1.0000
  C   C4        1.0  0.86662  0.018130000000000014  0.9778699999999999  1.0000
  C   C5        1.0  0.72027  0.02664999999999999  0.95433  1.0000
  C   C6        1.0  0.6977400000000002  0.51665  0.23345999999999997  1.0000
  C   C7        1.0  0.51368  0.7000300000000002  0.23323  1.0000
  C   C8        1.0  0.72168  0.027939999999999993  0.45120000000000005  1.0000
  C   C9        1.0  0.8678900000000003  0.019160000000000007  0.47458999999999996  1.0000
  C   C10       1.0  0.8921200000000001  0.89116  0.44810999999999995  1.0000
  C   C11       1.0  0.9790100000000003  0.13155  0.52653  1.0000
  C   C12       1.0  0.96823  0.27673  0.55341  1.0000
  C   C13       1.0  0.48649  0.30492  0.26688  1.0000
  C   C14       1.0  0.30302000000000007  0.48788000000000004  0.26282  1.0000
  C   C15       1.0  0.03102  0.72303  0.94656  1.0000
  C   C16       1.0  0.02151000000000012  0.8691100000000002  0.97156  1.0000
  C   C17       1.0  0.89163  0.89086  0.94946  1.0000
  C   C18       1.0  0.13338000000000005  0.9818600000000001  0.02213  1.0000
  C   C19       1.0  0.27973  0.9733400000000001  0.04567  1.0000
  C   C20       1.0  0.30227  0.48335000000000006  0.76654  1.0000
  C   C21       1.0  0.48632000000000003  0.29997  0.76678  1.0000
  C   C22       1.0  0.2783300000000001  0.9720600000000001  0.54881  1.0000
  C   C23       1.0  0.1321199999999999  0.9808499999999999  0.52541  1.0000
  C   C24       1.0  0.10789000000000001  0.10884  0.55189  1.0000
  C   C25       1.0  0.021009999999999994  0.86845  0.47347  1.0000
  C   C26       1.0  0.03178  0.72328  0.44659  1.0000
  C   C27       1.0  0.5135200000000001  0.69508  0.73311  1.0000
  C   C28       1.0  0.6969899999999999  0.51211  0.73717  1.0000
  C   C29       1.0  0.7131400000000002  0.28867000000000004  0.25296  1.0000
  C   C30       1.0  0.5460800000000001  0.4570100000000001  0.24962  1.0000
  C   C31       1.0  0.4546  0.5479500000000002  0.24838  1.0000
  C   C32       1.0  0.28662000000000004  0.7154600000000001  0.2465  1.0000
  C   C33       1.0  0.28687  0.7113300000000001  0.74704  1.0000
  C   C34       1.0  0.45393  0.54299  0.75038  1.0000
  C   C35       1.0  0.5454000000000001  0.45204000000000005  0.75162  1.0000
  C   C36       1.0  0.7133800000000002  0.28453000000000006  0.7535  1.0000
  N   N1        1.0  0.7790100000000001  0.43239  0.23624000000000003  1.0000
  N   N2        1.0  0.42978000000000005  0.7816  0.23283999999999996  1.0000
  N   N3        1.0  0.5699700000000001  0.22298  0.26735  1.0000
  N   N4        1.0  0.22123000000000004  0.57158  0.26159  1.0000
  N   N5        1.0  0.221  0.5676  0.76376  1.0000
  N   N6        1.0  0.57023  0.21839000000000003  0.76716  1.0000
  N   N7        1.0  0.43004  0.7770200000000003  0.73265  1.0000
  N   N8        1.0  0.77878  0.42841  0.7384  1.0000
  O   O1        1.0  0.02106000000000003  0.32602  0.17183  1.0000
  O   O2        1.0  0.9149500000000007  0.34021  0.9650100000000001  1.0000
  O   O3        1.0  0.66733  0.96862  0.83993  1.0000
  O   O4        1.0  0.6610600000000002  0.08699  0.0389  1.0000
  O   O5        1.0  0.6725  0.9785100000000001  0.33197  1.0000
  O   O6        1.0  0.65967  0.08026  0.54149  1.0000
  O   O7        1.0  0.023559999999999998  0.32571  0.67065  1.0000
  O   O8        1.0  0.9099300000000001  0.3395  0.46919000000000005  1.0000
  O   O9        1.0  0.9789500000000002  0.67397  0.82817  1.0000
  O   O10       1.0  0.08506000000000001  0.65978  0.03499  1.0000
  O   O11       1.0  0.33267  0.03138  0.16006  1.0000
  O   O12       1.0  0.3389400000000001  0.9130000000000001  0.9611099999999999  1.0000
  O   O13       1.0  0.32750000000000007  0.02148  0.66804  1.0000
  O   O14       1.0  0.3403500000000001  0.9197600000000001  0.4585099999999999  1.0000
  O   O15       1.0  0.97646  0.67429  0.32935  1.0000
  O   O16       1.0  0.09010999999999998  0.66051  0.53079  1.0000
