data_image0
_chemical_formula_structural       Zn4H12C36N16O16
_chemical_formula_sum              "Zn4 H12 C36 N16 O16"
_cell_length_a       10.30532
_cell_length_b       10.67846
_cell_length_c       12.587460000000002
_cell_angle_alpha    90.1328
_cell_angle_beta     90.01685
_cell_angle_gamma    103.04147

_space_group_name_H-M_alt    "P 1"
_space_group_IT_number       1

loop_
  _space_group_symop_operation_xyz
  'x, y, z'

loop_
  _atom_site_type_symbol
  _atom_site_label
  _atom_site_symmetry_multiplicity
  _atom_site_fract_x
  _atom_site_fract_y
  _atom_site_fract_z
  _atom_site_occupancy
  Zn  Zn1       1.0  0.2694  0.72219  0.6359199999999999  1.0000
  Zn  Zn2       1.0  0.73049  0.7775300000000002  0.13474999999999998  1.0000
  Zn  Zn3       1.0  0.7306  0.27781  0.3640699999999999  1.0000
  Zn  Zn4       1.0  0.26952  0.22247  0.86525  1.0000
  H   H1        1.0  0.76752  0.74156  0.6669799999999999  1.0000
  H   H2        1.0  0.53553  0.6195699999999998  0.3855699999999999  1.0000
  H   H3        1.0  0.9501099999999999  0.59919  0.3982799999999999  1.0000
  H   H4        1.0  0.23404  0.75773  0.16633  1.0000
  H   H5        1.0  0.46424999999999994  0.87931  0.88467  1.0000
  H   H6        1.0  0.05039  0.90248  0.9001  1.0000
  H   H7        1.0  0.23246  0.25844  0.333  1.0000
  H   H8        1.0  0.46447000000000005  0.38042  0.6144099999999999  1.0000
  H   H9        1.0  0.04990000000000001  0.40081  0.60171  1.0000
  H   H10       1.0  0.76597  0.24226999999999999  0.8336699999999999  1.0000
  H   H11       1.0  0.53576  0.12069  0.11532  1.0000
  H   H12       1.0  0.94961  0.09752  0.09989999999999999  1.0000
  C   C1        1.0  0.0011599999999999976  0.69299  0.59657  1.0000
  C   C2        1.0  0.52068  0.71487  0.5844099999999999  1.0000
  C   C3        1.0  0.73238  0.54246  0.27472  1.0000
  C   C4        1.0  0.87243  0.6734  0.53782  1.0000
  C   C5        1.0  0.7601799999999999  0.70334  0.58647  1.0000
  C   C6        1.0  0.63923  0.68366  0.53191  1.0000
  C   C7        1.0  0.62992  0.63493  0.42798  1.0000
  C   C8        1.0  0.74197  0.60263  0.37989999999999996  1.0000
  C   C9        1.0  0.86277  0.62158  0.43532999999999994  1.0000
  C   C10       1.0  0.0014899999999999948  0.8089  0.09851999999999997  1.0000
  C   C11       1.0  0.48025999999999996  0.78463  0.08281  1.0000
  C   C12       1.0  0.26767  0.95779  0.7753799999999997  1.0000
  C   C13       1.0  0.12892  0.82719  0.03838  1.0000
  C   C14       1.0  0.24117999999999995  0.7964299999999999  0.08613  1.0000
  C   C15       1.0  0.36157  0.81598  0.031039999999999995  1.0000
  C   C16       1.0  0.3702599999999999  0.8648499999999999  0.9274599999999997  1.0000
  C   C17       1.0  0.25803  0.89764  0.8802099999999998  1.0000
  C   C18       1.0  0.13776999999999998  0.8791799999999999  0.9362  1.0000
  C   C19       1.0  0.9988  0.307  0.40347  1.0000
  C   C20       1.0  0.47932  0.28513  0.41556999999999994  1.0000
  C   C21       1.0  0.26762  0.45754000000000006  0.7252799999999999  1.0000
  C   C22       1.0  0.12755  0.32659  0.46217999999999987  1.0000
  C   C23       1.0  0.23981000000000002  0.29665  0.4135199999999999  1.0000
  C   C24       1.0  0.36077  0.31634  0.46807  1.0000
  C   C25       1.0  0.37007  0.36507  0.5720099999999999  1.0000
  C   C26       1.0  0.25803  0.39737000000000006  0.6201  1.0000
  C   C27       1.0  0.13723  0.37842  0.56467  1.0000
  C   C28       1.0  0.99852  0.1911  0.9014799999999997  1.0000
  C   C29       1.0  0.51975  0.21539  0.91719  1.0000
  C   C30       1.0  0.73234  0.04222  0.22462  1.0000
  C   C31       1.0  0.8710899999999998  0.17281  0.96162  1.0000
  C   C32       1.0  0.75883  0.20356  0.9138699999999997  1.0000
  C   C33       1.0  0.63844  0.18403  0.9689499999999998  1.0000
  C   C34       1.0  0.62975  0.13516  0.07254  1.0000
  C   C35       1.0  0.74197  0.10235999999999995  0.11978999999999997  1.0000
  C   C36       1.0  0.86223  0.12082000000000001  0.0638  1.0000
  N   N1        1.0  0.73967  0.41952000000000006  0.25781999999999994  1.0000
  N   N2        1.0  0.72717  0.39937  0.15179  1.0000
  N   N3        1.0  0.7159600000000002  0.50432  0.10486  1.0000
  N   N4        1.0  0.71685  0.59623  0.1804  1.0000
  N   N5        1.0  0.26081  0.08077  0.75876  1.0000
  N   N6        1.0  0.27444  0.10096999999999999  0.6529499999999998  1.0000
  N   N7        1.0  0.28581  0.99593  0.60579  1.0000
  N   N8        1.0  0.28414  0.90404  0.68106  1.0000
  N   N9        1.0  0.26034  0.58048  0.7421699999999999  1.0000
  N   N10       1.0  0.27284  0.60063  0.8482  1.0000
  N   N11       1.0  0.28405  0.49567000000000005  0.8951399999999998  1.0000
  N   N12       1.0  0.28315  0.40376999999999996  0.8196  1.0000
  N   N13       1.0  0.7391999999999999  0.91924  0.24123999999999995  1.0000
  N   N14       1.0  0.72557  0.89903  0.34704999999999997  1.0000
  N   N15       1.0  0.71419  0.00407  0.39421  1.0000
  N   N16       1.0  0.71586  0.09596  0.31894  1.0000
  O   O1        1.0  0.10662000000000002  0.68623  0.54305  1.0000
  O   O2        1.0  0.005730000000000017  0.7132  0.69503  1.0000
  O   O3        1.0  0.52804  0.76294  0.67626  1.0000
  O   O4        1.0  0.40796  0.68773  0.53405  1.0000
  O   O5        1.0  0.89586  0.81831  0.04631  1.0000
  O   O6        1.0  0.9993400000000001  0.7874999999999999  0.19666  1.0000
  O   O7        1.0  0.47367  0.74162  0.17611999999999997  1.0000
  O   O8        1.0  0.59172  0.80638  0.03099  1.0000
  O   O9        1.0  0.8933499999999999  0.31377  0.457  1.0000
  O   O10       1.0  0.99422  0.28681  0.30501  1.0000
  O   O11       1.0  0.47196000000000005  0.23706  0.32373  1.0000
  O   O12       1.0  0.59204  0.31228  0.4659399999999999  1.0000
  O   O13       1.0  0.10415  0.1817  0.9536899999999998  1.0000
  O   O14       1.0  0.0006699999999999872  0.21248999999999998  0.80334  1.0000
  O   O15       1.0  0.52635  0.25843  0.82389  1.0000
  O   O16       1.0  0.40829999999999994  0.19362000000000001  0.96901  1.0000
