data_image0
_chemical_formula_structural       Cu4H32C24N32O4
_chemical_formula_sum              "Cu4 H32 C24 N32 O4"
_cell_length_a       7.94248
_cell_length_b       12.4435
_cell_length_c       12.4432
_cell_angle_alpha    89.99586
_cell_angle_beta     90.0
_cell_angle_gamma    90.0

_symmetry_space_group_name_H-M    'P 1'
_symmetry_Int_Tables_number       1

loop_
  _symmetry_equiv_pos_as_xyz
  'x,y,z'

loop_
  _atom_site_type_symbol
  _atom_site_label
  _atom_site_symmetry_multiplicity
  _atom_site_fract_x
  _atom_site_fract_y
  _atom_site_fract_z
  _atom_site_occupancy
  Cu  Cu1       1.0  0.34883  0.3234899999999999  0.0145  1.0000
  Cu  Cu2       1.0  0.84882  0.67651  0.9855099999999999  1.0000
  Cu  Cu3       1.0  0.09887000000000003  0.98546  0.3235  1.0000
  Cu  Cu4       1.0  0.59887  0.01454  0.67651  1.0000
  H   H1        1.0  0.4592600000000001  0.04744999999999999  0.22952  1.0000
  H   H2        1.0  0.499  0.09338  0.09765  1.0000
  H   H3        1.0  0.68503  0.18138999999999997  0.23062  1.0000
  H   H4        1.0  0.50511  0.23500999999999994  0.30023  1.0000
  H   H5        1.0  0.66111  0.39048  0.27002  1.0000
  H   H6        1.0  0.79466  0.3598199999999999  0.15822  1.0000
  H   H7        1.0  0.70439  0.55207  0.1596  1.0000
  H   H8        1.0  0.48897  0.5128499999999999  0.16179  1.0000
  H   H9        1.0  0.95926  0.9525499999999999  0.77048  1.0000
  H   H10       1.0  0.9990000000000001  0.90662  0.9023500000000001  1.0000
  H   H11       1.0  0.18503  0.81861  0.76938  1.0000
  H   H12       1.0  0.00511  0.7649899999999997  0.69977  1.0000
  H   H13       1.0  0.16111  0.60952  0.72998  1.0000
  H   H14       1.0  0.29466  0.64018  0.84179  1.0000
  H   H15       1.0  0.20439  0.4479199999999999  0.84041  1.0000
  H   H16       1.0  0.98897  0.48714999999999997  0.83822  1.0000
  H   H17       1.0  0.20938  0.7704799999999999  0.047470000000000005  1.0000
  H   H18       1.0  0.24905  0.90237  0.09334  1.0000
  H   H19       1.0  0.4350700000000001  0.7693899999999998  0.18141  1.0000
  H   H20       1.0  0.25513  0.6998299999999997  0.23511  1.0000
  H   H21       1.0  0.4111100000000001  0.73  0.39046000000000003  1.0000
  H   H22       1.0  0.54478  0.8417799999999998  0.35985  1.0000
  H   H23       1.0  0.4543300000000001  0.8403999999999998  0.55212  1.0000
  H   H24       1.0  0.23895  0.8382299999999998  0.51274  1.0000
  H   H25       1.0  0.70938  0.22951999999999995  0.9525300000000001  1.0000
  H   H26       1.0  0.7490500000000002  0.09763  0.9066600000000001  1.0000
  H   H27       1.0  0.93507  0.23061  0.8185900000000002  1.0000
  H   H28       1.0  0.75513  0.30017  0.7648900000000001  1.0000
  H   H29       1.0  0.91111  0.27  0.60954  1.0000
  H   H30       1.0  0.04478  0.15822  0.64015  1.0000
  H   H31       1.0  0.95433  0.1596  0.44789  1.0000
  H   H32       1.0  0.7389500000000002  0.16177  0.48727  1.0000
  C   C1        1.0  0.26607  0.1456  0.16329999999999997  1.0000
  C   C2        1.0  0.44733  0.11745  0.17621  1.0000
  C   C3        1.0  0.55436  0.20893  0.22186  1.0000
  C   C4        1.0  0.66618  0.3830399999999999  0.18186  1.0000
  C   C5        1.0  0.6147300000000002  0.49064999999999986  0.13182  1.0000
  C   C6        1.0  0.61227  0.48906  0.011990000000000002  1.0000
  C   C7        1.0  0.76607  0.8543899999999998  0.83671  1.0000
  C   C8        1.0  0.94733  0.8825499999999997  0.8238  1.0000
  C   C9        1.0  0.05436  0.79106  0.77815  1.0000
  C   C10       1.0  0.16618000000000005  0.61696  0.81815  1.0000
  C   C11       1.0  0.11473  0.50934  0.86818  1.0000
  C   C12       1.0  0.11227  0.51094  0.98802  1.0000
  C   C13       1.0  0.01616  0.8367  0.1456  1.0000
  C   C14       1.0  0.19742  0.82381  0.11744  1.0000
  C   C15       1.0  0.30442000000000013  0.7781799999999998  0.20896  1.0000
  C   C16       1.0  0.41627  0.81817  0.38304  1.0000
  C   C17       1.0  0.36476  0.8682  0.49065  1.0000
  C   C18       1.0  0.3623  0.98803  0.48906  1.0000
  C   C19       1.0  0.51616  0.16329999999999997  0.8544  1.0000
  C   C20       1.0  0.69742  0.17619  0.88256  1.0000
  C   C21       1.0  0.80442  0.22181999999999996  0.79104  1.0000
  C   C22       1.0  0.91627  0.18183  0.61696  1.0000
  C   C23       1.0  0.86476  0.13179999999999997  0.50936  1.0000
  C   C24       1.0  0.8623000000000002  0.01196  0.51094  1.0000
  N   N1        1.0  0.20819  0.22434999999999994  0.09959  1.0000
  N   N2        1.0  0.0382  0.22596999999999995  0.10739  1.0000
  N   N3        1.0  0.9924  0.15  0.17415999999999998  1.0000
  N   N4        1.0  0.1329  0.09876  0.21061  1.0000
  N   N5        1.0  0.51711  0.4229  0.95218  1.0000
  N   N6        1.0  0.54943  0.44459  0.84709  1.0000
  N   N7        1.0  0.66094  0.52225  0.84279  1.0000
  N   N8        1.0  0.70229  0.55102  0.945  1.0000
  N   N9        1.0  0.70819  0.77565  0.90042  1.0000
  N   N10       1.0  0.5382  0.7740299999999998  0.89261  1.0000
  N   N11       1.0  0.4924  0.8499999999999999  0.82585  1.0000
  N   N12       1.0  0.6329  0.9012399999999999  0.7894  1.0000
  N   N13       1.0  0.01711  0.5771  0.047830000000000004  1.0000
  N   N14       1.0  0.04943  0.5554099999999998  0.15291  1.0000
  N   N15       1.0  0.16094  0.47775  0.15721  1.0000
  N   N16       1.0  0.2023  0.4489799999999999  0.055  1.0000
  N   N17       1.0  0.9582900000000002  0.90035  0.22438  1.0000
  N   N18       1.0  0.78831  0.8925499999999997  0.22601  1.0000
  N   N19       1.0  0.74249  0.82584  0.15002  1.0000
  N   N20       1.0  0.8829800000000002  0.78942  0.09874  1.0000
  N   N21       1.0  0.2671  0.04785  0.42292  1.0000
  N   N22       1.0  0.29935  0.15293  0.44463  1.0000
  N   N23       1.0  0.41089  0.15723999999999996  0.52228  1.0000
  N   N24       1.0  0.4523100000000001  0.05503  0.55102  1.0000
  N   N25       1.0  0.4583  0.09964999999999997  0.7756199999999999  1.0000
  N   N26       1.0  0.2883100000000001  0.10743999999999997  0.77399  1.0000
  N   N27       1.0  0.24249  0.17415  0.84999  1.0000
  N   N28       1.0  0.38298  0.21058  0.90126  1.0000
  N   N29       1.0  0.76709  0.9521499999999999  0.57708  1.0000
  N   N30       1.0  0.7993500000000002  0.8470599999999999  0.55538  1.0000
  N   N31       1.0  0.91089  0.8427599999999997  0.47773  1.0000
  N   N32       1.0  0.95231  0.94497  0.44898000000000005  1.0000
  O   O1        1.0  0.55054  0.29935999999999996  0.14836  1.0000
  O   O2        1.0  0.05054  0.7006399999999998  0.8516400000000001  1.0000
  O   O3        1.0  0.30069  0.85172  0.29933  1.0000
  O   O4        1.0  0.80069  0.14828  0.70067  1.0000
