data_image0
_chemical_formula_structural       Nd2Cu2H14C30N4O20
_chemical_formula_sum              "Nd2 Cu2 H14 C30 N4 O20"
_cell_length_a       8.55157
_cell_length_b       9.38835
_cell_length_c       14.28077
_cell_angle_alpha    83.37793
_cell_angle_beta     75.76375
_cell_angle_gamma    66.07741

_symmetry_space_group_name_H-M    'P 1'
_symmetry_Int_Tables_number       1

loop_
  _symmetry_equiv_pos_as_xyz
  'x,y,z'

loop_
  _atom_site_type_symbol
  _atom_site_label
  _atom_site_symmetry_multiplicity
  _atom_site_fract_x
  _atom_site_fract_y
  _atom_site_fract_z
  _atom_site_occupancy
  Nd  Nd1       1.0  0.03843  0.20791000000000004  0.6372  1.0000
  Nd  Nd2       1.0  0.96207  0.79229  0.36093  1.0000
  Cu  Cu1       1.0  0.41501000000000005  0.38479  0.94537  1.0000
  Cu  Cu2       1.0  0.58462  0.6152500000000002  0.0543  1.0000
  H   H1        1.0  0.71643  0.30743  0.14912999999999998  1.0000
  H   H2        1.0  0.99784  0.06323  0.11681  1.0000
  H   H3        1.0  0.5093999999999999  0.9003800000000001  0.92353  1.0000
  H   H4        1.0  0.07291999999999997  0.51193  0.75948  1.0000
  H   H5        1.0  0.6630899999999998  0.9695800000000001  0.76118  1.0000
  H   H6        1.0  0.9502100000000002  0.76619  0.67925  1.0000
  H   H7        1.0  0.2165  0.054200000000000005  0.96486  1.0000
  H   H8        1.0  0.28267999999999993  0.69225  0.85022  1.0000
  H   H9        1.0  0.0017099999999999496  0.9372400000000001  0.88272  1.0000
  H   H10       1.0  0.49047999999999997  0.10018  0.0765  1.0000
  H   H11       1.0  0.92621  0.48837  0.23996999999999993  1.0000
  H   H12       1.0  0.33667  0.031200000000000002  0.23911  1.0000
  H   H13       1.0  0.04905999999999998  0.23442000000000002  0.32051  1.0000
  H   H14       1.0  0.7842199999999999  0.9470700000000001  0.03545  1.0000
  C   C1        1.0  0.95477  0.47281  0.46926  1.0000
  C   C2        1.0  0.9110599999999999  0.41899  0.94071  1.0000
  C   C3        1.0  0.8563499999999997  0.56783  0.88516  1.0000
  C   C4        1.0  0.6754499999999999  0.3877  0.79249  1.0000
  C   C5        1.0  0.74196  0.22368  0.83941  1.0000
  C   C6        1.0  0.82014  0.29499  0.08483  1.0000
  C   C7        1.0  0.97288  0.16143000000000005  0.06583  1.0000
  C   C8        1.0  0.63397  0.81822  0.88417  1.0000
  C   C9        1.0  0.9492900000000001  0.59877  0.79571  1.0000
  C   C10       1.0  0.71984  0.8555100000000002  0.7946199999999999  1.0000
  C   C11       1.0  0.87967  0.74316  0.74994  1.0000
  C   C12       1.0  0.06707000000000003  0.28554  0.91624  1.0000
  C   C13       1.0  0.21285000000000004  0.26207  0.8268299999999998  1.0000
  C   C14       1.0  0.09552999999999998  0.15781  0.98102  1.0000
  C   C15       1.0  0.9052899999999999  0.02356  0.52268  1.0000
  C   C16       1.0  0.045099999999999967  0.52895  0.53014  1.0000
  C   C17       1.0  0.08892999999999997  0.5815800000000001  0.0591  1.0000
  C   C18       1.0  0.14366999999999996  0.43282  0.11478  1.0000
  C   C19       1.0  0.32552  0.61492  0.20828  1.0000
  C   C20       1.0  0.25856000000000007  0.77851  0.16071  1.0000
  C   C21       1.0  0.17925999999999984  0.70524  0.91472  1.0000
  C   C22       1.0  0.026929999999999975  0.83917  0.93383  1.0000
  C   C23       1.0  0.36599000000000004  0.18239  0.11593  1.0000
  C   C24       1.0  0.05042999999999998  0.40183  0.20411  1.0000
  C   C25       1.0  0.28008000000000005  0.14519  0.20550999999999997  1.0000
  C   C26       1.0  0.12004000000000004  0.2575  0.24997  1.0000
  C   C27       1.0  0.9331699999999999  0.7152300000000003  0.08351  1.0000
  C   C28       1.0  0.78739  0.73853  0.17276  1.0000
  C   C29       1.0  0.9047899999999998  0.8431800000000003  0.01893  1.0000
  C   C30       1.0  0.10302  0.97785  0.47297  1.0000
  N   N1        1.0  0.79265  0.41847  0.024209999999999995  1.0000
  N   N2        1.0  0.6995099999999997  0.67874  0.92771  1.0000
  N   N3        1.0  0.20704999999999998  0.58189  0.97548  1.0000
  N   N4        1.0  0.30052  0.32183  0.07232  1.0000
  O   O1        1.0  0.9473  0.3408100000000001  0.49091999999999997  1.0000
  O   O2        1.0  0.6477699999999997  0.20081  0.91996  1.0000
  O   O3        1.0  0.5316500000000001  0.4873200000000001  0.83836  1.0000
  O   O4        1.0  0.76848  0.41426  0.71507  1.0000
  O   O5        1.0  0.19688000000000005  0.20763  0.75338  1.0000
  O   O6        1.0  0.88626  0.1261  0.79595  1.0000
  O   O7        1.0  0.34432999999999997  0.28532  0.83311  1.0000
  O   O8        1.0  0.89541  0.5637  0.40183  1.0000
  O   O9        1.0  0.8525900000000001  0.08736000000000002  0.6040299999999997  1.0000
  O   O10       1.0  0.8127900000000002  0.9918600000000001  0.4772899999999999  1.0000
  O   O11       1.0  0.04814999999999992  0.66289  0.5094  1.0000
  O   O12       1.0  0.35273999999999994  0.80002  0.07991  1.0000
  O   O13       1.0  0.46670999999999996  0.51385  0.16151  1.0000
  O   O14       1.0  0.23445999999999995  0.58981  0.28709  1.0000
  O   O15       1.0  0.8026500000000001  0.79538  0.24555999999999997  1.0000
  O   O16       1.0  0.11378  0.87672  0.20355  1.0000
  O   O17       1.0  0.65703  0.71302  0.16717  1.0000
  O   O18       1.0  0.10723999999999995  0.43717  0.59638  1.0000
  O   O19       1.0  0.15625999999999995  0.90961  0.3932899999999999  1.0000
  O   O20       1.0  0.19430999999999998  0.014270000000000003  0.51715  1.0000
