data_image0
_chemical_formula_structural       Gd2H12C24O12
_chemical_formula_sum              "Gd2 H12 C24 O12"
_cell_length_a       9.22419
_cell_length_b       10.3675
_cell_length_c       11.37262
_cell_angle_alpha    57.895979999999994
_cell_angle_beta     75.91358
_cell_angle_gamma    76.14942

_space_group_name_H-M_alt    "P 1"
_space_group_IT_number       1

loop_
  _space_group_symop_operation_xyz
  'x, y, z'

loop_
  _atom_site_type_symbol
  _atom_site_label
  _atom_site_symmetry_multiplicity
  _atom_site_fract_x
  _atom_site_fract_y
  _atom_site_fract_z
  _atom_site_occupancy
  Gd  Gd1       1.0  0.040510000000000025  0.39741  0.69571  1.0000
  Gd  Gd2       1.0  0.9594899999999998  0.60259  0.30428  1.0000
  H   H1        1.0  0.05139000000000001  0.90667  0.73924  1.0000
  H   H2        1.0  0.97717  0.27974000000000004  0.32429  1.0000
  H   H3        1.0  0.51005  0.35679000000000005  0.87897  1.0000
  H   H4        1.0  0.7275499999999999  0.60969  0.96933  1.0000
  H   H5        1.0  0.23765999999999998  0.011950000000000002  0.12249  1.0000
  H   H6        1.0  0.55778  0.19665000000000002  0.74859  1.0000
  H   H7        1.0  0.9486100000000001  0.09334  0.26076  1.0000
  H   H8        1.0  0.02282999999999995  0.7202600000000001  0.67571  1.0000
  H   H9        1.0  0.48993999999999993  0.64322  0.12103  1.0000
  H   H10       1.0  0.27245  0.39032  0.030660000000000003  1.0000
  H   H11       1.0  0.76234  0.9880600000000002  0.87751  1.0000
  H   H12       1.0  0.44221  0.80335  0.25141  1.0000
  C   C1        1.0  0.019949999999999978  0.21102999999999997  0.5852  1.0000
  C   C2        1.0  0.012180000000000002  0.1046  0.5375  1.0000
  C   C3        1.0  0.028870000000000055  0.94581  0.63518  1.0000
  C   C4        1.0  0.9837499999999999  0.15806000000000003  0.40219  1.0000
  C   C5        1.0  0.77076  0.45815999999999996  0.83031  1.0000
  C   C6        1.0  0.6309399999999997  0.48117  0.91668  1.0000
  C   C7        1.0  0.50369  0.41924999999999996  0.93247  1.0000
  C   C8        1.0  0.6269100000000001  0.5629  0.98396  1.0000
  C   C9        1.0  0.26703  0.23536999999999994  0.85149  1.0000
  C   C10       1.0  0.38786999999999994  0.11448999999999993  0.9287200000000001  1.0000
  C   C11       1.0  0.3525499999999999  0.005710000000000001  0.07097  1.0000
  C   C12       1.0  0.53497  0.10939999999999996  0.8581200000000001  1.0000
  C   C13       1.0  0.98007  0.78897  0.4148  1.0000
  C   C14       1.0  0.9878199999999999  0.8954  0.4625  1.0000
  C   C15       1.0  0.97113  0.05419999999999998  0.36482000000000003  1.0000
  C   C16       1.0  0.01625000000000002  0.84194  0.59781  1.0000
  C   C17       1.0  0.22924000000000003  0.5418499999999999  0.16968000000000003  1.0000
  C   C18       1.0  0.36906000000000005  0.51883  0.08331000000000001  1.0000
  C   C19       1.0  0.49631  0.58075  0.06752  1.0000
  C   C20       1.0  0.3730799999999999  0.43711000000000005  0.01603  1.0000
  C   C21       1.0  0.7329599999999998  0.7646400000000001  0.14851  1.0000
  C   C22       1.0  0.6121300000000003  0.8855199999999999  0.07128000000000001  1.0000
  C   C23       1.0  0.6474399999999999  0.9942899999999999  0.92903  1.0000
  C   C24       1.0  0.4650200000000001  0.8905999999999997  0.14188  1.0000
  O   O1        1.0  0.98523  0.36011999999999994  0.5067900000000001  1.0000
  O   O2        1.0  0.059159999999999976  0.15895000000000004  0.70306  1.0000
  O   O3        1.0  0.77939  0.37604999999999983  0.7744500000000001  1.0000
  O   O4        1.0  0.8869399999999998  0.5187400000000001  0.81345  1.0000
  O   O5        1.0  0.13114999999999996  0.23882000000000006  0.91331  1.0000
  O   O6        1.0  0.29785000000000006  0.33501000000000003  0.7204  1.0000
  O   O7        1.0  0.014829999999999958  0.6398800000000001  0.4932000000000001  1.0000
  O   O8        1.0  0.9408299999999999  0.84105  0.29695  1.0000
  O   O9        1.0  0.2205999999999999  0.62397  0.22553  1.0000
  O   O10       1.0  0.11306000000000001  0.4812699999999999  0.18654000000000004  1.0000
  O   O11       1.0  0.86885  0.7611899999999999  0.08669000000000002  1.0000
  O   O12       1.0  0.7021499999999999  0.6649899999999999  0.27959  1.0000
