data_image0
_chemical_formula_structural       Lu4P4H28C20N4O28
_chemical_formula_sum              "Lu4 P4 H28 C20 N4 O28"
_cell_length_a       8.86491
_cell_length_b       9.48412
_cell_length_c       14.65989
_cell_angle_alpha    89.89162000000002
_cell_angle_beta     90.4136
_cell_angle_gamma    89.94942

_symmetry_space_group_name_H-M    'P 1'
_symmetry_Int_Tables_number       1

loop_
  _symmetry_equiv_pos_as_xyz
  'x,y,z'

loop_
  _atom_site_type_symbol
  _atom_site_label
  _atom_site_symmetry_multiplicity
  _atom_site_fract_x
  _atom_site_fract_y
  _atom_site_fract_z
  _atom_site_occupancy
  Lu  Lu1       1.0  0.37795  0.05075  0.39133  1.0000
  Lu  Lu2       1.0  0.62892  0.44237  0.89104  1.0000
  Lu  Lu3       1.0  0.87102  0.9424600000000001  0.10874  1.0000
  Lu  Lu4       1.0  0.12211  0.5573299999999999  0.60442  1.0000
  P   P1        1.0  0.06267999999999999  0.13564  0.28473  1.0000
  P   P2        1.0  0.93891  0.36187  0.78245  1.0000
  P   P3        1.0  0.56018  0.8602599999999999  0.21339  1.0000
  P   P4        1.0  0.43802  0.63553  0.71312  1.0000
  H   H1        1.0  0.2553  0.14595  0.1749  1.0000
  H   H2        1.0  0.17077  0.31649  0.18285  1.0000
  H   H3        1.0  0.20805  0.45432000000000006  0.30756  1.0000
  H   H4        1.0  0.39152  0.45713  0.3524300000000001  1.0000
  H   H5        1.0  0.4898  0.38783  0.207  1.0000
  H   H6        1.0  0.49318999999999996  0.2031  0.18780000000000002  1.0000
  H   H7        1.0  0.87102  0.27626  0.32686  1.0000
  H   H8        1.0  0.7413399999999999  0.34847  0.67324  1.0000
  H   H9        1.0  0.82873  0.17942  0.68215  1.0000
  H   H10       1.0  0.79461  0.04123  0.80832  1.0000
  H   H11       1.0  0.61041  0.0381  0.85119  1.0000
  H   H12       1.0  0.50904  0.10955  0.70644  1.0000
  H   H13       1.0  0.50557  0.29454  0.68796  1.0000
  H   H14       1.0  0.13199  0.22049999999999997  0.82472  1.0000
  H   H15       1.0  0.7549  0.8502899999999999  0.32274  1.0000
  H   H16       1.0  0.67096  0.67964  0.31524  1.0000
  H   H17       1.0  0.70498  0.54256  0.19034000000000006  1.0000
  H   H18       1.0  0.88918  0.5373899999999999  0.14743  1.0000
  H   H19       1.0  0.9918499999999999  0.61014  0.29181  1.0000
  H   H20       1.0  0.99337  0.79532  0.31002  1.0000
  H   H21       1.0  0.36737  0.72068  0.17091  1.0000
  H   H22       1.0  0.24506  0.64498  0.82198  1.0000
  H   H23       1.0  0.33019  0.8153  0.81553  1.0000
  H   H24       1.0  0.29297  0.9560299999999999  0.69135  1.0000
  H   H25       1.0  0.10977  0.95894  0.64566  1.0000
  H   H26       1.0  0.01182  0.88742  0.79125  1.0000
  H   H27       1.0  0.007889999999999998  0.70228  0.80863  1.0000
  H   H28       1.0  0.63022  0.77664  0.6716100000000002  1.0000
  C   C1        1.0  0.21199  0.22547  0.22251000000000007  1.0000
  C   C2        1.0  0.29245  0.38875999999999994  0.34267  1.0000
  C   C3        1.0  0.23945999999999998  0.35015  0.4382  1.0000
  C   C4        1.0  0.48089000000000004  0.28445  0.24079  1.0000
  C   C5        1.0  0.61191  0.25992999999999994  0.30729  1.0000
  C   C6        1.0  0.78779  0.27054  0.7214  1.0000
  C   C7        1.0  0.7097  0.10635  0.84233  1.0000
  C   C8        1.0  0.76196  0.14375  0.9384  1.0000
  C   C9        1.0  0.51923  0.21233999999999997  0.74056  1.0000
  C   C10       1.0  0.38966  0.23561999999999997  0.80691  1.0000
  C   C11       1.0  0.71141  0.77028  0.27523  1.0000
  C   C12       1.0  0.79036  0.60641  0.15561  1.0000
  C   C13       1.0  0.73803  0.64471  0.05938  1.0000
  C   C14       1.0  0.9811  0.7129599999999999  0.25756  1.0000
  C   C15       1.0  0.11134  0.73677  0.19153  1.0000
  C   C16       1.0  0.28891  0.72538  0.7750500000000001  1.0000
  C   C17       1.0  0.2094  0.89097  0.65547  1.0000
  C   C18       1.0  0.26368  0.8536400000000001  0.56009  1.0000
  C   C19       1.0  0.02021  0.7850599999999999  0.75644  1.0000
  C   C20       1.0  0.88867  0.76328  0.69006  1.0000
  N   N1        1.0  0.33491  0.26362  0.28708  1.0000
  N   N2        1.0  0.66689  0.23197999999999996  0.78656  1.0000
  N   N3        1.0  0.83348  0.73195  0.21101  1.0000
  N   N4        1.0  0.16646  0.76502  0.7103  1.0000
  O   O1        1.0  0.28466  0.23538  0.47294  1.0000
  O   O2        1.0  0.1574  0.44056  0.47928  1.0000
  O   O3        1.0  0.73283  0.3257  0.29148  1.0000
  O   O4        1.0  0.59091  0.17153  0.37243  1.0000
  O   O5        1.0  0.98111  0.24257  0.3487  1.0000
  O   O6        1.0  0.9532399999999999  0.0749  0.21418  1.0000
  O   O7        1.0  0.14828  0.025589999999999998  0.34181000000000006  1.0000
  O   O8        1.0  0.71704  0.25795  0.9731500000000002  1.0000
  O   O9        1.0  0.84294  0.05311  0.98083  1.0000
  O   O10       1.0  0.26817  0.17093  0.7895000000000002  1.0000
  O   O11       1.0  0.41174  0.32143  0.87311  1.0000
  O   O12       1.0  0.02186  0.25419  0.84588  1.0000
  O   O13       1.0  0.04569000000000001  0.42293  0.7113600000000002  1.0000
  O   O14       1.0  0.85619  0.47113999999999995  0.84101  1.0000
  O   O15       1.0  0.78365  0.75835  0.02428  1.0000
  O   O16       1.0  0.65455  0.55518  0.018  1.0000
  O   O17       1.0  0.23253  0.6711199999999999  0.20844  1.0000
  O   O18       1.0  0.08947  0.8241199999999999  0.12593  1.0000
  O   O19       1.0  0.47723  0.7546999999999999  0.14912000000000003  1.0000
  O   O20       1.0  0.45358  0.91811  0.28553  1.0000
  O   O21       1.0  0.64238  0.97127  0.15589  1.0000
  O   O22       1.0  0.214  0.7421699999999999  0.52315  1.0000
  O   O23       1.0  0.3503  0.9420599999999999  0.52068  1.0000
  O   O24       1.0  0.7677  0.8273799999999999  0.70807  1.0000
  O   O25       1.0  0.9093800000000001  0.67874  0.62284  1.0000
  O   O26       1.0  0.52097  0.7425499999999999  0.64973  1.0000
  O   O27       1.0  0.54572  0.57421  0.78466  1.0000
  O   O28       1.0  0.35203  0.52791  0.65468  1.0000
