data_image0
_chemical_formula_structural       Sc4H16C32O20
_chemical_formula_sum              "Sc4 H16 C32 O20"
_cell_length_a       12.50491
_cell_length_b       12.612780000000003
_cell_length_c       12.595289999999999
_cell_angle_alpha    75.73022
_cell_angle_beta     60.179159999999996
_cell_angle_gamma    60.27648000000001

_space_group_name_H-M_alt    "P 1"
_space_group_IT_number       1

loop_
  _space_group_symop_operation_xyz
  'x, y, z'

loop_
  _atom_site_type_symbol
  _atom_site_label
  _atom_site_symmetry_multiplicity
  _atom_site_fract_x
  _atom_site_fract_y
  _atom_site_fract_z
  _atom_site_occupancy
  Sc  Sc1       1.0  0.18365000000000006  0.00015  0.63137  1.0000
  Sc  Sc2       1.0  0.81623  0.00012999999999999996  0.36549  1.0000
  Sc  Sc3       1.0  0.4335200000000002  0.13217  0.49868  1.0000
  Sc  Sc4       1.0  0.06603000000000003  0.8677899999999998  0.49888  1.0000
  H   H1        1.0  0.5498500000000003  0.6884299999999999  0.55984  1.0000
  H   H2        1.0  0.7972300000000002  0.31161  0.4428099999999999  1.0000
  H   H3        1.0  0.48877  0.06041  0.8102999999999999  1.0000
  H   H4        1.0  0.3626500000000001  0.9375599999999997  0.18606999999999999  1.0000
  H   H5        1.0  0.70207  0.93687  0.81109  1.0000
  H   H6        1.0  0.45036  0.0629  0.18579  1.0000
  H   H7        1.0  0.76051  0.6880099999999999  0.44042  1.0000
  H   H8        1.0  0.88881  0.31219  0.56071  1.0000
  H   H9        1.0  0.37699999999999995  0.49956  0.50103  1.0000
  H   H10       1.0  0.1275600000000001  0.9999399999999999  0.9996299999999999  1.0000
  H   H11       1.0  0.87239  0.0008299999999999999  0.99913  1.0000
  H   H12       1.0  0.12222999999999998  0.50019  0.49904  1.0000
  H   H13       1.0  0.4279100000000002  0.9480699999999997  0.43549999999999994  1.0000
  H   H14       1.0  0.6287500000000003  0.9319799999999999  0.5414999999999999  1.0000
  H   H15       1.0  0.12585  0.05647  0.44045  1.0000
  H   H16       1.0  0.8242500000000001  0.06456999999999999  0.54512  1.0000
  C   C1        1.0  0.32264  0.72236  0.55676  1.0000
  C   C2        1.0  0.5636700000000002  0.60536  0.53265  1.0000
  C   C3        1.0  0.45227  0.60615  0.53059  1.0000
  C   C4        1.0  0.602  0.27692  0.44534  1.0000
  C   C5        1.0  0.70056  0.39447  0.47027  1.0000
  C   C6        1.0  0.5881200000000002  0.39320999999999995  0.4723799999999999  1.0000
  C   C7        1.0  0.29363  0.05913999999999999  0.77721  1.0000
  C   C8        1.0  0.41995  0.03237  0.89329  1.0000
  C   C9        1.0  0.30890000000000006  0.030729999999999993  0.8927499999999999  1.0000
  C   C10       1.0  0.13266  0.9392299999999999  0.22056  1.0000
  C   C11       1.0  0.3480200000000002  0.9664499999999999  0.10354  1.0000
  C   C12       1.0  0.23433  0.96836  0.10482  1.0000
  C   C13       1.0  0.929390000000001  0.9395699999999998  0.77764  1.0000
  C   C14       1.0  0.6872500000000001  0.9659999999999999  0.8937799999999999  1.0000
  C   C15       1.0  0.7985200000000005  0.9682299999999999  0.8931499999999999  1.0000
  C   C16       1.0  0.64547  0.06315  0.21993999999999997  1.0000
  C   C17       1.0  0.54795  0.03359  0.10351999999999999  1.0000
  C   C18       1.0  0.66017  0.03225  0.10473  1.0000
  C   C19       1.0  0.9541599999999999  0.72256  0.4418099999999999  1.0000
  C   C20       1.0  0.8294400000000003  0.60536  0.46832  1.0000
  C   C21       1.0  0.9402200000000004  0.6064699999999998  0.46974  1.0000
  C   C22       1.0  0.11912000000000009  0.27817  0.55735  1.0000
  C   C23       1.0  0.9027099999999999  0.39502  0.53252  1.0000
  C   C24       1.0  0.016420000000000035  0.39406  0.53002  1.0000
  C   C25       1.0  0.6897400000000002  0.5000099999999998  0.50135  1.0000
  C   C26       1.0  0.4637100000000001  0.49960999999999994  0.50142  1.0000
  C   C27       1.0  0.4417299999999999  0.99943  0.99833  1.0000
  C   C28       1.0  0.21488  0.9997599999999999  0.99905  1.0000
  C   C29       1.0  0.56012  0.9995  0.99855  1.0000
  C   C30       1.0  0.7857400000000002  0.00032  0.9990599999999998  1.0000
  C   C31       1.0  0.8082999999999999  0.50017  0.50074  1.0000
  C   C32       1.0  0.03504000000000011  0.5002499999999999  0.49952999999999986  1.0000
  O   O1        1.0  0.30573000000000006  0.80834  0.60844  1.0000
  O   O2        1.0  0.23847000000000002  0.7290599999999999  0.52332  1.0000
  O   O3        1.0  0.72329  0.19065  0.3957899999999999  1.0000
  O   O4        1.0  0.49191000000000007  0.27018  0.4756099999999999  1.0000
  O   O5        1.0  0.36299999999999993  0.11057999999999998  0.69089  1.0000
  O   O6        1.0  0.21415  0.02774  0.77123  1.0000
  O   O7        1.0  0.16793999999999998  0.889  0.30656  1.0000
  O   O8        1.0  0.016110000000000024  0.96861  0.22694  1.0000
  O   O9        1.0  0.94554  0.88919  0.6911299999999999  1.0000
  O   O10       1.0  0.01559000000000011  0.9697499999999998  0.772  1.0000
  O   O11       1.0  0.52402  0.11257  0.30618  1.0000
  O   O12       1.0  0.7552900000000002  0.03622  0.22573  1.0000
  O   O13       1.0  0.8832399999999999  0.80872  0.3916  1.0000
  O   O14       1.0  0.03395999999999996  0.72921  0.4721099999999999  1.0000
  O   O15       1.0  0.08422  0.19212999999999994  0.60884  1.0000
  O   O16       1.0  0.2364  0.27172  0.5249  1.0000
  O   O17       1.0  0.12265999999999998  0.9960599999999998  0.50526  1.0000
  O   O18       1.0  0.62544  0.00298  0.48903  1.0000
  O   O19       1.0  0.3696100000000001  0.00508  0.50322  1.0000
  O   O20       1.0  0.8815400000000008  0.99415  0.49168  1.0000
