data_image0
_chemical_formula_structural       K2Cd2H4Ru4C8O26
_chemical_formula_sum              "K2 Cd2 H4 Ru4 C8 O26"
_cell_length_a       9.2389
_cell_length_b       9.139409999999998
_cell_length_c       10.30708
_cell_angle_alpha    83.02721
_cell_angle_beta     90.75402
_cell_angle_gamma    67.90509999999999

_symmetry_space_group_name_H-M    'P 1'
_symmetry_Int_Tables_number       1

loop_
  _symmetry_equiv_pos_as_xyz
  'x,y,z'

loop_
  _atom_site_type_symbol
  _atom_site_label
  _atom_site_symmetry_multiplicity
  _atom_site_fract_x
  _atom_site_fract_y
  _atom_site_fract_z
  _atom_site_occupancy
  K   K1        1.0  0.52209  0.47425  0.99716  1.0000
  K   K2        1.0  0.9557399999999999  0.59467  0.48773  1.0000
  Cd  Cd1       1.0  0.53292  0.022940000000000023  0.8007699999999999  1.0000
  Cd  Cd2       1.0  0.49407  0.9085  0.17615  1.0000
  H   H1        1.0  0.7237  0.21147  0.8636999999999999  1.0000
  H   H2        1.0  0.71305  0.08223999999999995  0.9818700000000001  1.0000
  H   H3        1.0  0.29786999999999997  0.73491  0.13982  1.0000
  H   H4        1.0  0.2861799999999999  0.8584200000000002  0.0112  1.0000
  Ru  Ru1       1.0  0.59182  0.4664400000000001  0.58897  1.0000
  Ru  Ru2       1.0  0.94769  0.39778  0.13545  1.0000
  Ru  Ru3       1.0  0.39601  0.55655  0.42149  1.0000
  Ru  Ru4       1.0  0.07102999999999998  0.5678  0.8809900000000002  1.0000
  C   C1        1.0  0.41029999999999994  0.26257  0.56858  1.0000
  C   C2        1.0  0.70002  0.3897  0.31365  1.0000
  C   C3        1.0  0.2516  0.21218000000000004  0.9993199999999999  1.0000
  C   C4        1.0  0.85396  0.41313000000000005  0.81718  1.0000
  C   C5        1.0  0.57163  0.76387  0.4334  1.0000
  C   C6        1.0  0.25704000000000005  0.65551  0.6667  1.0000
  C   C7        1.0  0.7935299999999998  0.76155  0.04545  1.0000
  C   C8        1.0  0.16122  0.57232  0.18048  1.0000
  O   O1        1.0  0.77881  0.32292  0.21646000000000004  1.0000
  O   O2        1.0  0.36266  0.15499000000000002  0.61097  1.0000
  O   O3        1.0  0.53718  0.26993  0.62521  1.0000
  O   O4        1.0  0.33373  0.3708  0.46867999999999993  1.0000
  O   O5        1.0  0.76782  0.40564000000000006  0.4156099999999999  1.0000
  O   O6        1.0  0.54701  0.43891  0.29276  1.0000
  O   O7        1.0  0.7701699999999999  0.3554900000000001  0.75498  1.0000
  O   O8        1.0  0.1694  0.22226000000000004  0.10136  1.0000
  O   O9        1.0  0.21414999999999998  0.31886999999999993  0.8966500000000001  1.0000
  O   O10       1.0  0.8757  0.37065000000000015  0.94353  1.0000
  O   O11       1.0  0.9123100000000001  0.50931  0.75718  1.0000
  O   O12       1.0  0.37910999999999995  0.08653  0.99937  1.0000
  O   O13       1.0  0.65191  0.17556000000000002  0.9173799999999999  1.0000
  O   O14       1.0  0.12944  0.70394  0.73154  1.0000
  O   O15       1.0  0.6263499999999999  0.8614400000000002  0.37598  1.0000
  O   O16       1.0  0.45174  0.74875  0.3697  1.0000
  O   O17       1.0  0.63054  0.67865  0.54497  1.0000
  O   O18       1.0  0.22963000000000003  0.67382  0.53867  1.0000
  O   O19       1.0  0.3922999999999999  0.5955000000000001  0.72527  1.0000
  O   O20       1.0  0.21471000000000004  0.65941  0.24  1.0000
  O   O21       1.0  0.9011500000000002  0.75044  0.96244  1.0000
  O   O22       1.0  0.76312  0.63865  0.09374  1.0000
  O   O23       1.0  0.20722999999999997  0.5392  0.06497  1.0000
  O   O24       1.0  0.06174999999999994  0.51935  0.23728  1.0000
  O   O25       1.0  0.7137500000000001  0.90001  0.07661  1.0000
  O   O26       1.0  0.36157000000000006  0.77773  0.07531  1.0000
