data_image0
_chemical_formula_structural       Tb2H24C42N2O12
_chemical_formula_sum              "Tb2 H24 C42 N2 O12"
_cell_length_a       8.64518
_cell_length_b       13.532679999999997
_cell_length_c       14.39008
_cell_angle_alpha    114.30192
_cell_angle_beta     96.4983
_cell_angle_gamma    101.67692000000001

_symmetry_space_group_name_H-M    'P 1'
_symmetry_Int_Tables_number       1

loop_
  _symmetry_equiv_pos_as_xyz
  'x,y,z'

loop_
  _atom_site_type_symbol
  _atom_site_label
  _atom_site_symmetry_multiplicity
  _atom_site_fract_x
  _atom_site_fract_y
  _atom_site_fract_z
  _atom_site_occupancy
  Tb  Tb1       1.0  0.26385  0.54548  0.49974  1.0000
  Tb  Tb2       1.0  0.73982  0.45872999999999997  0.50457  1.0000
  H   H1        1.0  0.34675  0.44017  0.75078  1.0000
  H   H2        1.0  0.37985  0.32909  0.85073  1.0000
  H   H3        1.0  0.8680000000000002  0.22186000000000006  0.80562  1.0000
  H   H4        1.0  0.84006  0.33689  0.70912  1.0000
  H   H5        1.0  0.39142  0.16825999999999997  0.17035  1.0000
  H   H6        1.0  0.25641  0.08393999999999997  0.98348  1.0000
  H   H7        1.0  0.19047000000000003  0.40765  0.030909999999999997  1.0000
  H   H8        1.0  0.31255  0.48317  0.21997  1.0000
  H   H9        1.0  0.28120000000000006  0.8729499999999999  0.6755699999999999  1.0000
  H   H10       1.0  0.34663  0.07938000000000002  0.794  1.0000
  H   H11       1.0  0.85681  0.039889999999999905  0.8216099999999998  1.0000
  H   H12       1.0  0.7929699999999998  0.8349399999999999  0.69891  1.0000
  H   H13       1.0  0.6539800000000002  0.55976  0.24914  1.0000
  H   H14       1.0  0.61988  0.67103  0.14917  1.0000
  H   H15       1.0  0.13185  0.77886  0.1939  1.0000
  H   H16       1.0  0.16041  0.66359  0.29029  1.0000
  H   H17       1.0  0.60863  0.83318  0.8308  1.0000
  H   H18       1.0  0.7442300000000001  0.9157  0.01757  1.0000
  H   H19       1.0  0.80909  0.59233  0.9685  1.0000
  H   H20       1.0  0.68798  0.51685  0.78085  1.0000
  H   H21       1.0  0.71789  0.12677999999999998  0.32419  1.0000
  H   H22       1.0  0.65407  0.92023  0.20549999999999996  1.0000
  H   H23       1.0  0.14289999999999997  0.96018  0.17850999999999997  1.0000
  H   H24       1.0  0.20694  0.1658  0.30147  1.0000
  C   C1        1.0  0.07053000000000006  0.46023000000000003  0.66372  1.0000
  C   C2        1.0  0.09122999999999999  0.39582  0.72578  1.0000
  C   C3        1.0  0.24424000000000004  0.39315000000000005  0.76574  1.0000
  C   C4        1.0  0.26144  0.33113  0.82039  1.0000
  C   C5        1.0  0.1256  0.26525  0.8326  1.0000
  C   C6        1.0  0.9729500000000001  0.2697499999999999  0.794  1.0000
  C   C7        1.0  0.95631  0.33315  0.74083  1.0000
  C   C8        1.0  0.4454500000000002  0.37636  0.31878  1.0000
  C   C9        1.0  0.36112  0.33078  0.20706  1.0000
  C   C10       1.0  0.34398  0.21798  0.13774  1.0000
  C   C11       1.0  0.27059  0.17211  0.03313  1.0000
  C   C12       1.0  0.21620999999999996  0.23973999999999987  0.9904799999999998  1.0000
  C   C13       1.0  0.23405  0.35395  0.060179999999999984  1.0000
  C   C14       1.0  0.3032  0.39716  0.16558  1.0000
  C   C15       1.0  0.9940900000000001  0.7181  0.61141  1.0000
  C   C16       1.0  0.03354999999999996  0.84229  0.6811699999999999  1.0000
  C   C17       1.0  0.19039999999999999  0.91175  0.70803  1.0000
  C   C18       1.0  0.2256  0.025649999999999926  0.7737799999999999  1.0000
  C   C19       1.0  0.10527999999999994  0.07377999999999986  0.8145999999999998  1.0000
  C   C20       1.0  0.9491800000000001  0.0033599999999998956  0.7889999999999999  1.0000
  C   C21       1.0  0.91361  0.88998  0.72189  1.0000
  C   C22       1.0  0.92964  0.5403499999999998  0.33589  1.0000
  C   C23       1.0  0.9091400000000002  0.60439  0.27356  1.0000
  C   C24       1.0  0.75609  0.60749  0.23448999999999995  1.0000
  C   C25       1.0  0.73861  0.66983  0.18008  1.0000
  C   C26       1.0  0.8743800000000003  0.7354899999999999  0.16752999999999998  1.0000
  C   C27       1.0  0.027210000000000078  0.73118  0.20596999999999993  1.0000
  C   C28       1.0  0.043980000000000005  0.66752  0.25892  1.0000
  C   C29       1.0  0.5516900000000002  0.62257  0.68066  1.0000
  C   C30       1.0  0.6352900000000001  0.6689099999999999  0.79287  1.0000
  C   C31       1.0  0.6548600000000002  0.78235  0.86244  1.0000
  C   C32       1.0  0.72925  0.82781  0.96685  1.0000
  C   C33       1.0  0.7837100000000002  0.76005  0.00912  1.0000
  C   C34       1.0  0.7659200000000002  0.64595  0.93922  1.0000
  C   C35       1.0  0.6960900000000002  0.60289  0.83408  1.0000
  C   C36       1.0  0.00524999999999996  0.2825099999999999  0.3888  1.0000
  C   C37       1.0  0.9662299999999996  0.1581  0.31921  1.0000
  C   C38       1.0  0.80944  0.08847000000000001  0.29239  1.0000
  C   C39       1.0  0.77475  0.97448  0.22658  1.0000
  C   C40       1.0  0.8950200000000001  0.92654  0.18572  1.0000
  C   C41       1.0  0.05110000000000003  0.997  0.21153999999999998  1.0000
  C   C42       1.0  0.08645  0.11057  0.27875  1.0000
  N   N1        1.0  0.14098999999999995  0.1940299999999999  0.8837199999999998  1.0000
  N   N2        1.0  0.85858  0.806  0.11575  1.0000
  O   O1        1.0  0.19496  0.49643  0.63449  1.0000
  O   O2        1.0  0.92954  0.4750000000000001  0.64444  1.0000
  O   O3        1.0  0.4517  0.47991  0.38557  1.0000
  O   O4        1.0  0.51071  0.3129  0.34697  1.0000
  O   O5        1.0  0.10955999999999994  0.6777299999999998  0.57661  1.0000
  O   O6        1.0  0.84631  0.66058  0.59058  1.0000
  O   O7        1.0  0.8062400000000002  0.5052399999999999  0.36630999999999997  1.0000
  O   O8        1.0  0.07026999999999999  0.52501  0.35430999999999996  1.0000
  O   O9        1.0  0.5464900000000001  0.51878  0.61288  1.0000
  O   O10       1.0  0.48126  0.6838299999999999  0.6513299999999999  1.0000
  O   O11       1.0  0.88852  0.32212999999999997  0.4239799999999999  1.0000
  O   O12       1.0  0.15325000000000003  0.3402299999999999  0.40981  1.0000
