data_image0
_chemical_formula_structural       Tb2H24C48O12
_chemical_formula_sum              "Tb2 H24 C48 O12"
_cell_length_a       10.66991
_cell_length_b       11.34176
_cell_length_c       13.25016
_cell_angle_alpha    109.68649999999998
_cell_angle_beta     88.03645
_cell_angle_gamma    92.55988000000002

_symmetry_space_group_name_H-M    'P 1'
_symmetry_Int_Tables_number       1

loop_
  _symmetry_equiv_pos_as_xyz
  'x,y,z'

loop_
  _atom_site_type_symbol
  _atom_site_label
  _atom_site_symmetry_multiplicity
  _atom_site_fract_x
  _atom_site_fract_y
  _atom_site_fract_z
  _atom_site_occupancy
  Tb  Tb1       1.0  0.49768000000000007  0.43766000000000005  0.35413  1.0000
  Tb  Tb2       1.0  0.50106  0.56188  0.64497  1.0000
  H   H1        1.0  0.39932  0.10429  0.27127  1.0000
  H   H2        1.0  0.2691  0.77905  0.52648  1.0000
  H   H3        1.0  0.24191  0.28717  0.39627  1.0000
  H   H4        1.0  0.31403  0.91533  0.30349  1.0000
  H   H5        1.0  0.07523  0.8965400000000001  0.57474  1.0000
  H   H6        1.0  0.15518  0.12864000000000003  0.23717999999999995  1.0000
  H   H7        1.0  0.30988  0.70886  0.1549  1.0000
  H   H8        1.0  0.07727999999999999  0.12400999999999995  0.5956  1.0000
  H   H9        1.0  0.93351  0.14139  0.18478  1.0000
  H   H10       1.0  0.3956  0.69204  0.97607  1.0000
  H   H11       1.0  0.27356  0.23334  0.56888  1.0000
  H   H12       1.0  0.8037100000000001  0.3129600000000001  0.28934  1.0000
  H   H13       1.0  0.60031  0.89509  0.72848  1.0000
  H   H14       1.0  0.73018  0.22113000000000002  0.47321999999999986  1.0000
  H   H15       1.0  0.7557200000000001  0.7119100000000002  0.60327  1.0000
  H   H16       1.0  0.68568  0.08402000000000008  0.69619  1.0000
  H   H17       1.0  0.9244400000000002  0.10409  0.4254  1.0000
  H   H18       1.0  0.84273  0.8711999999999999  0.7616699999999998  1.0000
  H   H19       1.0  0.68977  0.29066  0.84462  1.0000
  H   H20       1.0  0.92273  0.8767000000000001  0.4046199999999999  1.0000
  H   H21       1.0  0.06421  0.85892  0.81431  1.0000
  H   H22       1.0  0.60411  0.30758  0.02345  1.0000
  H   H23       1.0  0.7266100000000001  0.76693  0.43085999999999997  1.0000
  H   H24       1.0  0.19405999999999993  0.6867200000000001  0.71055  1.0000
  C   C1        1.0  0.49604000000000004  0.2413  0.16991  1.0000
  C   C2        1.0  0.49819000000000035  0.73849  0.48393  1.0000
  C   C3        1.0  0.25702  0.49083  0.55672  1.0000
  C   C4        1.0  0.49682000000000004  0.11724  0.08243  1.0000
  C   C5        1.0  0.49884000000000006  0.8726  0.4895  1.0000
  C   C6        1.0  0.12359  0.49289  0.52828  1.0000
  C   C7        1.0  0.4458  0.01013  0.10272  1.0000
  C   C8        1.0  0.38634  0.93734  0.51722  1.0000
  C   C9        1.0  0.07493  0.39926  0.43657999999999997  1.0000
  C   C10       1.0  0.3969500000000001  0.015279999999999997  0.20592999999999997  1.0000
  C   C11       1.0  0.27066  0.87783  0.53452  1.0000
  C   C12       1.0  0.14670999999999998  0.29559  0.37351  1.0000
  C   C13       1.0  0.34973  0.90932  0.22405  1.0000
  C   C14       1.0  0.16218  0.94341  0.56121  1.0000
  C   C15       1.0  0.09757000000000006  0.20546  0.28467  1.0000
  C   C16       1.0  0.34863  0.7918200000000002  0.13983  1.0000
  C   C17       1.0  0.16346  0.07288  0.57304  1.0000
  C   C18       1.0  0.97241  0.21289  0.25502  1.0000
  C   C19       1.0  0.39675  0.78227  0.03996  1.0000
  C   C20       1.0  0.27287999999999996  0.13365  0.55711  1.0000
  C   C21       1.0  0.8988900000000002  0.30958  0.31446  1.0000
  C   C22       1.0  0.44772  0.88989  0.01775  1.0000
  C   C23       1.0  0.38734  0.06858000000000003  0.5281  1.0000
  C   C24       1.0  0.94685  0.4061700000000001  0.40666  1.0000
  C   C25       1.0  0.50292  0.75793  0.8296499999999999  1.0000
  C   C26       1.0  0.50142  0.26149  0.51581  1.0000
  C   C27       1.0  0.74069  0.50798  0.4421299999999999  1.0000
  C   C28       1.0  0.50254  0.8821199999999999  0.9172199999999998  1.0000
  C   C29       1.0  0.50082  0.12729  0.51002  1.0000
  C   C30       1.0  0.8737100000000001  0.50615  0.47164  1.0000
  C   C31       1.0  0.55365  0.9892500000000002  0.8969699999999999  1.0000
  C   C32       1.0  0.61326  0.06257999999999998  0.4822799999999999  1.0000
  C   C33       1.0  0.92255  0.5998700000000001  0.56322  1.0000
  C   C34       1.0  0.6029199999999999  0.98406  0.79388  1.0000
  C   C35       1.0  0.7288200000000001  0.12236000000000001  0.46514  1.0000
  C   C36       1.0  0.85085  0.70355  0.6262  1.0000
  C   C37       1.0  0.65015  0.09000999999999995  0.7756899999999999  1.0000
  C   C38       1.0  0.83751  0.057129999999999986  0.43881  1.0000
  C   C39       1.0  0.9001700000000001  0.7939400000000002  0.71478  1.0000
  C   C40       1.0  0.6512400000000002  0.20762000000000003  0.85982  1.0000
  C   C41       1.0  0.83643  0.92767  0.42701  1.0000
  C   C42       1.0  0.025309999999999996  0.7866299999999998  0.7445299999999999  1.0000
  C   C43       1.0  0.60311  0.21718000000000012  0.95972  1.0000
  C   C44       1.0  0.72702  0.8665900000000001  0.4425699999999999  1.0000
  C   C45       1.0  0.09878000000000002  0.6897  0.6853499999999999  1.0000
  C   C46       1.0  0.55178  0.10957999999999996  0.9819199999999998  1.0000
  C   C47       1.0  0.61234  0.93135  0.47138  1.0000
  C   C48       1.0  0.05071999999999999  0.59305  0.59312  1.0000
  O   O1        1.0  0.39224000000000003  0.29167  0.21194  1.0000
  O   O2        1.0  0.48689000000000004  0.65265  0.39319  1.0000
  O   O3        1.0  0.34486  0.50117  0.4889399999999999  1.0000
  O   O4        1.0  0.60062  0.29787  0.20507  1.0000
  O   O5        1.0  0.51  0.71962  0.57305  1.0000
  O   O6        1.0  0.28689  0.4880400000000001  0.64708  1.0000
  O   O7        1.0  0.60665  0.7067  0.7884599999999999  1.0000
  O   O8        1.0  0.51328  0.3472799999999999  0.6064199999999998  1.0000
  O   O9        1.0  0.65107  0.4998600000000001  0.50954  1.0000
  O   O10       1.0  0.39817999999999987  0.70235  0.79359  1.0000
  O   O11       1.0  0.48868  0.28052  0.4268  1.0000
  O   O12       1.0  0.7126  0.50785  0.35050999999999993  1.0000
