data_image0
_chemical_formula_structural       Co4H22C30N4O16
_chemical_formula_sum              "Co4 H22 C30 N4 O16"
_cell_length_a       9.16304
_cell_length_b       9.07774
_cell_length_c       15.06717
_cell_angle_alpha    81.82162
_cell_angle_beta     86.85622
_cell_angle_gamma    59.93437

_symmetry_space_group_name_H-M    'P 1'
_symmetry_Int_Tables_number       1

loop_
  _symmetry_equiv_pos_as_xyz
  'x,y,z'

loop_
  _atom_site_type_symbol
  _atom_site_label
  _atom_site_symmetry_multiplicity
  _atom_site_fract_x
  _atom_site_fract_y
  _atom_site_fract_z
  _atom_site_occupancy
  Co  Co1       1.0  0.77256  0.012209999999999999  0.16511  1.0000
  Co  Co2       1.0  0.22790999999999995  0.98751  0.83383  1.0000
  Co  Co3       1.0  0.5008800000000002  0.9998099999999999  0.99966  1.0000
  Co  Co4       1.0  0.002029999999999871  0.5045600000000002  0.00271  1.0000
  H   H1        1.0  0.29467  0.62848  0.225  1.0000
  H   H2        1.0  0.33078  0.82826  0.30195  1.0000
  H   H3        1.0  0.3003  0.96446  0.19977  1.0000
  H   H4        1.0  0.6095199999999998  0.62513  0.26549  1.0000
  H   H5        1.0  0.59498  0.48997000000000007  0.15681  1.0000
  H   H6        1.0  0.3506500000000001  0.5951000000000002  0.07346  1.0000
  H   H7        1.0  0.36163  0.25907  0.17852  1.0000
  H   H8        1.0  0.23135999999999998  0.45526000000000005  0.31965  1.0000
  H   H9        1.0  0.7683600000000002  0.19299000000000002  0.32911  1.0000
  H   H10       1.0  0.7466599999999999  0.39384  0.40066  1.0000
  H   H11       1.0  0.24621  0.48222000000000004  0.4657  1.0000
  H   H12       1.0  0.70665  0.3705  0.77378  1.0000
  H   H13       1.0  0.66741  0.17168000000000003  0.69775  1.0000
  H   H14       1.0  0.6984600000000002  0.03580999999999996  0.8002200000000003  1.0000
  H   H15       1.0  0.39042  0.3763200000000002  0.73548  1.0000
  H   H16       1.0  0.40493999999999997  0.5091000000000002  0.84509  1.0000
  H   H17       1.0  0.65214  0.40524  0.92527  1.0000
  H   H18       1.0  0.63873  0.74103  0.82129  1.0000
  H   H19       1.0  0.76869  0.54439  0.68032  1.0000
  H   H20       1.0  0.23144000000000012  0.8076299999999998  0.67094  1.0000
  H   H21       1.0  0.25296  0.60631  0.5994  1.0000
  H   H22       1.0  0.75364  0.5178500000000003  0.53431  1.0000
  C   C1        1.0  0.6269599999999999  0.8303800000000002  0.19201  1.0000
  C   C2        1.0  0.67816  0.61942  0.05756  1.0000
  C   C3        1.0  0.30511999999999995  0.8435700000000003  0.02044  1.0000
  C   C4        1.0  0.08012000000000001  0.84988  0.17262  1.0000
  C   C5        1.0  0.26905  0.7495200000000002  0.18378  1.0000
  C   C6        1.0  0.3521099999999999  0.8304000000000002  0.22944000000000003  1.0000
  C   C7        1.0  0.54234  0.72304  0.20851  1.0000
  C   C8        1.0  0.5505099999999999  0.6237500000000002  0.12776  1.0000
  C   C9        1.0  0.36587000000000003  0.69569  0.09614  1.0000
  C   C10       1.0  0.42484  0.27404  0.23241  1.0000
  C   C11       1.0  0.3601  0.37157  0.30129  1.0000
  C   C12       1.0  0.64049  0.2389500000000001  0.30691  1.0000
  C   C13       1.0  0.4967  0.42801  0.42424  1.0000
  C   C14       1.0  0.63912  0.43828  0.44462  1.0000
  C   C15       1.0  0.35667000000000004  0.49117000000000005  0.47986  1.0000
  C   C16       1.0  0.37337000000000004  0.1696600000000001  0.80749  1.0000
  C   C17       1.0  0.32588  0.37878000000000006  0.94454  1.0000
  C   C18       1.0  0.69838  0.15609000000000003  0.97915  1.0000
  C   C19       1.0  0.92055  0.14772  0.82591  1.0000
  C   C20       1.0  0.73176  0.24974  0.81512  1.0000
  C   C21       1.0  0.6471099999999999  0.16961999999999997  0.77028  1.0000
  C   C22       1.0  0.45767000000000035  0.27732999999999997  0.79198  1.0000
  C   C23       1.0  0.45165  0.37448999999999993  0.87313  1.0000
  C   C24       1.0  0.63718  0.30378  0.90327  1.0000
  C   C25       1.0  0.57548  0.7254400000000001  0.76752  1.0000
  C   C26       1.0  0.6398000000000001  0.6286200000000002  0.69858  1.0000
  C   C27       1.0  0.3595400000000001  0.7608099999999999  0.6931200000000002  1.0000
  C   C28       1.0  0.5031100000000001  0.5719699999999999  0.5758  1.0000
  C   C29       1.0  0.3605899999999999  0.5618300000000002  0.55544  1.0000
  C   C30       1.0  0.6431299999999999  0.50893  0.52017  1.0000
  N   N1        1.0  0.59942  0.19117000000000006  0.23764  1.0000
  N   N2        1.0  0.49819999999999987  0.35027  0.34853000000000006  1.0000
  N   N3        1.0  0.4009600000000001  0.8092900000000001  0.76196  1.0000
  N   N4        1.0  0.5017300000000001  0.64999  0.65132  1.0000
  O   O1        1.0  0.5696499999999998  0.9625400000000003  0.13042  1.0000
  O   O2        1.0  0.75317  0.79666  0.23876  1.0000
  O   O3        1.0  0.8321300000000003  0.4943  0.07303  1.0000
  O   O4        1.0  0.6421600000000003  0.73139  0.98961  1.0000
  O   O5        1.0  0.26839000000000013  0.8218399999999999  0.94537  1.0000
  O   O6        1.0  0.29862  0.98218  0.0364  1.0000
  O   O7        1.0  0.00876999999999988  0.8157100000000003  0.11522  1.0000
  O   O8        1.0  0.9920699999999999  0.9628200000000003  0.22536000000000003  1.0000
  O   O9        1.0  0.4315600000000001  0.03667999999999995  0.8685700000000001  1.0000
  O   O10       1.0  0.24741000000000002  0.2031  0.76036  1.0000
  O   O11       1.0  0.17481  0.50858  0.93167  1.0000
  O   O12       1.0  0.36316  0.26411  0.01138  1.0000
  O   O13       1.0  0.734  0.17822000000000005  0.05436  1.0000
  O   O14       1.0  0.7035900000000002  0.017779999999999976  0.96365  1.0000
  O   O15       1.0  0.9924400000000002  0.18239000000000002  0.88286  1.0000
  O   O16       1.0  0.007330000000000003  0.03360999999999999  0.77368  1.0000
