data_image0
_chemical_formula_structural       Er4H12C36O24
_chemical_formula_sum              "Er4 H12 C36 O24"
_cell_length_a       10.45434
_cell_length_b       10.46707
_cell_length_c       19.799150000000004
_cell_angle_alpha    77.7063
_cell_angle_beta     77.9744
_cell_angle_gamma    65.57239

_symmetry_space_group_name_H-M    'P 1'
_symmetry_Int_Tables_number       1

loop_
  _symmetry_equiv_pos_as_xyz
  'x,y,z'

loop_
  _atom_site_type_symbol
  _atom_site_label
  _atom_site_symmetry_multiplicity
  _atom_site_fract_x
  _atom_site_fract_y
  _atom_site_fract_z
  _atom_site_occupancy
  Er  Er1       1.0  0.7405399999999998  0.43132000000000004  0.90756  1.0000
  Er  Er2       1.0  0.56525  0.25698999999999994  0.59424  1.0000
  Er  Er3       1.0  0.25942  0.5687  0.09245  1.0000
  Er  Er4       1.0  0.43478  0.7429999999999999  0.40577  1.0000
  H   H1        1.0  0.7087099999999998  0.8134  0.72261  1.0000
  H   H2        1.0  0.61902  0.8221600000000001  0.51849  1.0000
  H   H3        1.0  0.6836199999999999  0.44580999999999993  0.67205  1.0000
  H   H4        1.0  0.18259  0.28419  0.77958  1.0000
  H   H5        1.0  0.17604000000000006  0.3729199999999999  0.98338  1.0000
  H   H6        1.0  0.5478199999999999  0.31804  0.82927  1.0000
  H   H7        1.0  0.29192999999999997  0.18623  0.27754  1.0000
  H   H8        1.0  0.38167  0.17811000000000002  0.48151999999999995  1.0000
  H   H9        1.0  0.3161500000000001  0.5545  0.32796  1.0000
  H   H10       1.0  0.8176299999999999  0.71555  0.22049  1.0000
  H   H11       1.0  0.82417  0.62701  0.01666  1.0000
  H   H12       1.0  0.45222999999999997  0.68213  0.1708  1.0000
  C   C1        1.0  0.71102  0.5526399999999999  0.77749  1.0000
  C   C2        1.0  0.6564200000000002  0.9800299999999998  0.59998  1.0000
  C   C3        1.0  0.6357600000000001  0.54693  0.53742  1.0000
  C   C4        1.0  0.6960899999999999  0.62295  0.70452  1.0000
  C   C5        1.0  0.6935599999999998  0.7603400000000001  0.68508  1.0000
  C   C6        1.0  0.6668699999999999  0.8309600000000003  0.61785  1.0000
  C   C7        1.0  0.6447499999999999  0.7638499999999999  0.56968  1.0000
  C   C8        1.0  0.6553900000000001  0.6227199999999999  0.58818  1.0000
  C   C9        1.0  0.6799900000000002  0.5531  0.65592  1.0000
  C   C10       1.0  0.44232000000000005  0.28591  0.72418  1.0000
  C   C11       1.0  0.018060000000000027  0.3332  0.90265  1.0000
  C   C12       1.0  0.44846000000000014  0.36300000000000004  0.9635  1.0000
  C   C13       1.0  0.37211000000000005  0.30083  0.79705  1.0000
  C   C14       1.0  0.23572000000000012  0.30057  0.81679  1.0000
  C   C15       1.0  0.16613999999999995  0.32554000000000005  0.88415  1.0000
  C   C16       1.0  0.23311000000000004  0.3489399999999999  0.93203  1.0000
  C   C17       1.0  0.37296000000000007  0.3415500000000001  0.91319  1.0000
  C   C18       1.0  0.44160999999999995  0.31869  0.84541  1.0000
  C   C19       1.0  0.2888499999999999  0.44732  0.22251  1.0000
  C   C20       1.0  0.34430000000000005  0.019970000000000016  0.40005  1.0000
  C   C21       1.0  0.36461999999999994  0.45321  0.4625  1.0000
  C   C22       1.0  0.30395  0.3771300000000001  0.29549  1.0000
  C   C23       1.0  0.30696  0.23958000000000004  0.31497  1.0000
  C   C24       1.0  0.33384999999999987  0.16904000000000002  0.38219  1.0000
  C   C25       1.0  0.35588  0.23628999999999997  0.43031  1.0000
  C   C26       1.0  0.3448300000000001  0.37753999999999993  0.41178  1.0000
  C   C27       1.0  0.31994999999999996  0.44714000000000004  0.34407  1.0000
  C   C28       1.0  0.5579200000000002  0.71375  0.27592  1.0000
  C   C29       1.0  0.98201  0.66726  0.09734  1.0000
  C   C30       1.0  0.5517199999999998  0.63702  0.03653  1.0000
  C   C31       1.0  0.62812  0.69897  0.20306  1.0000
  C   C32       1.0  0.7645100000000001  0.69923  0.18327  1.0000
  C   C33       1.0  0.83407  0.6744800000000001  0.11588  1.0000
  C   C34       1.0  0.7670699999999999  0.65113  0.068  1.0000
  C   C35       1.0  0.6271899999999999  0.6585  0.08688  1.0000
  C   C36       1.0  0.55849  0.68141  0.15466  1.0000
  O   O1        1.0  0.7346600000000001  0.61314  0.82136  1.0000
  O   O2        1.0  0.69782  0.43342  0.79764  1.0000
  O   O3        1.0  0.70212  0.030439999999999995  0.63933  1.0000
  O   O4        1.0  0.5949000000000001  0.06125999999999998  0.54765  1.0000
  O   O5        1.0  0.5930299999999998  0.6160500000000001  0.47978  1.0000
  O   O6        1.0  0.66379  0.41352000000000005  0.55402  1.0000
  O   O7        1.0  0.38232999999999995  0.26134  0.68035  1.0000
  O   O8        1.0  0.56117  0.30004999999999993  0.70409  1.0000
  O   O9        1.0  0.96612  0.29086  0.86255  1.0000
  O   O10       1.0  0.93862  0.38957  0.95634  1.0000
  O   O11       1.0  0.37977999999999995  0.40654  0.02072  1.0000
  O   O12       1.0  0.58157  0.3361199999999999  0.9468700000000001  1.0000
  O   O13       1.0  0.26528  0.38678  0.17865  1.0000
  O   O14       1.0  0.30193999999999993  0.56661  0.2024  1.0000
  O   O15       1.0  0.29828999999999994  0.9696499999999999  0.36078  1.0000
  O   O16       1.0  0.4059799999999999  0.9385900000000001  0.45228999999999997  1.0000
  O   O17       1.0  0.4079900000000001  0.38367999999999997  0.51994  1.0000
  O   O18       1.0  0.33621000000000006  0.5867  0.44610999999999995  1.0000
  O   O19       1.0  0.61804  0.73812  0.31976  1.0000
  O   O20       1.0  0.43877000000000005  0.70012  0.29586  1.0000
  O   O21       1.0  0.033920000000000006  0.70897  0.13772  1.0000
  O   O22       1.0  0.061309999999999996  0.61201  0.04335  1.0000
  O   O23       1.0  0.6204699999999999  0.5936200000000001  0.97927  1.0000
  O   O24       1.0  0.4186299999999999  0.6637  0.05317999999999999  1.0000
