data_image0
_chemical_formula_structural       Ho4H12C36O24
_chemical_formula_sum              "Ho4 H12 C36 O24"
_cell_length_a       10.4761
_cell_length_b       10.4726
_cell_length_c       19.8121
_cell_angle_alpha    78.18938
_cell_angle_beta     77.71085
_cell_angle_gamma    67.50449

_symmetry_space_group_name_H-M    'P 1'
_symmetry_Int_Tables_number       1

loop_
  _symmetry_equiv_pos_as_xyz
  'x,y,z'

loop_
  _atom_site_type_symbol
  _atom_site_label
  _atom_site_symmetry_multiplicity
  _atom_site_fract_x
  _atom_site_fract_y
  _atom_site_fract_z
  _atom_site_occupancy
  Ho  Ho1       1.0  0.4378000000000001  0.7374999999999999  0.90748  1.0000
  Ho  Ho2       1.0  0.26252999999999993  0.56216  0.59415  1.0000
  Ho  Ho3       1.0  0.5622  0.2625  0.09252000000000003  1.0000
  Ho  Ho4       1.0  0.7374700000000001  0.4378399999999999  0.40585  1.0000
  H   H1        1.0  0.32103  0.54339  0.82799  1.0000
  H   H2        1.0  0.30151  0.17098  0.7781  1.0000
  H   H3        1.0  0.37665999999999994  0.17658999999999994  0.9827700000000001  1.0000
  H   H4        1.0  0.45602000000000004  0.67893  0.67311  1.0000
  H   H5        1.0  0.8278200000000002  0.69875  0.72205  1.0000
  H   H6        1.0  0.8238199999999999  0.62353  0.51687  1.0000
  H   H7        1.0  0.67897  0.45661  0.17201  1.0000
  H   H8        1.0  0.6984900000000002  0.8290200000000001  0.2219  1.0000
  H   H9        1.0  0.62334  0.8234099999999999  0.01724  1.0000
  H   H10       1.0  0.5439799999999999  0.32107  0.32689000000000007  1.0000
  H   H11       1.0  0.17217999999999997  0.30126  0.27795  1.0000
  H   H12       1.0  0.17618000000000003  0.37647  0.48314  1.0000
  C   C1        1.0  0.34796000000000005  0.012139999999999982  0.90118  1.0000
  C   C2        1.0  0.29465  0.43457000000000007  0.72313  1.0000
  C   C3        1.0  0.36378999999999995  0.44847999999999993  0.96297  1.0000
  C   C4        1.0  0.3456500000000001  0.37094  0.91226  1.0000
  C   C5        1.0  0.32384  0.4369  0.84439  1.0000
  C   C6        1.0  0.3098700000000003  0.36467999999999995  0.79579  1.0000
  C   C7        1.0  0.3135499999999999  0.22735  0.8153600000000001  1.0000
  C   C8        1.0  0.33709000000000006  0.16055999999999995  0.8828500000000001  1.0000
  C   C9        1.0  0.35517000000000004  0.23104999999999998  0.9310900000000001  1.0000
  C   C10       1.0  0.9879399999999996  0.6532799999999999  0.59882  1.0000
  C   C11       1.0  0.5642600000000001  0.70608  0.7776600000000001  1.0000
  C   C12       1.0  0.5518000000000002  0.63578  0.5378  1.0000
  C   C13       1.0  0.62912  0.65449  0.58816  1.0000
  C   C14       1.0  0.56261  0.6761300000000002  0.6563400000000001  1.0000
  C   C15       1.0  0.6343399999999999  0.6904  0.7047500000000001  1.0000
  C   C16       1.0  0.7718  0.6867099999999999  0.6848200000000002  1.0000
  C   C17       1.0  0.83936  0.66325  0.61701  1.0000
  C   C18       1.0  0.7691999999999999  0.6451200000000001  0.56883  1.0000
  C   C19       1.0  0.6520400000000002  0.98786  0.09882  1.0000
  C   C20       1.0  0.7053500000000001  0.5654299999999999  0.27687  1.0000
  C   C21       1.0  0.6362100000000002  0.55152  0.03703  1.0000
  C   C22       1.0  0.65435  0.62906  0.08774  1.0000
  C   C23       1.0  0.67615  0.56311  0.15562  1.0000
  C   C24       1.0  0.6901300000000001  0.63533  0.20421000000000003  1.0000
  C   C25       1.0  0.6864500000000001  0.77265  0.18464000000000003  1.0000
  C   C26       1.0  0.6629100000000001  0.83944  0.11715  1.0000
  C   C27       1.0  0.6448300000000001  0.76895  0.06891  1.0000
  C   C28       1.0  0.012060000000000012  0.34673  0.40119000000000005  1.0000
  C   C29       1.0  0.43573  0.2939300000000001  0.22234  1.0000
  C   C30       1.0  0.4482000000000001  0.36422  0.4622  1.0000
  C   C31       1.0  0.37088  0.34551  0.41184  1.0000
  C   C32       1.0  0.43739  0.32388  0.34366  1.0000
  C   C33       1.0  0.36566000000000004  0.3096  0.29526  1.0000
  C   C34       1.0  0.22819999999999996  0.3133  0.31518  1.0000
  C   C35       1.0  0.16063999999999998  0.33675  0.38299  1.0000
  C   C36       1.0  0.23079999999999998  0.35488  0.43117  1.0000
  O   O1        1.0  0.40608000000000005  0.93603  0.9539500000000002  1.0000
  O   O2        1.0  0.30534  0.95762  0.86191  1.0000
  O   O3        1.0  0.2716  0.37464000000000003  0.6786  1.0000
  O   O4        1.0  0.30622  0.55495  0.70439  1.0000
  O   O5        1.0  0.33647  0.58042  0.94674  1.0000
  O   O6        1.0  0.40578  0.38173  0.02017  1.0000
  O   O7        1.0  0.06592999999999999  0.5983100000000001  0.54502  1.0000
  O   O8        1.0  0.04072000000000001  0.6937500000000001  0.63983  1.0000
  O   O9        1.0  0.6241100000000002  0.7309299999999999  0.82148  1.0000
  O   O10       1.0  0.44435000000000036  0.69331  0.79743  1.0000
  O   O11       1.0  0.41957  0.66284  0.55498  1.0000
  O   O12       1.0  0.61834  0.59385  0.48017  1.0000
  O   O13       1.0  0.59392  0.06398  0.04606  1.0000
  O   O14       1.0  0.69466  0.04238  0.13809  1.0000
  O   O15       1.0  0.7284  0.62537  0.32141  1.0000
  O   O16       1.0  0.69378  0.4450500000000001  0.29561  1.0000
  O   O17       1.0  0.66353  0.41958000000000006  0.05327  1.0000
  O   O18       1.0  0.59422  0.61827  0.97984  1.0000
  O   O19       1.0  0.9340700000000002  0.40169  0.45499  1.0000
  O   O20       1.0  0.95928  0.30625  0.36017  1.0000
  O   O21       1.0  0.37589  0.26907  0.17852000000000004  1.0000
  O   O22       1.0  0.5556500000000001  0.3067  0.20257  1.0000
  O   O23       1.0  0.58043  0.33715999999999996  0.44503000000000004  1.0000
  O   O24       1.0  0.3816600000000003  0.40615000000000007  0.51983  1.0000
