data_image0
_chemical_formula_structural       Co2H16C26N2O10
_chemical_formula_sum              "Co2 H16 C26 N2 O10"
_cell_length_a       7.18258
_cell_length_b       9.87441
_cell_length_c       12.37098
_cell_angle_alpha    88.76883
_cell_angle_beta     72.94681
_cell_angle_gamma    85.13274

_symmetry_space_group_name_H-M    'P 1'
_symmetry_Int_Tables_number       1

loop_
  _symmetry_equiv_pos_as_xyz
  'x,y,z'

loop_
  _atom_site_type_symbol
  _atom_site_label
  _atom_site_symmetry_multiplicity
  _atom_site_fract_x
  _atom_site_fract_y
  _atom_site_fract_z
  _atom_site_occupancy
  Co  Co1       1.0  0.9974400000000001  0.50258  0.5013  1.0000
  Co  Co2       1.0  0.49650000000000005  0.50327  0.50175  1.0000
  H   H1        1.0  0.8998900000000001  0.15838  0.62918  1.0000
  H   H2        1.0  0.49704  0.09274  0.62792  1.0000
  H   H3        1.0  0.40978  0.28603  0.08404  1.0000
  H   H4        1.0  0.3017800000000001  0.29769  0.29522  1.0000
  H   H5        1.0  0.47259999999999996  0.8419699999999999  0.62921  1.0000
  H   H6        1.0  0.8764600000000001  0.90722  0.62809  1.0000
  H   H7        1.0  0.50398  0.71456  0.08516  1.0000
  H   H8        1.0  0.40179  0.70263  0.29644  1.0000
  H   H9        1.0  0.10000000000000005  0.84436  0.37005  1.0000
  H   H10       1.0  0.5030599999999997  0.90963  0.37148000000000003  1.0000
  H   H11       1.0  0.58917  0.71428  0.91551  1.0000
  H   H12       1.0  0.6980600000000001  0.70155  0.70429  1.0000
  H   H13       1.0  0.52638  0.16081999999999996  0.37141  1.0000
  H   H14       1.0  0.12279000000000001  0.09555999999999999  0.37233999999999995  1.0000
  H   H15       1.0  0.4949300000000001  0.28561  0.9153599999999998  1.0000
  H   H16       1.0  0.60007  0.29644  0.70399  1.0000
  C   C1        1.0  0.19666  0.14199  0.63287  1.0000
  C   C2        1.0  0.02108000000000004  0.08798  0.63481  1.0000
  C   C3        1.0  0.35850000000000004  0.05226  0.63431  1.0000
  C   C4        1.0  0.21377999999999997  0.29236  0.61452  1.0000
  C   C5        1.0  0.41073  0.38204  0.12503  1.0000
  C   C6        1.0  0.35314000000000006  0.38339  0.24164  1.0000
  C   C7        1.0  0.17187000000000005  0.8586499999999999  0.63275  1.0000
  C   C8        1.0  0.34559999999999996  0.9123799999999999  0.6348  1.0000
  C   C9        1.0  0.008460000000000007  0.94816  0.63429  1.0000
  C   C10       1.0  0.17293999999999993  0.70929  0.61377  1.0000
  C   C11       1.0  0.46254  0.61846  0.12565  1.0000
  C   C12       1.0  0.40354000000000007  0.61717  0.24238999999999997  1.0000
  C   C13       1.0  0.80306  0.8612299999999999  0.3667000000000001  1.0000
  C   C14       1.0  0.9788199999999998  0.9149199999999998  0.36459  1.0000
  C   C15       1.0  0.64119  0.9507  0.36517  1.0000
  C   C16       1.0  0.7844300000000001  0.71168  0.38665999999999995  1.0000
  C   C17       1.0  0.58821  0.61808  0.87482  1.0000
  C   C18       1.0  0.64612  0.61621  0.7581499999999999  1.0000
  C   C19       1.0  0.8270999999999997  0.14418  0.36811  1.0000
  C   C20       1.0  0.6536600000000001  0.09054  0.36538  1.0000
  C   C21       1.0  0.99096  0.05473  0.36576000000000003  1.0000
  C   C22       1.0  0.82553  0.29349  0.38861  1.0000
  C   C23       1.0  0.5367999999999999  0.3815  0.87468  1.0000
  C   C24       1.0  0.59689  0.38227  0.75796  1.0000
  C   C25       1.0  0.46827  0.5003  0.06237  1.0000
  C   C26       1.0  0.53078  0.5  0.93768  1.0000
  N   N1        1.0  0.35033  0.50016  0.29848  1.0000
  N   N2        1.0  0.6497300000000001  0.4990899999999999  0.70179  1.0000
  O   O1        1.0  0.05659  0.36615  0.62004  1.0000
  O   O2        1.0  0.38649999999999995  0.33208  0.5905  1.0000
  O   O3        1.0  0.32292  0.63376  0.6197  1.0000
  O   O4        1.0  0.025920000000000033  0.66893  0.58861  1.0000
  O   O5        1.0  0.9411400000000001  0.63756  0.38176999999999994  1.0000
  O   O6        1.0  0.61094  0.6731  0.4117799999999999  1.0000
  O   O7        1.0  0.67427  0.36843  0.38463  1.0000
  O   O8        1.0  0.9742199999999998  0.33347  0.41215  1.0000
  O   O9        1.0  0.29479  0.49923000000000006  0.41104  1.0000
  O   O10       1.0  0.70626  0.49895  0.58901  1.0000
