data_image0
_chemical_formula_structural       Gd2CuH12C32N4O24
_chemical_formula_sum              "Gd2 Cu1 H12 C32 N4 O24"
_cell_length_a       9.90437
_cell_length_b       10.60787
_cell_length_c       11.821910000000003
_cell_angle_alpha    79.65188999999998
_cell_angle_beta     71.81327000000002
_cell_angle_gamma    69.14882

_space_group_name_H-M_alt    "P 1"
_space_group_IT_number       1

loop_
  _space_group_symop_operation_xyz
  'x, y, z'

loop_
  _atom_site_type_symbol
  _atom_site_label
  _atom_site_symmetry_multiplicity
  _atom_site_fract_x
  _atom_site_fract_y
  _atom_site_fract_z
  _atom_site_occupancy
  Gd  Gd1       1.0  0.58739  0.58802  0.63922  1.0000
  Gd  Gd2       1.0  0.4126000000000001  0.41199  0.36078  1.0000
  Cu  Cu1       1.0  0.0  0.5  0.5  1.0000
  H   H1        1.0  0.37244000000000005  0.97495  0.46558  1.0000
  H   H2        1.0  0.9729500000000006  0.1855  0.34734  1.0000
  H   H3        1.0  0.1639  0.7528  0.34071  1.0000
  H   H4        1.0  0.6848300000000002  0.44151000000000007  0.93229  1.0000
  H   H5        1.0  0.94047  0.3187  0.19132999999999997  1.0000
  H   H6        1.0  0.16759999999999997  0.3445500000000001  0.8160999999999999  1.0000
  H   H7        1.0  0.6275500000000003  0.025059999999999995  0.53442  1.0000
  H   H8        1.0  0.027039999999999943  0.8145100000000001  0.65266  1.0000
  H   H9        1.0  0.83609  0.24721  0.6592999999999999  1.0000
  H   H10       1.0  0.31515999999999994  0.5585  0.06770999999999999  1.0000
  H   H11       1.0  0.059520000000000045  0.68131  0.8086699999999999  1.0000
  H   H12       1.0  0.83239  0.65546  0.18389999999999998  1.0000
  C   C1        1.0  0.27948  0.85052  0.40691  1.0000
  C   C2        1.0  0.2849700000000002  0.9744900000000001  0.42845  1.0000
  C   C3        1.0  0.17524  0.09529000000000001  0.40629999999999994  1.0000
  C   C4        1.0  0.06141000000000003  0.09296000000000001  0.36101999999999995  1.0000
  C   C5        1.0  0.06268000000000007  0.9699400000000001  0.33479  1.0000
  C   C6        1.0  0.16918999999999998  0.8479600000000002  0.3575199999999999  1.0000
  C   C7        1.0  0.38591000000000003  0.72017  0.44326  1.0000
  C   C8        1.0  0.17083999999999994  0.22905  0.43407  1.0000
  C   C9        1.0  0.92548  0.39798  0.86104  1.0000
  C   C10       1.0  0.79289  0.40713000000000005  0.9527299999999999  1.0000
  C   C11       1.0  0.79936  0.37744  0.07168  1.0000
  C   C12       1.0  0.9371500000000001  0.33747  0.09887999999999998  1.0000
  C   C13       1.0  0.06770999999999998  0.32383000000000006  0.00599  1.0000
  C   C14       1.0  0.06461  0.35344000000000003  0.88714  1.0000
  C   C15       1.0  0.92048  0.43895  0.73481  1.0000
  C   C16       1.0  0.66146  0.39100000000000007  0.1729  1.0000
  C   C17       1.0  0.72052  0.14948  0.59309  1.0000
  C   C18       1.0  0.71503  0.02551  0.57156  1.0000
  C   C19       1.0  0.82476  0.90472  0.59371  1.0000
  C   C20       1.0  0.9385800000000001  0.90705  0.63899  1.0000
  C   C21       1.0  0.93732  0.030069999999999993  0.66522  1.0000
  C   C22       1.0  0.8308  0.15205000000000002  0.64248  1.0000
  C   C23       1.0  0.6140800000000001  0.27983  0.55675  1.0000
  C   C24       1.0  0.82915  0.77095  0.56593  1.0000
  C   C25       1.0  0.07451  0.60202  0.13896  1.0000
  C   C26       1.0  0.2071  0.59287  0.04726999999999999  1.0000
  C   C27       1.0  0.20062999999999998  0.62257  0.9283299999999999  1.0000
  C   C28       1.0  0.06283999999999997  0.66254  0.90112  1.0000
  C   C29       1.0  0.93228  0.67618  0.9940099999999998  1.0000
  C   C30       1.0  0.93538  0.64657  0.11286  1.0000
  C   C31       1.0  0.07951999999999994  0.56106  0.26519  1.0000
  C   C32       1.0  0.33853000000000005  0.60901  0.8271  1.0000
  N   N1        1.0  0.9426699999999999  0.9689000000000001  0.28654  1.0000
  N   N2        1.0  0.21246  0.28382  0.03509  1.0000
  N   N3        1.0  0.057319999999999975  0.031110000000000002  0.71347  1.0000
  N   N4        1.0  0.7875300000000001  0.71619  0.96491  1.0000
  O   O1        1.0  0.37232  0.60951  0.42703  1.0000
  O   O2        1.0  0.48178  0.72514  0.49099  1.0000
  O   O3        1.0  0.2936  0.24987  0.42232  1.0000
  O   O4        1.0  0.03968000000000002  0.31320000000000003  0.46811999999999987  1.0000
  O   O5        1.0  0.85292  0.07977  0.26299999999999996  1.0000
  O   O6        1.0  0.93755  0.8571  0.27385  1.0000
  O   O7        1.0  0.04190999999999995  0.44296  0.65731  1.0000
  O   O8        1.0  0.79612  0.46867  0.7085  1.0000
  O   O9        1.0  0.5352700000000002  0.4059900000000001  0.15417  1.0000
  O   O10       1.0  0.6711  0.38692  0.27923  1.0000
  O   O11       1.0  0.20909  0.2681  0.14271  1.0000
  O   O12       1.0  0.32778  0.27026000000000006  0.95107  1.0000
  O   O13       1.0  0.6276700000000002  0.39048999999999995  0.57298  1.0000
  O   O14       1.0  0.51822  0.27486  0.50902  1.0000
  O   O15       1.0  0.7063900000000002  0.75014  0.57769  1.0000
  O   O16       1.0  0.96031  0.6868  0.53188  1.0000
  O   O17       1.0  0.14706999999999998  0.92023  0.737  1.0000
  O   O18       1.0  0.06244000000000006  0.14290000000000003  0.7261499999999999  1.0000
  O   O19       1.0  0.95808  0.55705  0.34269  1.0000
  O   O20       1.0  0.20387000000000002  0.53134  0.2915  1.0000
  O   O21       1.0  0.46471999999999997  0.59402  0.84583  1.0000
  O   O22       1.0  0.32888999999999996  0.6130800000000001  0.7207799999999998  1.0000
  O   O23       1.0  0.7909000000000002  0.7319  0.8572999999999998  1.0000
  O   O24       1.0  0.6722100000000002  0.72975  0.048929999999999994  1.0000
