data_image0
_chemical_formula_structural       Cu6H12C18N24O12
_chemical_formula_sum              "Cu6 H12 C18 N24 O12"
_cell_length_a       7.96007
_cell_length_b       12.8867
_cell_length_c       12.89033
_cell_angle_alpha    116.00656
_cell_angle_beta     101.95654
_cell_angle_gamma    102.18824000000001

_symmetry_space_group_name_H-M    'P 1'
_symmetry_Int_Tables_number       1

loop_
  _symmetry_equiv_pos_as_xyz
  'x,y,z'

loop_
  _atom_site_type_symbol
  _atom_site_label
  _atom_site_symmetry_multiplicity
  _atom_site_fract_x
  _atom_site_fract_y
  _atom_site_fract_z
  _atom_site_occupancy
  Cu  Cu1       1.0  0.74948  0.41842  0.47219999999999995  1.0000
  Cu  Cu2       1.0  0.2770599999999999  0.52676  0.94592  1.0000
  Cu  Cu3       1.0  0.3323899999999999  0.053889999999999987  0.58108  1.0000
  Cu  Cu4       1.0  0.25051000000000007  0.5815800000000001  0.5278  1.0000
  Cu  Cu5       1.0  0.7229299999999999  0.47323  0.05408000000000001  1.0000
  Cu  Cu6       1.0  0.6676  0.9461  0.41893  1.0000
  H   H1        1.0  0.26825  0.4897000000000001  0.23316  1.0000
  H   H2        1.0  0.12314000000000003  0.51766  0.14003  1.0000
  H   H3        1.0  0.03944999999999989  0.76858  0.25976  1.0000
  H   H4        1.0  0.98724  0.8591  0.38282  1.0000
  H   H5        1.0  0.78201  0.7456  0.51358  1.0000
  H   H6        1.0  0.6067299999999998  0.6224200000000002  0.48146  1.0000
  H   H7        1.0  0.7317399999999997  0.51029  0.76684  1.0000
  H   H8        1.0  0.87685  0.48234  0.85998  1.0000
  H   H9        1.0  0.96054  0.23142  0.74024  1.0000
  H   H10       1.0  0.012750000000000025  0.14090000000000003  0.61719  1.0000
  H   H11       1.0  0.21798  0.2544  0.48642  1.0000
  H   H12       1.0  0.39326  0.3775800000000001  0.51854  1.0000
  C   C1        1.0  0.027000000000000007  0.50116  0.26499  1.0000
  C   C2        1.0  0.7598599999999998  0.45968  0.2804  1.0000
  C   C3        1.0  0.56409  0.43256000000000006  0.27088  1.0000
  C   C4        1.0  0.7651400000000002  0.7358400000000003  0.23804999999999998  1.0000
  C   C5        1.0  0.48257  0.7198  0.17989  1.0000
  C   C6        1.0  0.29678  0.72933  0.16237  1.0000
  C   C7        1.0  0.52861  0.76516  0.501  1.0000
  C   C8        1.0  0.30365  0.82167  0.5428  1.0000
  C   C9        1.0  0.13553  0.83879  0.57019  1.0000
  C   C10       1.0  0.97299  0.49884  0.73502  1.0000
  C   C11       1.0  0.24012999999999995  0.54032  0.7196  1.0000
  C   C12       1.0  0.4359  0.56744  0.72912  1.0000
  C   C13       1.0  0.23484999999999995  0.26415999999999995  0.7619499999999999  1.0000
  C   C14       1.0  0.5174199999999995  0.2802  0.82011  1.0000
  C   C15       1.0  0.7032099999999998  0.2706600000000001  0.8376300000000001  1.0000
  C   C16       1.0  0.47137999999999997  0.23482999999999998  0.49899999999999994  1.0000
  C   C17       1.0  0.6963399999999997  0.17832  0.4572  1.0000
  C   C18       1.0  0.86446  0.16121000000000005  0.4298100000000001  1.0000
  N   N1        1.0  0.04722999999999992  0.49882999999999994  0.37145999999999996  1.0000
  N   N2        1.0  0.16539  0.52631  0.22457  1.0000
  N   N3        1.0  0.87579  0.47108999999999995  0.37801999999999997  1.0000
  N   N4        1.0  0.84784  0.47781000000000007  0.20660000000000003  1.0000
  N   N5        1.0  0.6781  0.62945  0.12806  1.0000
  N   N6        1.0  0.9442500000000001  0.7760900000000002  0.30432  1.0000
  N   N7        1.0  0.50019  0.62263  0.09286  1.0000
  N   N8        1.0  0.64467  0.79372  0.27303  1.0000
  N   N9        1.0  0.55084  0.874  0.50329  1.0000
  N   N10       1.0  0.64183  0.69993  0.47565  1.0000
  N   N11       1.0  0.4076899999999999  0.90809  0.53125  1.0000
  N   N12       1.0  0.37340000000000007  0.7298600000000001  0.52456  1.0000
  N   N13       1.0  0.95276  0.50116  0.62854  1.0000
  N   N14       1.0  0.8345999999999998  0.4736900000000001  0.77543  1.0000
  N   N15       1.0  0.12419999999999998  0.52891  0.62198  1.0000
  N   N16       1.0  0.15214999999999992  0.52219  0.7933999999999999  1.0000
  N   N17       1.0  0.32189000000000006  0.3705400000000001  0.87194  1.0000
  N   N18       1.0  0.05574  0.22391  0.69568  1.0000
  N   N19       1.0  0.4998000000000001  0.3773600000000001  0.9071400000000001  1.0000
  N   N20       1.0  0.35532  0.20628  0.72698  1.0000
  N   N21       1.0  0.44915  0.126  0.49671  1.0000
  N   N22       1.0  0.35816  0.30007  0.52435  1.0000
  N   N23       1.0  0.5923  0.09190000000000001  0.46875  1.0000
  N   N24       1.0  0.62659  0.27014  0.47544  1.0000
  O   O1        1.0  0.5325799999999998  0.41667  0.3597  1.0000
  O   O2        1.0  0.4488  0.4306400000000001  0.18813  1.0000
  O   O3        1.0  0.17477999999999988  0.64018  0.05716  1.0000
  O   O4        1.0  0.26608  0.8125  0.24386999999999998  1.0000
  O   O5        1.0  0.11799000000000011  0.9425500000000002  0.58399  1.0000
  O   O6        1.0  0.023639999999999998  0.75839  0.57403  1.0000
  O   O7        1.0  0.46741000000000005  0.58333  0.64031  1.0000
  O   O8        1.0  0.55119  0.56936  0.81188  1.0000
  O   O9        1.0  0.82521  0.3598199999999999  0.9428399999999999  1.0000
  O   O10       1.0  0.7339099999999997  0.1875000000000001  0.75613  1.0000
  O   O11       1.0  0.88201  0.05744000000000003  0.41601  1.0000
  O   O12       1.0  0.9763499999999996  0.24161  0.42598  1.0000
