data_image0
_chemical_formula_structural       In8P12H12C8O52
_chemical_formula_sum              "In8 P12 H12 C8 O52"
_cell_length_a       8.16412
_cell_length_b       10.65793
_cell_length_c       19.206450000000004
_cell_angle_alpha    90.10806
_cell_angle_beta     89.69312
_cell_angle_gamma    89.71916

_space_group_name_H-M_alt    "P 1"
_space_group_IT_number       1

loop_
  _space_group_symop_operation_xyz
  'x, y, z'

loop_
  _atom_site_type_symbol
  _atom_site_label
  _atom_site_symmetry_multiplicity
  _atom_site_fract_x
  _atom_site_fract_y
  _atom_site_fract_z
  _atom_site_occupancy
  In  In1       1.0  0.34858  0.56483  0.7322  1.0000
  In  In2       1.0  0.64357  0.37317  0.53692  1.0000
  In  In3       1.0  0.65134  0.44164  0.23072  1.0000
  In  In4       1.0  0.36166  0.6282  0.03952  1.0000
  In  In5       1.0  0.15198  0.06299  0.73166  1.0000
  In  In6       1.0  0.85474  0.87076  0.53722  1.0000
  In  In7       1.0  0.84501  0.9421199999999998  0.23216  1.0000
  In  In8       1.0  0.13966  0.12721  0.03888  1.0000
  P   P1        1.0  0.65149  0.65368  0.61587  1.0000
  P   P2        1.0  0.16697  0.7828299999999999  0.63419  1.0000
  P   P3        1.0  0.34001  0.55379  0.8755199999999999  1.0000
  P   P4        1.0  0.34136  0.34653  0.11781  1.0000
  P   P5        1.0  0.8312  0.21775999999999998  0.13395  1.0000
  P   P6        1.0  0.66065  0.45596  0.37405  1.0000
  P   P7        1.0  0.84748  0.15478  0.6151  1.0000
  P   P8        1.0  0.33288  0.28366  0.63521  1.0000
  P   P9        1.0  0.15919  0.05174  0.87522  1.0000
  P   P10       1.0  0.15367  0.84622  0.11959  1.0000
  P   P11       1.0  0.66365  0.72115  0.13535  1.0000
  P   P12       1.0  0.84002  0.95602  0.37547  1.0000
  H   H1        1.0  0.81282  0.62432  0.63502  1.0000
  H   H2        1.0  0.32489  0.80693  0.60865  1.0000
  H   H3        1.0  0.32369  0.4381999999999999  0.90986  1.0000
  H   H4        1.0  0.18137  0.37488  0.14036  1.0000
  H   H5        1.0  0.67124  0.19364  0.11193  1.0000
  H   H6        1.0  0.6685000000000001  0.57043  0.41013  1.0000
  H   H7        1.0  0.68668  0.13045  0.63747  1.0000
  H   H8        1.0  0.17488  0.30748  0.61011  1.0000
  H   H9        1.0  0.16278  0.9359199999999999  0.9101099999999999  1.0000
  H   H10       1.0  0.31213  0.8764900000000001  0.14195  1.0000
  H   H11       1.0  0.82316  0.69854  0.11118  1.0000
  H   H12       1.0  0.83824  0.07006  0.41222  1.0000
  C   C1        1.0  0.08021  0.52228  0.50995  1.0000
  C   C2        1.0  0.90085  0.39939  0.73184  1.0000
  C   C3        1.0  0.90756  0.48081000000000007  0.01137  1.0000
  C   C4        1.0  0.08812999999999999  0.59354  0.22688  1.0000
  C   C5        1.0  0.41153  0.02835  0.51017  1.0000
  C   C6        1.0  0.59872  0.9092099999999999  0.7253  1.0000
  C   C7        1.0  0.58382  0.9834  0.00984  1.0000
  C   C8        1.0  0.40432  0.09708  0.23154000000000002  1.0000
  O   O1        1.0  0.54802  0.6559  0.68203  1.0000
  O   O2        1.0  0.16778  0.65449  0.67117  1.0000
  O   O3        1.0  0.22211000000000006  0.51234  0.51705  1.0000
  O   O4        1.0  0.03933  0.38715  0.74676  1.0000
  O   O5        1.0  0.10929  0.89206  0.68031  1.0000
  O   O6        1.0  0.49330999999999997  0.54905  0.82743  1.0000
  O   O7        1.0  0.5957  0.55947  0.55938  1.0000
  O   O8        1.0  0.34966  0.65578  0.9338400000000001  1.0000
  O   O9        1.0  0.65186  0.7881600000000001  0.58361  1.0000
  O   O10       1.0  0.05738  0.76902  0.56839  1.0000
  O   O11       1.0  0.93728  0.53109  0.50298  1.0000
  O   O12       1.0  0.7628  0.41246  0.7163  1.0000
  O   O13       1.0  0.19301  0.57521  0.82604  1.0000
  O   O14       1.0  0.45189  0.3496  0.18117  1.0000
  O   O15       1.0  0.83283  0.34372  0.17339  1.0000
  O   O16       1.0  0.76808  0.48201  0.026330000000000003  1.0000
  O   O17       1.0  0.94549  0.59938  0.21933  1.0000
  O   O18       1.0  0.8969  0.10686  0.17675  1.0000
  O   O19       1.0  0.50739  0.45606  0.32671  1.0000
  O   O20       1.0  0.38788  0.4385  0.05865999999999999  1.0000
  O   O21       1.0  0.65844  0.3507  0.43062999999999996  1.0000
  O   O22       1.0  0.33976  0.21049  0.08731  1.0000
  O   O23       1.0  0.93531  0.23229000000000002  0.06607  1.0000
  O   O24       1.0  0.04755  0.48103  0.99642  1.0000
  O   O25       1.0  0.23066  0.58732  0.23317  1.0000
  O   O26       1.0  0.80882  0.44368  0.32357  1.0000
  O   O27       1.0  0.95443  0.15634  0.67981  1.0000
  O   O28       1.0  0.33313  0.15644  0.67322  1.0000
  O   O29       1.0  0.26986  0.0301  0.52047  1.0000
  O   O30       1.0  0.45509  0.9058999999999999  0.72249  1.0000
  O   O31       1.0  0.38876  0.39354  0.6806  1.0000
  O   O32       1.0  0.006779999999999999  0.0561  0.82712  1.0000
  O   O33       1.0  0.8963  0.0569  0.55909  1.0000
  O   O34       1.0  0.15776  0.1548  0.93332  1.0000
  O   O35       1.0  0.84866  0.28742  0.58037  1.0000
  O   O36       1.0  0.44392  0.26908  0.56926  1.0000
  O   O37       1.0  0.55388  0.02528  0.49986  1.0000
  O   O38       1.0  0.74231  0.91279  0.72658  1.0000
  O   O39       1.0  0.30884  0.06223  0.82572  1.0000
  O   O40       1.0  0.04243000000000001  0.8440799999999999  0.18349  1.0000
  O   O41       1.0  0.66074  0.84489  0.17688  1.0000
  O   O42       1.0  0.72286  0.9933599999999999  0.02366  1.0000
  O   O43       1.0  0.54753  0.10665999999999999  0.22922  1.0000
  O   O44       1.0  0.60061  0.60775  0.17657  1.0000
  O   O45       1.0  0.99246  0.95036  0.32713  1.0000
  O   O46       1.0  0.10366  0.94027  0.0621  1.0000
  O   O47       1.0  0.83639  0.8498  0.43139999999999995  1.0000
  O   O48       1.0  0.15928  0.71162  0.08734  1.0000
  O   O49       1.0  0.55744  0.73846  0.06873  1.0000
  O   O50       1.0  0.4438  0.97504  0.9963699999999999  1.0000
  O   O51       1.0  0.26129  0.08733  0.23288  1.0000
  O   O52       1.0  0.6905000000000001  0.9498699999999999  0.32623  1.0000
