data_image0
_chemical_formula_structural       Gd4H8C28N8O24
_chemical_formula_sum              "Gd4 H8 C28 N8 O24"
_cell_length_a       8.30947
_cell_length_b       9.357229999999998
_cell_length_c       16.22889
_cell_angle_alpha    90.00005999999999
_cell_angle_beta     89.99955
_cell_angle_gamma    97.54391999999999

_space_group_name_H-M_alt    "P 1"
_space_group_IT_number       1

loop_
  _space_group_symop_operation_xyz
  'x, y, z'

loop_
  _atom_site_type_symbol
  _atom_site_label
  _atom_site_symmetry_multiplicity
  _atom_site_fract_x
  _atom_site_fract_y
  _atom_site_fract_z
  _atom_site_occupancy
  Gd  Gd1       1.0  0.9650699999999999  0.13258  0.33425  1.0000
  Gd  Gd2       1.0  0.53491  0.36741  0.83424  1.0000
  Gd  Gd3       1.0  0.03490999999999999  0.86741  0.66575  1.0000
  Gd  Gd4       1.0  0.46507  0.63258  0.16575  1.0000
  H   H1        1.0  0.9736100000000001  0.70716  0.3901999999999999  1.0000
  H   H2        1.0  0.61938  0.3204  0.2554  1.0000
  H   H3        1.0  0.52637  0.79283  0.8902  1.0000
  H   H4        1.0  0.8806099999999999  0.17959  0.7554  1.0000
  H   H5        1.0  0.026369999999999994  0.29283  0.6098  1.0000
  H   H6        1.0  0.3806099999999999  0.67959  0.7446  1.0000
  H   H7        1.0  0.47362  0.20716  0.1098  1.0000
  H   H8        1.0  0.11937999999999996  0.8204  0.2446  1.0000
  C   C1        1.0  0.91939  0.47866  0.36912  1.0000
  C   C2        1.0  0.72744  0.79931  0.29013  1.0000
  C   C3        1.0  0.89288  0.62214  0.3600099999999999  1.0000
  C   C4        1.0  0.76552  0.64933  0.30968  1.0000
  C   C5        1.0  0.06905  0.44269000000000003  0.41553  1.0000
  C   C6        1.0  0.6986999999999999  0.40641  0.28587  1.0000
  C   C7        1.0  0.91126  0.01263  0.5114  1.0000
  C   C8        1.0  0.5806  0.02133  0.8691099999999998  1.0000
  C   C9        1.0  0.77254  0.70068  0.7901299999999998  1.0000
  C   C10       1.0  0.6071  0.87785  0.86001  1.0000
  C   C11       1.0  0.73447  0.85066  0.80968  1.0000
  C   C12       1.0  0.43094  0.0573  0.91553  1.0000
  C   C13       1.0  0.80129  0.09358  0.78587  1.0000
  C   C14       1.0  0.58873  0.48736  0.01141  1.0000
  C   C15       1.0  0.0806  0.52133  0.63088  1.0000
  C   C16       1.0  0.27254  0.20068  0.70987  1.0000
  C   C17       1.0  0.10711  0.37785  0.63999  1.0000
  C   C18       1.0  0.23447000000000004  0.35066  0.69031  1.0000
  C   C19       1.0  0.93094  0.5573  0.58446  1.0000
  C   C20       1.0  0.30129  0.59358  0.71413  1.0000
  C   C21       1.0  0.08873000000000002  0.98736  0.4885899999999999  1.0000
  C   C22       1.0  0.41939  0.9786600000000001  0.13087999999999994  1.0000
  C   C23       1.0  0.22745  0.29931  0.20987  1.0000
  C   C24       1.0  0.39288  0.12214  0.13999  1.0000
  C   C25       1.0  0.26552  0.14933  0.19032  1.0000
  C   C26       1.0  0.56905  0.94269  0.08446999999999998  1.0000
  C   C27       1.0  0.19869999999999996  0.9064099999999999  0.21413  1.0000
  C   C28       1.0  0.41125999999999996  0.51263  0.98859  1.0000
  N   N1        1.0  0.8209199999999998  0.37013  0.33247  1.0000
  N   N2        1.0  0.6674  0.54121  0.27232  1.0000
  N   N3        1.0  0.67906  0.12986  0.83247  1.0000
  N   N4        1.0  0.8325799999999997  0.95878  0.7723199999999999  1.0000
  N   N5        1.0  0.17906  0.62986  0.66753  1.0000
  N   N6        1.0  0.33258  0.45878  0.72768  1.0000
  N   N7        1.0  0.3209199999999999  0.8701299999999998  0.16753  1.0000
  N   N8        1.0  0.1674  0.04121  0.22768  1.0000
  O   O1        1.0  0.08072  0.30641  0.42044999999999993  1.0000
  O   O2        1.0  0.8392400000000001  0.9037300000000001  0.30002  1.0000
  O   O3        1.0  0.82583  0.05747  0.45501  1.0000
  O   O4        1.0  0.58692  0.80802  0.26228  1.0000
  O   O5        1.0  0.86655  0.98661  0.58539  1.0000
  O   O6        1.0  0.1656  0.54387  0.44212  1.0000
  O   O7        1.0  0.41927  0.19358  0.92045  1.0000
  O   O8        1.0  0.66074  0.59626  0.8000199999999997  1.0000
  O   O9        1.0  0.67415  0.44252  0.955  1.0000
  O   O10       1.0  0.91306  0.69196  0.76227  1.0000
  O   O11       1.0  0.63344  0.51338  0.08539  1.0000
  O   O12       1.0  0.33438  0.95612  0.94212  1.0000
  O   O13       1.0  0.91927  0.69358  0.57955  1.0000
  O   O14       1.0  0.16075  0.09626  0.69998  1.0000
  O   O15       1.0  0.17416  0.9425200000000001  0.54499  1.0000
  O   O16       1.0  0.41305999999999987  0.19197  0.73772  1.0000
  O   O17       1.0  0.13344  0.01338  0.41461  1.0000
  O   O18       1.0  0.83438  0.45612  0.55788  1.0000
  O   O19       1.0  0.58072  0.80641  0.07955  1.0000
  O   O20       1.0  0.33924  0.40373  0.19998  1.0000
  O   O21       1.0  0.3258399999999999  0.55747  0.04499  1.0000
  O   O22       1.0  0.08693  0.30803  0.23772  1.0000
  O   O23       1.0  0.36655  0.48660999999999993  0.91461  1.0000
  O   O24       1.0  0.66561  0.04387  0.05788  1.0000
