data_image0
_chemical_formula_structural       Ni3H8C20N12O8
_chemical_formula_sum              "Ni3 H8 C20 N12 O8"
_cell_length_a       7.68181
_cell_length_b       9.08396
_cell_length_c       11.07646
_cell_angle_alpha    101.80748
_cell_angle_beta     88.70700999999998
_cell_angle_gamma    98.73835

_space_group_name_H-M_alt    "P 1"
_space_group_IT_number       1

loop_
  _space_group_symop_operation_xyz
  'x, y, z'

loop_
  _atom_site_type_symbol
  _atom_site_label
  _atom_site_symmetry_multiplicity
  _atom_site_fract_x
  _atom_site_fract_y
  _atom_site_fract_z
  _atom_site_occupancy
  Ni  Ni1       1.0  0.01274  0.04861  0.17991  1.0000
  Ni  Ni2       1.0  0.9956099999999999  0.95172  0.8206700000000001  1.0000
  Ni  Ni3       1.0  0.50399  0.49974  0.50161  1.0000
  H   H1        1.0  0.02736999999999994  0.8271299999999998  0.53762  1.0000
  H   H2        1.0  0.2178  0.6448199999999998  0.42352  1.0000
  H   H3        1.0  0.4663199999999999  0.63342  0.7516200000000001  1.0000
  H   H4        1.0  0.40656999999999993  0.8560199999999998  0.29067  1.0000
  H   H5        1.0  0.9812  0.17190000000000003  0.46302000000000004  1.0000
  H   H6        1.0  0.79057  0.35309  0.57802  1.0000
  H   H7        1.0  0.5411999999999999  0.36665  0.25085  1.0000
  H   H8        1.0  0.60155  0.14163  0.70964  1.0000
  C   C1        1.0  0.27192  0.839  0.8994400000000001  1.0000
  C   C2        1.0  0.26841000000000004  0.78237  0.76803  1.0000
  C   C3        1.0  0.12447999999999998  0.7859799999999998  0.58687  1.0000
  C   C4        1.0  0.22946999999999998  0.6836399999999999  0.52292  1.0000
  C   C5        1.0  0.37090999999999996  0.6791999999999998  0.70494  1.0000
  C   C6        1.0  0.25647  0.10701999999999999  0.35891  1.0000
  C   C7        1.0  0.37972  0.04927  0.43451  1.0000
  C   C8        1.0  0.43288  0.13143  0.55291  1.0000
  C   C9        1.0  0.35683  0.27281  0.60927  1.0000
  C   C10       1.0  0.45011  0.91743  0.38244  1.0000
  C   C11       1.0  0.73703  0.16238  0.10162  1.0000
  C   C12       1.0  0.7398199999999999  0.2180499999999999  0.23325  1.0000
  C   C13       1.0  0.88385  0.21319000000000002  0.41412000000000004  1.0000
  C   C14       1.0  0.77853  0.31500000000000006  0.4786000000000001  1.0000
  C   C15       1.0  0.6369  0.32056  0.29705  1.0000
  C   C16       1.0  0.75192  0.8920500000000001  0.64117  1.0000
  C   C17       1.0  0.62915  0.94922  0.56506  1.0000
  C   C18       1.0  0.57611  0.8669099999999998  0.44668  1.0000
  C   C19       1.0  0.64954  0.7237399999999998  0.39077  1.0000
  C   C20       1.0  0.55861  0.08094999999999995  0.61736  1.0000
  N   N1        1.0  0.13987  0.91686  0.94275  1.0000
  N   N2        1.0  0.16361  0.95158  0.06605  1.0000
  N   N3        1.0  0.30757  0.89821  0.09445  1.0000
  N   N4        1.0  0.37685  0.8272  0.99093  1.0000
  N   N5        1.0  0.14215  0.83459  0.70995  1.0000
  N   N6        1.0  0.35028  0.62988  0.58187  1.0000
  N   N7        1.0  0.8688  0.08413  0.05814  1.0000
  N   N8        1.0  0.8456  0.05012000000000002  0.9347799999999999  1.0000
  N   N9        1.0  0.70238  0.10450999999999996  0.9064  1.0000
  N   N10       1.0  0.63296  0.17527  0.00998  1.0000
  N   N11       1.0  0.86613  0.16541  0.29095  1.0000
  N   N12       1.0  0.65739  0.36916  0.42027  1.0000
  O   O1        1.0  0.13167  0.00030999999999999295  0.30591  1.0000
  O   O2        1.0  0.27561999999999987  0.24252  0.34843  1.0000
  O   O3        1.0  0.47619  0.39792000000000005  0.63436  1.0000
  O   O4        1.0  0.19862  0.26693  0.63242  1.0000
  O   O5        1.0  0.8760199999999998  0.99923  0.69456  1.0000
  O   O6        1.0  0.73293  0.75658  0.65189  1.0000
  O   O7        1.0  0.5269  0.60052  0.3677  1.0000
  O   O8        1.0  0.8072699999999999  0.7261  0.36685  1.0000
