data_image0
_chemical_formula_structural       V4Co2H20C24N4O10
_chemical_formula_sum              "V4 Co2 H20 C24 N4 O10"
_cell_length_a       7.92515
_cell_length_b       11.40529
_cell_length_c       13.319969999999998
_cell_angle_alpha    95.53323
_cell_angle_beta     107.37162
_cell_angle_gamma    100.1652

_symmetry_space_group_name_H-M    'P 1'
_symmetry_Int_Tables_number       1

loop_
  _symmetry_equiv_pos_as_xyz
  'x,y,z'

loop_
  _atom_site_type_symbol
  _atom_site_label
  _atom_site_symmetry_multiplicity
  _atom_site_fract_x
  _atom_site_fract_y
  _atom_site_fract_z
  _atom_site_occupancy
  V   V1        1.0  0.87039  0.69029  0.9825399999999999  1.0000
  V   V2        1.0  0.80596  0.44165  0.8803  1.0000
  V   V3        1.0  0.12939  0.30966  0.0176  1.0000
  V   V4        1.0  0.19366000000000003  0.5582800000000001  0.11975  1.0000
  Co  Co1       1.0  0.49956999999999985  0.49999  0.9999199999999999  1.0000
  Co  Co2       1.0  0.99979  0.99994  0.9999599999999998  1.0000
  H   H1        1.0  0.08239000000000007  0.8514500000000002  0.83862  1.0000
  H   H2        1.0  0.09806000000000004  0.8650100000000002  0.65826  1.0000
  H   H3        1.0  0.8592  0.17843  0.66307  1.0000
  H   H4        1.0  0.84562  0.14863  0.84109  1.0000
  H   H5        1.0  0.9115499999999995  0.11058  0.50303  1.0000
  H   H6        1.0  0.65101  0.66628  0.20318999999999998  1.0000
  H   H7        1.0  0.8286199999999998  0.65888  0.3883099999999999  1.0000
  H   H8        1.0  0.90351  0.30972  0.27383  1.0000
  H   H9        1.0  0.70608  0.32758000000000004  0.09412  1.0000
  H   H10       1.0  0.04810999999999996  0.38536  0.45523999999999987  1.0000
  H   H11       1.0  0.9174799999999997  0.14852  0.16136  1.0000
  H   H12       1.0  0.90192  0.13499000000000003  0.34174  1.0000
  H   H13       1.0  0.14079  0.8215900000000002  0.33691999999999994  1.0000
  H   H14       1.0  0.1542900000000001  0.8513500000000003  0.15888  1.0000
  H   H15       1.0  0.08847999999999992  0.88943  0.4969699999999999  1.0000
  H   H16       1.0  0.34866999999999987  0.33372000000000007  0.79677  1.0000
  H   H17       1.0  0.17133999999999996  0.34117  0.61158  1.0000
  H   H18       1.0  0.09637000000000003  0.69035  0.72601  1.0000
  H   H19       1.0  0.29358  0.67242  0.90578  1.0000
  H   H20       1.0  0.9518199999999998  0.61467  0.54466  1.0000
  C   C1        1.0  0.03489  0.9228400000000001  0.79735  1.0000
  C   C2        1.0  0.04154999999999999  0.93065  0.69532  1.0000
  C   C3        1.0  0.978  0.023289999999999977  0.6408099999999999  1.0000
  C   C4        1.0  0.9081399999999998  0.10318999999999999  0.6974399999999998  1.0000
  C   C5        1.0  0.90248  0.08895  0.79877  1.0000
  C   C6        1.0  0.9714299999999999  0.036229999999999984  0.53293  1.0000
  C   C7        1.0  0.70307  0.58694  0.22339  1.0000
  C   C8        1.0  0.8059199999999997  0.58253  0.32657  1.0000
  C   C9        1.0  0.87833  0.4795400000000001  0.34954999999999997  1.0000
  C   C10       1.0  0.8448899999999998  0.38853  0.26222  1.0000
  C   C11       1.0  0.73597  0.3976100000000001  0.16189  1.0000
  C   C12       1.0  0.9869899999999998  0.46397999999999995  0.45323999999999987  1.0000
  C   C13       1.0  0.965  0.07714  0.20263  1.0000
  C   C14       1.0  0.9584399999999998  0.06936  0.30469  1.0000
  C   C15       1.0  0.022019999999999932  0.97672  0.3591899999999999  1.0000
  C   C16       1.0  0.09186  0.89682  0.30254999999999993  1.0000
  C   C17       1.0  0.09743999999999998  0.91104  0.20119999999999996  1.0000
  C   C18       1.0  0.028599999999999993  0.96378  0.46707999999999994  1.0000
  C   C19       1.0  0.2966  0.41305  0.77653  1.0000
  C   C20       1.0  0.19389999999999988  0.41748  0.6733299999999998  1.0000
  C   C21       1.0  0.12149  0.52047  0.65034  1.0000
  C   C22       1.0  0.15486000000000003  0.61149  0.7376399999999999  1.0000
  C   C23       1.0  0.26364999999999994  0.6024  0.838  1.0000
  C   C24       1.0  0.01291999999999999  0.53604  0.54664  1.0000
  N   N1        1.0  0.9671899999999998  0.0009199999999999756  0.8509599999999999  1.0000
  N   N2        1.0  0.66718  0.49633  0.14077  1.0000
  N   N3        1.0  0.03258999999999997  0.99902  0.149  1.0000
  N   N4        1.0  0.3323099999999997  0.50364  0.8591399999999999  1.0000
  O   O1        1.0  0.64054  0.40991  0.93219  1.0000
  O   O2        1.0  0.6661299999999997  0.6675  0.9937299999999998  1.0000
  O   O3        1.0  0.021000000000000053  0.6457000000000002  0.09631999999999999  1.0000
  O   O4        1.0  0.94723  0.83838  0.97418  1.0000
  O   O5        1.0  0.8601199999999999  0.59729  0.8624699999999998  1.0000
  O   O6        1.0  0.35913  0.59016  0.06787  1.0000
  O   O7        1.0  0.33352  0.3326  0.00617  1.0000
  O   O8        1.0  0.97851  0.35427000000000003  0.90395  1.0000
  O   O9        1.0  0.05260999999999999  0.16148000000000004  0.02581  1.0000
  O   O10       1.0  0.13982999999999998  0.40264000000000005  0.13776  1.0000
