data_image0
_chemical_formula_structural       Al2H4C20O18
_chemical_formula_sum              "Al2 H4 C20 O18"
_cell_length_a       6.57042
_cell_length_b       11.23566
_cell_length_c       11.24148
_cell_angle_alpha    68.75161
_cell_angle_beta     71.66159
_cell_angle_gamma    71.67734

_symmetry_space_group_name_H-M    'P 1'
_symmetry_Int_Tables_number       1

loop_
  _symmetry_equiv_pos_as_xyz
  'x,y,z'

loop_
  _atom_site_type_symbol
  _atom_site_label
  _atom_site_symmetry_multiplicity
  _atom_site_fract_x
  _atom_site_fract_y
  _atom_site_fract_z
  _atom_site_occupancy
  Al  Al1       1.0  0.0  0.0  0.0  1.0000
  Al  Al2       1.0  0.5  0.0  0.0  1.0000
  H   H1        1.0  0.37595000000000006  0.88269  0.40946999999999995  1.0000
  H   H2        1.0  0.12415000000000001  0.5904  0.11744999999999998  1.0000
  H   H3        1.0  0.6240399999999998  0.11731000000000001  0.59053  1.0000
  H   H4        1.0  0.8758499999999998  0.4096  0.88255  1.0000
  C   C1        1.0  0.06077000000000008  0.9925799999999999  0.36933999999999995  1.0000
  C   C2        1.0  0.8441999999999998  0.056260000000000025  0.4213799999999999  1.0000
  C   C3        1.0  0.21245999999999998  0.93543  0.44776  1.0000
  C   C4        1.0  0.12918999999999992  0.9860300000000001  0.23075  1.0000
  C   C5        1.0  0.6730699999999998  0.12634  0.34323999999999993  1.0000
  C   C6        1.0  0.43908999999999987  0.63073  0.007359999999999999  1.0000
  C   C7        1.0  0.6556899999999998  0.5787700000000001  0.9436799999999999  1.0000
  C   C8        1.0  0.28753  0.55217  0.0646  1.0000
  C   C9        1.0  0.37063000000000007  0.76933  0.013959999999999998  1.0000
  C   C10       1.0  0.8269399999999999  0.6568900000000002  0.8736199999999997  1.0000
  C   C11       1.0  0.9392199999999998  0.007420000000000021  0.6306599999999999  1.0000
  C   C12       1.0  0.15579000000000018  0.94374  0.57862  1.0000
  C   C13       1.0  0.78753  0.06457  0.55223  1.0000
  C   C14       1.0  0.8708  0.013970000000000036  0.76925  1.0000
  C   C15       1.0  0.3269200000000002  0.87366  0.65676  1.0000
  C   C16       1.0  0.5608999999999998  0.36927  0.99264  1.0000
  C   C17       1.0  0.34430999999999995  0.42123  0.056319999999999995  1.0000
  C   C18       1.0  0.7124599999999998  0.44783  0.9354  1.0000
  C   C19       1.0  0.62936  0.23067000000000007  0.9860399999999998  1.0000
  C   C20       1.0  0.1730599999999999  0.34311000000000014  0.12638  1.0000
  O   O1        1.0  0.97284  0.011360000000000002  0.17544999999999997  1.0000
  O   O2        1.0  0.33477999999999986  0.95516  0.18481  1.0000
  O   O3        1.0  0.6788400000000002  0.24539  0.28879999999999995  1.0000
  O   O4        1.0  0.5290999999999998  0.07779  0.3383  1.0000
  O   O5        1.0  0.5269100000000001  0.82472  0.98861  1.0000
  O   O6        1.0  0.1649999999999999  0.8152300000000001  0.04489  1.0000
  O   O7        1.0  0.82133  0.7111999999999999  0.7546099999999999  1.0000
  O   O8        1.0  0.9710100000000002  0.66173  0.9221099999999999  1.0000
  O   O9        1.0  0.02715000000000004  0.98864  0.82455  1.0000
  O   O10       1.0  0.66521  0.04483999999999998  0.81519  1.0000
  O   O11       1.0  0.32115  0.75461  0.7111899999999998  1.0000
  O   O12       1.0  0.47089000000000014  0.92221  0.66169  1.0000
  O   O13       1.0  0.47308  0.17528  0.01139  1.0000
  O   O14       1.0  0.8349900000000001  0.18477000000000007  0.9550999999999997  1.0000
  O   O15       1.0  0.17866  0.2888  0.24538999999999997  1.0000
  O   O16       1.0  0.028989999999999988  0.33827  0.07789  1.0000
  O   O17       1.0  0.24992000000000014  0.05483000000000001  0.9453699999999999  1.0000
  O   O18       1.0  0.75008  0.9451800000000001  0.05461999999999999  1.0000
