data_image0
_chemical_formula_structural       La2H16C30N2O14
_chemical_formula_sum              "La2 H16 C30 N2 O14"
_cell_length_a       9.97454
_cell_length_b       9.74193
_cell_length_c       11.20598
_cell_angle_alpha    74.14115
_cell_angle_beta     88.87832
_cell_angle_gamma    68.59972

_space_group_name_H-M_alt    "P 1"
_space_group_IT_number       1

loop_
  _space_group_symop_operation_xyz
  'x, y, z'

loop_
  _atom_site_type_symbol
  _atom_site_label
  _atom_site_symmetry_multiplicity
  _atom_site_fract_x
  _atom_site_fract_y
  _atom_site_fract_z
  _atom_site_occupancy
  La  La1       1.0  0.02590000000000002  0.20321999999999996  0.9691600000000001  1.0000
  La  La2       1.0  0.9740900000000002  0.7967799999999999  0.03084  1.0000
  H   H1        1.0  0.5345700000000001  0.82838  0.9865300000000001  1.0000
  H   H2        1.0  0.66967  0.4255099999999999  0.8533500000000002  1.0000
  H   H3        1.0  0.22768  0.73785  0.7835900000000001  1.0000
  H   H4        1.0  0.45399  0.7068399999999999  0.56571  1.0000
  H   H5        1.0  0.3290100000000001  0.8042599999999999  0.34954  1.0000
  H   H6        1.0  0.11755999999999996  0.48011000000000004  0.45583  1.0000
  H   H7        1.0  0.28691  0.32922  0.77596  1.0000
  H   H8        1.0  0.15438000000000002  0.33303  0.6819000000000001  1.0000
  H   H9        1.0  0.46542999999999995  0.17162  0.01347  1.0000
  H   H10       1.0  0.33032999999999996  0.57449  0.14665000000000003  1.0000
  H   H11       1.0  0.7723199999999998  0.26215  0.21641  1.0000
  H   H12       1.0  0.54601  0.29316  0.43429000000000006  1.0000
  H   H13       1.0  0.67099  0.19573000000000002  0.65046  1.0000
  H   H14       1.0  0.8824400000000001  0.51989  0.5441700000000002  1.0000
  H   H15       1.0  0.7130899999999999  0.67078  0.22404000000000002  1.0000
  H   H16       1.0  0.84562  0.66697  0.3181  1.0000
  C   C1        1.0  0.25068999999999986  0.9254900000000001  0.91734  1.0000
  C   C2        1.0  0.3687000000000001  0.7956199999999998  0.8891900000000003  1.0000
  C   C3        1.0  0.5109900000000002  0.7572299999999998  0.9367100000000002  1.0000
  C   C4        1.0  0.6200599999999998  0.6234499999999998  0.9241500000000001  1.0000
  C   C5        1.0  0.7704500000000001  0.57364  0.98158  1.0000
  C   C6        1.0  0.58792  0.5323100000000001  0.86045  1.0000
  C   C7        1.0  0.4483599999999999  0.57731  0.80692  1.0000
  C   C8        1.0  0.3373400000000001  0.7074399999999998  0.8218200000000001  1.0000
  C   C9        1.0  0.35374  0.54176  0.62881  1.0000
  C   C10       1.0  0.37876999999999994  0.6598800000000001  0.54044  1.0000
  C   C11       1.0  0.30895  0.71459  0.42073  1.0000
  C   C12       1.0  0.21196000000000007  0.6513399999999999  0.39209  1.0000
  C   C13       1.0  0.13209999999999994  0.71043  0.26816  1.0000
  C   C14       1.0  0.19049999999999992  0.5298300000000001  0.4809  1.0000
  C   C15       1.0  0.26313000000000003  0.4700699999999999  0.60036  1.0000
  C   C16       1.0  0.74931  0.07451  0.08266000000000001  1.0000
  C   C17       1.0  0.6313  0.20437999999999998  0.11081  1.0000
  C   C18       1.0  0.48901  0.24277  0.06329  1.0000
  C   C19       1.0  0.37993000000000005  0.37655  0.07585000000000001  1.0000
  C   C20       1.0  0.22954  0.42635000000000006  0.01842  1.0000
  C   C21       1.0  0.41208000000000006  0.46769  0.13955  1.0000
  C   C22       1.0  0.55164  0.42268  0.19308  1.0000
  C   C23       1.0  0.66266  0.29256  0.17818  1.0000
  C   C24       1.0  0.6462599999999997  0.45824  0.37119  1.0000
  C   C25       1.0  0.62123  0.34011  0.45956  1.0000
  C   C26       1.0  0.6910499999999999  0.28541000000000005  0.57927  1.0000
  C   C27       1.0  0.7880400000000001  0.34866  0.60791  1.0000
  C   C28       1.0  0.86789  0.28957000000000005  0.73184  1.0000
  C   C29       1.0  0.8095000000000001  0.4701699999999998  0.5191100000000001  1.0000
  C   C30       1.0  0.73687  0.52993  0.39964  1.0000
  N   N1        1.0  0.25215  0.3436599999999999  0.6870100000000001  1.0000
  N   N2        1.0  0.74785  0.65634  0.31299  1.0000
  O   O1        1.0  0.11641999999999994  0.93673  0.90446  1.0000
  O   O2        1.0  0.27942000000000006  0.02403999999999994  0.9544800000000001  1.0000
  O   O3        1.0  0.8539599999999999  0.43310999999999994  0.9997200000000002  1.0000
  O   O4        1.0  0.8068999999999998  0.67305  0.01155  1.0000
  O   O5        1.0  0.42089  0.47956  0.74949  1.0000
  O   O6        1.0  0.16606999999999997  0.79967  0.17631  1.0000
  O   O7        1.0  0.02641000000000001  0.66758  0.2504  1.0000
  O   O8        1.0  0.88357  0.06326999999999999  0.09554  1.0000
  O   O9        1.0  0.72057  0.9759599999999999  0.04552  1.0000
  O   O10       1.0  0.14603000000000002  0.56689  0.00028  1.0000
  O   O11       1.0  0.19310000000000002  0.32694  0.98845  1.0000
  O   O12       1.0  0.57911  0.52044  0.25051  1.0000
  O   O13       1.0  0.83393  0.20033000000000004  0.82369  1.0000
  O   O14       1.0  0.97359  0.33241999999999994  0.7496000000000002  1.0000
