data_image0
_chemical_formula_structural       La4H24C24O30
_chemical_formula_sum              "La4 H24 C24 O30"
_cell_length_a       9.53754
_cell_length_b       9.53751
_cell_length_c       17.25175
_cell_angle_alpha    90.0
_cell_angle_beta     90.0
_cell_angle_gamma    120.09794000000001

_space_group_name_H-M_alt    "P 1"
_space_group_IT_number       1

loop_
  _space_group_symop_operation_xyz
  'x, y, z'

loop_
  _atom_site_type_symbol
  _atom_site_label
  _atom_site_symmetry_multiplicity
  _atom_site_fract_x
  _atom_site_fract_y
  _atom_site_fract_z
  _atom_site_occupancy
  La  La1       1.0  0.66699  0.33304  0.25  1.0000
  La  La2       1.0  0.33303999999999995  0.66699  0.75  1.0000
  La  La3       1.0  0.00013000000000000002  0.00013000000000000004  0.0  1.0000
  La  La4       1.0  0.00013000000000000002  0.00013000000000000004  0.5  1.0000
  H   H1        1.0  0.51415  0.17911  0.023350000000000003  1.0000
  H   H2        1.0  0.43024999999999997  0.01318  0.08946  1.0000
  H   H3        1.0  0.8213299999999999  0.33472000000000013  0.02316  1.0000
  H   H4        1.0  0.98705  0.41734  0.08941  1.0000
  H   H5        1.0  0.66465  0.48602  0.02323  1.0000
  H   H6        1.0  0.58249  0.56924  0.08944  1.0000
  H   H7        1.0  0.51415  0.17911  0.4766500000000001  1.0000
  H   H8        1.0  0.43024999999999997  0.01318  0.41054  1.0000
  H   H9        1.0  0.8213299999999999  0.33472000000000013  0.47684  1.0000
  H   H10       1.0  0.98705  0.41734  0.41059  1.0000
  H   H11       1.0  0.66465  0.48602  0.47677  1.0000
  H   H12       1.0  0.58249  0.56924  0.41056  1.0000
  H   H13       1.0  0.17911  0.51415  0.97665  1.0000
  H   H14       1.0  0.013179999999999994  0.43025  0.91054  1.0000
  H   H15       1.0  0.33472  0.82133  0.97684  1.0000
  H   H16       1.0  0.4173299999999999  0.9870600000000002  0.9105900000000002  1.0000
  H   H17       1.0  0.48602  0.66465  0.97677  1.0000
  H   H18       1.0  0.56923  0.58249  0.91056  1.0000
  H   H19       1.0  0.17911  0.51415  0.52335  1.0000
  H   H20       1.0  0.013179999999999994  0.43025  0.58946  1.0000
  H   H21       1.0  0.33472  0.82133  0.52316  1.0000
  H   H22       1.0  0.4173299999999999  0.9870600000000002  0.58941  1.0000
  H   H23       1.0  0.48602  0.66465  0.52323  1.0000
  H   H24       1.0  0.56923  0.58249  0.58944  1.0000
  C   C1        1.0  0.35067999999999994  0.18719  0.1067  1.0000
  C   C2        1.0  0.40242000000000006  0.09232000000000003  0.05412  1.0000
  C   C3        1.0  0.813  0.1632  0.10668  1.0000
  C   C4        1.0  0.9079899999999999  0.31006  0.05407  1.0000
  C   C5        1.0  0.8366699999999999  0.64971  0.10664000000000003  1.0000
  C   C6        1.0  0.6896999999999999  0.5976  0.05409000000000001  1.0000
  C   C7        1.0  0.35067999999999994  0.18719  0.39330000000000004  1.0000
  C   C8        1.0  0.40242000000000006  0.09232000000000003  0.44588  1.0000
  C   C9        1.0  0.813  0.1632  0.39332  1.0000
  C   C10       1.0  0.9079899999999999  0.31006  0.44593  1.0000
  C   C11       1.0  0.8366699999999999  0.64971  0.39336  1.0000
  C   C12       1.0  0.6896999999999999  0.5976  0.44591  1.0000
  C   C13       1.0  0.18718000000000007  0.3506700000000001  0.8933  1.0000
  C   C14       1.0  0.09231999999999999  0.40242  0.9458800000000002  1.0000
  C   C15       1.0  0.1632000000000001  0.8130100000000002  0.89332  1.0000
  C   C16       1.0  0.3100599999999999  0.90799  0.94593  1.0000
  C   C17       1.0  0.6497199999999999  0.83668  0.8933600000000003  1.0000
  C   C18       1.0  0.59759  0.6897  0.9459100000000001  1.0000
  C   C19       1.0  0.18718000000000007  0.3506700000000001  0.60669  1.0000
  C   C20       1.0  0.09231999999999999  0.40242  0.55412  1.0000
  C   C21       1.0  0.1632000000000001  0.8130100000000002  0.60667  1.0000
  C   C22       1.0  0.3100599999999999  0.90799  0.5540700000000002  1.0000
  C   C23       1.0  0.6497199999999999  0.83668  0.60664  1.0000
  C   C24       1.0  0.59759  0.6897  0.55409  1.0000
  O   O1        1.0  0.4511  0.2708  0.15987  1.0000
  O   O2        1.0  0.21769999999999998  0.18109  0.09396  1.0000
  O   O3        1.0  0.72937  0.18005000000000004  0.15978  1.0000
  O   O4        1.0  0.8189799999999998  0.03624  0.09406  1.0000
  O   O5        1.0  0.81974  0.54914  0.1597  1.0000
  O   O6        1.0  0.9637899999999999  0.78296  0.09402000000000003  1.0000
  O   O7        1.0  0.4511  0.2708  0.34013  1.0000
  O   O8        1.0  0.21769999999999998  0.18109  0.4060400000000001  1.0000
  O   O9        1.0  0.72937  0.18005000000000004  0.34022  1.0000
  O   O10       1.0  0.8189799999999998  0.03624  0.40594000000000013  1.0000
  O   O11       1.0  0.8197499999999999  0.54914  0.3403  1.0000
  O   O12       1.0  0.9637899999999999  0.78296  0.40598  1.0000
  O   O13       1.0  0.2708  0.45111  0.84012  1.0000
  O   O14       1.0  0.18109  0.21771  0.90603  1.0000
  O   O15       1.0  0.18005  0.72937  0.8402100000000002  1.0000
  O   O16       1.0  0.036250000000000115  0.8189800000000003  0.90594  1.0000
  O   O17       1.0  0.54913  0.81975  0.8403  1.0000
  O   O18       1.0  0.7829499999999999  0.96379  0.90598  1.0000
  O   O19       1.0  0.2708  0.45111  0.65987  1.0000
  O   O20       1.0  0.18109  0.21771  0.59396  1.0000
  O   O21       1.0  0.18005  0.72937  0.6597800000000001  1.0000
  O   O22       1.0  0.036250000000000115  0.8189800000000003  0.59406  1.0000
  O   O23       1.0  0.54913  0.81975  0.6597  1.0000
  O   O24       1.0  0.7829499999999999  0.96379  0.59402  1.0000
  O   O25       1.0  0.27529999999999993  0.00015  0.0  1.0000
  O   O26       1.0  0.00015000000000000744  0.2753  0.0  1.0000
  O   O27       1.0  0.72463  0.72463  0.0  1.0000
  O   O28       1.0  0.27529999999999993  0.00015  0.5  1.0000
  O   O29       1.0  0.00015000000000000744  0.2753  0.5  1.0000
  O   O30       1.0  0.72463  0.72463  0.5  1.0000
