data_image0
_chemical_formula_structural       Cu4H28C36N12O16
_chemical_formula_sum              "Cu4 H28 C36 N12 O16"
_cell_length_a       7.2726
_cell_length_b       8.673880000000002
_cell_length_c       19.15807
_cell_angle_alpha    94.86709999999998
_cell_angle_beta     96.56542
_cell_angle_gamma    111.07506

_space_group_name_H-M_alt    "P 1"
_space_group_IT_number       1

loop_
  _space_group_symop_operation_xyz
  'x, y, z'

loop_
  _atom_site_type_symbol
  _atom_site_label
  _atom_site_symmetry_multiplicity
  _atom_site_fract_x
  _atom_site_fract_y
  _atom_site_fract_z
  _atom_site_occupancy
  Cu  Cu1       1.0  0.32452  0.14889  0.17807  1.0000
  Cu  Cu2       1.0  0.9974199999999999  0.28968  0.33266  1.0000
  Cu  Cu3       1.0  0.67653  0.85095  0.82312  1.0000
  Cu  Cu4       1.0  0.0016900000000000979  0.71123  0.66853  1.0000
  H   H1        1.0  0.9697800000000001  0.6674900000000002  0.00859  1.0000
  H   H2        1.0  0.20090000000000005  0.64662  0.02774  1.0000
  H   H3        1.0  0.06465999999999995  0.67161  0.13655  1.0000
  H   H4        1.0  0.07365000000000002  0.46810000000000007  0.12221000000000001  1.0000
  H   H5        1.0  0.3595399999999999  0.4826400000000001  0.0978  1.0000
  H   H6        1.0  0.7649499999999999  0.24497000000000008  0.14809  1.0000
  H   H7        1.0  0.33566999999999997  0.8488700000000002  0.52179  1.0000
  H   H8        1.0  0.55114  0.84139  0.49196  1.0000
  H   H9        1.0  0.27388  0.73139  0.39369  1.0000
  H   H10       1.0  0.44920999999999994  0.92082  0.37424  1.0000
  H   H11       1.0  0.7659699999999998  0.95195  0.4106  1.0000
  H   H12       1.0  0.33589999999999987  0.15241000000000002  0.34967000000000004  1.0000
  H   H13       1.0  0.0017400000000000755  0.7216800000000002  0.25201  1.0000
  H   H14       1.0  0.31289  0.69487  0.25465  1.0000
  H   H15       1.0  0.029459999999999993  0.33184  0.99139  1.0000
  H   H16       1.0  0.79848  0.35292000000000007  0.9721899999999999  1.0000
  H   H17       1.0  0.9344399999999998  0.32745  0.86346  1.0000
  H   H18       1.0  0.9260100000000001  0.5313100000000002  0.87772  1.0000
  H   H19       1.0  0.6396  0.51576  0.90203  1.0000
  H   H20       1.0  0.23442  0.7535000000000002  0.85134  1.0000
  H   H21       1.0  0.66398  0.15119000000000002  0.4778800000000001  1.0000
  H   H22       1.0  0.44853999999999994  0.15855  0.50779  1.0000
  H   H23       1.0  0.72604  0.26872  0.60596  1.0000
  H   H24       1.0  0.55042  0.07951000000000004  0.62544  1.0000
  H   H25       1.0  0.23313999999999993  0.04676000000000001  0.58961  1.0000
  H   H26       1.0  0.6629799999999999  0.8482400000000001  0.65065  1.0000
  H   H27       1.0  0.99693  0.27699000000000007  0.7477800000000001  1.0000
  H   H28       1.0  0.6862399999999997  0.30477  0.745  1.0000
  C   C1        1.0  0.03951000000000001  0.58073  0.02573  1.0000
  C   C2        1.0  0.0046000000000000155  0.55229  0.10128  1.0000
  C   C3        1.0  0.4943999999999999  0.45524  0.10457  1.0000
  C   C4        1.0  0.6973299999999999  0.3314300000000001  0.13071  1.0000
  C   C5        1.0  0.4460899999999999  0.90627  0.48757  1.0000
  C   C6        1.0  0.34323000000000015  0.8664600000000003  0.41045  1.0000
  C   C7        1.0  0.9179599999999998  0.97177  0.4030500000000001  1.0000
  C   C8        1.0  0.20635  0.07698999999999999  0.3711  1.0000
  C   C9        1.0  0.52255  0.57975  0.28269  1.0000
  C   C10       1.0  0.7172500000000002  0.5837500000000002  0.28086  1.0000
  C   C11       1.0  0.8498199999999999  0.71465  0.25252  1.0000
  C   C12       1.0  0.7947199999999998  0.83736  0.22419  1.0000
  C   C13       1.0  0.5984899999999997  0.8295  0.2242  1.0000
  C   C14       1.0  0.4659500000000001  0.7026600000000002  0.25481  1.0000
  C   C15       1.0  0.3584399999999999  0.43978  0.3048  1.0000
  C   C16       1.0  0.7913200000000001  0.45607000000000003  0.30566  1.0000
  C   C17       1.0  0.9487099999999998  0.97251  0.19479  1.0000
  C   C18       1.0  0.5201399999999999  0.94963  0.19127  1.0000
  C   C19       1.0  0.9598899999999998  0.41868000000000005  0.9742100000000001  1.0000
  C   C20       1.0  0.9947300000000001  0.44691000000000014  0.8986400000000001  1.0000
  C   C21       1.0  0.5047899999999998  0.54329  0.8953  1.0000
  C   C22       1.0  0.3019899999999999  0.66719  0.8689699999999999  1.0000
  C   C23       1.0  0.55366  0.09374000000000003  0.51213  1.0000
  C   C24       1.0  0.65651  0.13365  0.58923  1.0000
  C   C25       1.0  0.08119  0.027369999999999995  0.59712  1.0000
  C   C26       1.0  0.79267  0.9231900000000002  0.62913  1.0000
  C   C27       1.0  0.47613  0.42001  0.71718  1.0000
  C   C28       1.0  0.2812700000000001  0.41545000000000004  0.719  1.0000
  C   C29       1.0  0.14881  0.28408  0.74717  1.0000
  C   C30       1.0  0.20481  0.16194  0.77567  1.0000
  C   C31       1.0  0.40105  0.17  0.77539  1.0000
  C   C32       1.0  0.5332  0.29707  0.74483  1.0000
  C   C33       1.0  0.6401799999999997  0.56004  0.6950600000000001  1.0000
  C   C34       1.0  0.20765  0.54354  0.69434  1.0000
  C   C35       1.0  0.052919999999999974  0.026940000000000054  0.8058  1.0000
  C   C36       1.0  0.4810299999999999  0.05135000000000001  0.80896  1.0000
  N   N1        1.0  0.79221  0.4739000000000001  0.10574  1.0000
  N   N2        1.0  0.6651999999999998  0.55463  0.0881  1.0000
  N   N3        1.0  0.50652  0.31639000000000006  0.13109  1.0000
  N   N4        1.0  0.18982  0.93762  0.39927  1.0000
  N   N5        1.0  0.006980000000000049  0.8684  0.42073  1.0000
  N   N6        1.0  0.034860000000000016  0.10279000000000002  0.37267  1.0000
  N   N7        1.0  0.20708000000000007  0.5249400000000002  0.89408  1.0000
  N   N8        1.0  0.33396000000000003  0.4441800000000001  0.91184  1.0000
  N   N9        1.0  0.4927199999999999  0.68205  0.86868  1.0000
  N   N10       1.0  0.8096099999999998  0.062200000000000005  0.60059  1.0000
  N   N11       1.0  0.99248  0.13071  0.57908  1.0000
  N   N12       1.0  0.9640399999999998  0.89708  0.62779  1.0000
  O   O1        1.0  0.2776  0.30326  0.26352  1.0000
  O   O2        1.0  0.28888999999999987  0.46786  0.36084  1.0000
  O   O3        1.0  0.94289  0.44635000000000014  0.27781  1.0000
  O   O4        1.0  0.72269  0.36167  0.351  1.0000
  O   O5        1.0  0.12016999999999992  0.95569  0.19932  1.0000
  O   O6        1.0  0.91676  0.09097  0.17001  1.0000
  O   O7        1.0  0.53592  0.07782  0.23446  1.0000
  O   O8        1.0  0.4346600000000001  0.9136800000000003  0.12844  1.0000
  O   O9        1.0  0.7222199999999998  0.69657  0.73636  1.0000
  O   O10       1.0  0.7087  0.53145  0.63891  1.0000
  O   O11       1.0  0.05623  0.5534  0.72227  1.0000
  O   O12       1.0  0.2767  0.6380500000000002  0.64912  1.0000
  O   O13       1.0  0.88346  0.04601000000000005  0.80485  1.0000
  O   O14       1.0  0.08453999999999999  0.9055500000000004  0.82771  1.0000
  O   O15       1.0  0.47120999999999996  0.9245900000000001  0.76604  1.0000
  O   O16       1.0  0.5627499999999998  0.08753000000000002  0.8721800000000001  1.0000
