data_image0
_chemical_formula_structural       Cu4H8C16O16
_chemical_formula_sum              "Cu4 H8 C16 O16"
_cell_length_a       4.49475
_cell_length_b       12.8302
_cell_length_c       12.74521
_cell_angle_alpha    88.37131
_cell_angle_beta     79.67465
_cell_angle_gamma    79.5713

_symmetry_space_group_name_H-M    'P 1'
_symmetry_Int_Tables_number       1

loop_
  _symmetry_equiv_pos_as_xyz
  'x,y,z'

loop_
  _atom_site_type_symbol
  _atom_site_label
  _atom_site_symmetry_multiplicity
  _atom_site_fract_x
  _atom_site_fract_y
  _atom_site_fract_z
  _atom_site_occupancy
  Cu  Cu1       1.0  0.0  0.5  0.5  1.0000
  Cu  Cu2       1.0  0.0  0.0  0.0  1.0000
  Cu  Cu3       1.0  0.0  0.5  0.0  1.0000
  Cu  Cu4       1.0  0.5  0.0  0.5  1.0000
  H   H1        1.0  0.34677000000000013  0.325  0.6801  1.0000
  H   H2        1.0  0.3528800000000001  0.17399  0.81769  1.0000
  H   H3        1.0  0.16594999999999996  0.68246  0.17421999999999999  1.0000
  H   H4        1.0  0.016730000000000012  0.82005  0.32716999999999996  1.0000
  H   H5        1.0  0.65324  0.67499  0.3199  1.0000
  H   H6        1.0  0.64713  0.82601  0.18231  1.0000
  H   H7        1.0  0.83406  0.3175299999999999  0.8257799999999998  1.0000
  H   H8        1.0  0.9832800000000002  0.17994000000000002  0.67284  1.0000
  C   C1        1.0  0.58842  0.31204  0.69203  1.0000
  C   C2        1.0  0.75653  0.3837900000000001  0.62093  1.0000
  C   C3        1.0  0.5933399999999999  0.18671  0.80635  1.0000
  C   C4        1.0  0.76179  0.11539  0.87809  1.0000
  C   C5        1.0  0.39463000000000004  0.69367  0.18739  1.0000
  C   C6        1.0  0.6366999999999998  0.62193  0.11549  1.0000
  C   C7        1.0  0.27077999999999997  0.8077500000000001  0.31404  1.0000
  C   C8        1.0  0.3693500000000001  0.87881  0.38542  1.0000
  C   C9        1.0  0.41158999999999996  0.6879499999999998  0.30797  1.0000
  C   C10       1.0  0.24347999999999997  0.61621  0.37908  1.0000
  C   C11       1.0  0.40666999999999986  0.81329  0.19366  1.0000
  C   C12       1.0  0.23821999999999988  0.8846100000000001  0.12191  1.0000
  C   C13       1.0  0.6053800000000003  0.30632  0.81261  1.0000
  C   C14       1.0  0.36329999999999996  0.37806000000000006  0.88451  1.0000
  C   C15       1.0  0.72922  0.19225  0.68596  1.0000
  C   C16       1.0  0.6306600000000001  0.12118000000000001  0.61458  1.0000
  O   O1        1.0  0.9577300000000001  0.43034000000000006  0.6503  1.0000
  O   O2        1.0  0.7020900000000001  0.40039  0.5259  1.0000
  O   O3        1.0  0.04068000000000003  0.06844  0.84938  1.0000
  O   O4        1.0  0.62661  0.09992  0.97328  1.0000
  O   O5        1.0  0.8864600000000001  0.6501799999999999  0.06841  1.0000
  O   O6        1.0  0.59958  0.52714  0.09973  1.0000
  O   O7        1.0  0.60012  0.84909  0.43223999999999996  1.0000
  O   O8        1.0  0.22412000000000007  0.97425  0.40059  1.0000
  O   O9        1.0  0.04228  0.56966  0.3497  1.0000
  O   O10       1.0  0.29791  0.59961  0.4741  1.0000
  O   O11       1.0  0.9593299999999999  0.93156  0.15062  1.0000
  O   O12       1.0  0.3734000000000002  0.90007  0.026719999999999997  1.0000
  O   O13       1.0  0.11355  0.34982  0.93159  1.0000
  O   O14       1.0  0.40041999999999994  0.47285  0.90027  1.0000
  O   O15       1.0  0.39988  0.1509  0.56776  1.0000
  O   O16       1.0  0.77588  0.02575  0.59942  1.0000
