data_image0
_chemical_formula_structural       Co6H12C36O26
_chemical_formula_sum              "Co6 H12 C36 O26"
_cell_length_a       7.12692
_cell_length_b       11.13956
_cell_length_c       14.72289
_cell_angle_alpha    92.83301
_cell_angle_beta     89.75807
_cell_angle_gamma    90.05928

_symmetry_space_group_name_H-M    'P 1'
_symmetry_Int_Tables_number       1

loop_
  _symmetry_equiv_pos_as_xyz
  'x,y,z'

loop_
  _atom_site_type_symbol
  _atom_site_label
  _atom_site_symmetry_multiplicity
  _atom_site_fract_x
  _atom_site_fract_y
  _atom_site_fract_z
  _atom_site_occupancy
  Co  Co1       1.0  0.39937  0.24486999999999984  0.8566599999999998  1.0000
  Co  Co2       1.0  0.84805  0.8254999999999999  0.34028  1.0000
  Co  Co3       1.0  0.60104  0.63564  0.20211999999999994  1.0000
  Co  Co4       1.0  0.90503  0.75288  0.14134  1.0000
  Co  Co5       1.0  0.3406300000000001  0.17355  0.6622199999999998  1.0000
  Co  Co6       1.0  0.09899  0.37044999999999995  0.7991799999999998  1.0000
  H   H1        1.0  0.58028  0.91166  0.9432099999999998  1.0000
  H   H2        1.0  0.32075  0.8008299999999998  0.68962  1.0000
  H   H3        1.0  0.33289  0.5875  0.7343399999999998  1.0000
  H   H4        1.0  0.62756  0.35719  0.39996  1.0000
  H   H5        1.0  0.7194  0.6757299999999998  0.57126  1.0000
  H   H6        1.0  0.7441  0.5486199999999999  0.7050399999999998  1.0000
  H   H7        1.0  0.0772  0.08680999999999998  0.05636999999999999  1.0000
  H   H8        1.0  0.81778  0.19792999999999994  0.31141  1.0000
  H   H9        1.0  0.83045  0.41151  0.26625  1.0000
  H   H10       1.0  0.12836  0.64436  0.60098  1.0000
  H   H11       1.0  0.218  0.32455999999999996  0.43078  1.0000
  H   H12       1.0  0.23965  0.45058999999999994  0.29565  1.0000
  C   C1        1.0  0.46157  0.6287599999999999  0.86392  1.0000
  C   C2        1.0  0.53497  0.7210499999999997  0.9224799999999997  1.0000
  C   C3        1.0  0.52523  0.8402999999999999  0.89791  1.0000
  C   C4        1.0  0.4455  0.86916  0.815  1.0000
  C   C5        1.0  0.37735  0.77775  0.75517  1.0000
  C   C6        1.0  0.38479  0.6588999999999999  0.78039  1.0000
  C   C7        1.0  0.48497  0.5000899999999999  0.8859799999999998  1.0000
  C   C8        1.0  0.62231  0.70101  0.01271  1.0000
  C   C9        1.0  0.43368  0.99751  0.7916999999999997  1.0000
  C   C10       1.0  0.68849  0.38252  0.62888  1.0000
  C   C11       1.0  0.6510699999999999  0.32701  0.5424  1.0000
  C   C12       1.0  0.6489999999999999  0.3995999999999999  0.46719  1.0000
  C   C13       1.0  0.67344  0.52418  0.4767999999999999  1.0000
  C   C14       1.0  0.70249  0.57878  0.56351  1.0000
  C   C15       1.0  0.71452  0.5077699999999998  0.63803  1.0000
  C   C16       1.0  0.70062  0.31878999999999996  0.7154599999999998  1.0000
  C   C17       1.0  0.62213  0.19385  0.5200499999999999  1.0000
  C   C18       1.0  0.67972  0.59858  0.39553  1.0000
  C   C19       1.0  0.95918  0.3698699999999999  0.13633  1.0000
  C   C20       1.0  0.0311  0.27761  0.07718999999999998  1.0000
  C   C21       1.0  0.02169  0.15822  0.10175999999999999  1.0000
  C   C22       1.0  0.94184  0.12952  0.18513999999999994  1.0000
  C   C23       1.0  0.87394  0.22096  0.2454  1.0000
  C   C24       1.0  0.88181  0.33984999999999993  0.22007  1.0000
  C   C25       1.0  0.98727  0.4985199999999999  0.11474  1.0000
  C   C26       1.0  0.12138000000000002  0.29979999999999996  0.98765  1.0000
  C   C27       1.0  0.9301599999999999  0.0011099999999999964  0.20845999999999995  1.0000
  C   C28       1.0  0.18536  0.61684  0.37175999999999987  1.0000
  C   C29       1.0  0.14859  0.6734099999999998  0.4579999999999999  1.0000
  C   C30       1.0  0.14821  0.6015699999999998  0.5337  1.0000
  C   C31       1.0  0.17376  0.47716999999999965  0.5244  1.0000
  C   C32       1.0  0.20117  0.42155999999999993  0.43781  1.0000
  C   C33       1.0  0.21132  0.49171999999999993  0.3627999999999999  1.0000
  C   C34       1.0  0.19846999999999998  0.6802999999999999  0.28549  1.0000
  C   C35       1.0  0.12513  0.8071499999999998  0.4799799999999999  1.0000
  C   C36       1.0  0.18443000000000004  0.40361999999999987  0.6059999999999998  1.0000
  O   O1        1.0  0.74141  0.70662  0.41203  1.0000
  O   O2        1.0  0.6293799999999999  0.5519999999999999  0.31895  1.0000
  O   O3        1.0  0.70548  0.14632  0.4539199999999999  1.0000
  O   O4        1.0  0.50538  0.13136  0.56847  1.0000
  O   O5        1.0  0.57207  0.24327999999999994  0.7353299999999998  1.0000
  O   O6        1.0  0.82847  0.34543  0.7724299999999997  1.0000
  O   O7        1.0  0.46713  0.07634999999999997  0.8562299999999998  1.0000
  O   O8        1.0  0.3907  0.018239999999999975  0.7098599999999998  1.0000
  O   O9        1.0  0.52463  0.65323  0.07327999999999998  1.0000
  O   O10       1.0  0.78851  0.7453499999999997  0.02314  1.0000
  O   O11       1.0  0.60823  0.46634  0.9366599999999999  1.0000
  O   O12       1.0  0.37142  0.42072  0.84084  1.0000
  O   O13       1.0  0.20847  0.22024  0.75976  1.0000
  O   O14       1.0  0.24736  0.29703999999999997  0.59026  1.0000
  O   O15       1.0  0.13454  0.45204999999999995  0.68289  1.0000
  O   O16       1.0  0.21695  0.8539499999999998  0.54325  1.0000
  O   O17       1.0  0.00315  0.8724699999999999  0.43598  1.0000
  O   O18       1.0  0.06935  0.7571399999999999  0.26761  1.0000
  O   O19       1.0  0.32307  0.65465  0.22694  1.0000
  O   O20       1.0  0.97198  0.92234  0.14534  1.0000
  O   O21       1.0  0.87942  0.98104  0.29008999999999996  1.0000
  O   O22       1.0  0.028739999999999998  0.35213999999999995  0.92747  1.0000
  O   O23       1.0  0.2858  0.25419  0.97663  1.0000
  O   O24       1.0  0.11298  0.53047  0.06389  1.0000
  O   O25       1.0  0.87527  0.57751  0.16001999999999994  1.0000
  O   O26       1.0  0.71346  0.7758599999999998  0.23976  1.0000
