data_image0
_chemical_formula_structural       Dy2H24C48O12
_chemical_formula_sum              "Dy2 H24 C48 O12"
_cell_length_a       10.53486
_cell_length_b       11.294510000000002
_cell_length_c       13.16458
_cell_angle_alpha    70.86766
_cell_angle_beta     87.83385999999999
_cell_angle_gamma    87.0113

_symmetry_space_group_name_H-M    'P 1'
_symmetry_Int_Tables_number       1

loop_
  _symmetry_equiv_pos_as_xyz
  'x,y,z'

loop_
  _atom_site_type_symbol
  _atom_site_label
  _atom_site_symmetry_multiplicity
  _atom_site_fract_x
  _atom_site_fract_y
  _atom_site_fract_z
  _atom_site_occupancy
  Dy  Dy1       1.0  0.49402000000000007  0.06525000000000002  0.35121  1.0000
  Dy  Dy2       1.0  0.50601  0.9347400000000001  0.6487699999999998  1.0000
  H   H1        1.0  0.39714  0.39705  0.27262  1.0000
  H   H2        1.0  0.2641  0.7243200000000002  0.5224699999999999  1.0000
  H   H3        1.0  0.24450000000000005  0.21398999999999999  0.40185  1.0000
  H   H4        1.0  0.31306000000000006  0.5876899999999999  0.30627  1.0000
  H   H5        1.0  0.06852  0.6068099999999997  0.57324  1.0000
  H   H6        1.0  0.15970000000000006  0.37053  0.24016  1.0000
  H   H7        1.0  0.31277000000000005  0.79459  0.15900999999999998  1.0000
  H   H8        1.0  0.07301  0.37723  0.6003699999999998  1.0000
  H   H9        1.0  0.93819  0.35594000000000003  0.18297  1.0000
  H   H10       1.0  0.4000100000000001  0.8098600000000002  0.9794699999999997  1.0000
  H   H11       1.0  0.27292  0.26571000000000006  0.5758699999999999  1.0000
  H   H12       1.0  0.8064000000000001  0.18439999999999998  0.28547  1.0000
  H   H13       1.0  0.60286  0.60293  0.7273799999999999  1.0000
  H   H14       1.0  0.73589  0.27566999999999997  0.47754  1.0000
  H   H15       1.0  0.7555  0.786  0.59817  1.0000
  H   H16       1.0  0.6869300000000002  0.4122799999999999  0.6937599999999998  1.0000
  H   H17       1.0  0.93147  0.39319  0.42676  1.0000
  H   H18       1.0  0.8403  0.6294600000000001  0.75985  1.0000
  H   H19       1.0  0.6872200000000002  0.20538000000000006  0.8410199999999999  1.0000
  H   H20       1.0  0.92698  0.6227599999999999  0.39963  1.0000
  H   H21       1.0  0.06182  0.64406  0.81704  1.0000
  H   H22       1.0  0.59996  0.19014  0.020559999999999995  1.0000
  H   H23       1.0  0.72708  0.7342899999999999  0.42414  1.0000
  H   H24       1.0  0.1936  0.81561  0.71455  1.0000
  C   C1        1.0  0.49326  0.25836000000000003  0.16826  1.0000
  C   C2        1.0  0.49810000000000004  0.7630900000000002  0.48346999999999996  1.0000
  C   C3        1.0  0.25968  0.008029999999999995  0.55984  1.0000
  C   C4        1.0  0.49534000000000006  0.38257  0.08165  1.0000
  C   C5        1.0  0.49797  0.6288  0.48742  1.0000
  C   C6        1.0  0.12521999999999997  0.007070000000000004  0.53036  1.0000
  C   C7        1.0  0.44548  0.49035000000000006  0.10363999999999998  1.0000
  C   C8        1.0  0.38461  0.56387  0.51674  1.0000
  C   C9        1.0  0.07725000000000001  0.10028  0.43793  1.0000
  C   C10       1.0  0.39577  0.48600000000000004  0.2074  1.0000
  C   C11       1.0  0.26676  0.6245400000000001  0.5329299999999999  1.0000
  C   C12       1.0  0.14979  0.20419000000000004  0.37643  1.0000
  C   C13       1.0  0.3494300000000001  0.59296  0.22651  1.0000
  C   C14       1.0  0.15728  0.55905  0.56097  1.0000
  C   C15       1.0  0.10153000000000001  0.2934  0.28636  1.0000
  C   C16       1.0  0.3503  0.71072  0.14303  1.0000
  C   C17       1.0  0.15985  0.42832000000000003  0.5760199999999999  1.0000
  C   C18       1.0  0.9763900000000002  0.28486  0.25401  1.0000
  C   C19       1.0  0.39932  0.71939  0.04273  1.0000
  C   C20       1.0  0.27133  0.36635  0.56125  1.0000
  C   C21       1.0  0.9017900000000001  0.18831  0.31226  1.0000
  C   C22       1.0  0.44922000000000006  0.6107  0.01942  1.0000
  C   C23       1.0  0.38675999999999994  0.43135  0.53021  1.0000
  C   C24       1.0  0.9489400000000001  0.09273  0.40569  1.0000
  C   C25       1.0  0.50676  0.74164  0.83175  1.0000
  C   C26       1.0  0.50191  0.23688  0.51657  1.0000
  C   C27       1.0  0.74032  0.99198  0.4401799999999999  1.0000
  C   C28       1.0  0.50467  0.6174200000000002  0.9183599999999998  1.0000
  C   C29       1.0  0.50203  0.3712  0.51259  1.0000
  C   C30       1.0  0.8747800000000001  0.9929400000000002  0.46965  1.0000
  C   C31       1.0  0.55451  0.50963  0.89637  1.0000
  C   C32       1.0  0.61539  0.43612000000000006  0.48327999999999993  1.0000
  C   C33       1.0  0.92275  0.89972  0.5620799999999999  1.0000
  C   C34       1.0  0.60422  0.51398  0.7926099999999999  1.0000
  C   C35       1.0  0.7332400000000001  0.3754599999999999  0.46708  1.0000
  C   C36       1.0  0.8502100000000001  0.7958  0.6235799999999999  1.0000
  C   C37       1.0  0.65057  0.40701  0.77352  1.0000
  C   C38       1.0  0.84271  0.44095  0.4390199999999999  1.0000
  C   C39       1.0  0.8984700000000001  0.7065900000000003  0.7136399999999999  1.0000
  C   C40       1.0  0.64968  0.28926000000000013  0.8569999999999998  1.0000
  C   C41       1.0  0.84014  0.5716800000000001  0.42398  1.0000
  C   C42       1.0  0.023610000000000013  0.71514  0.746  1.0000
  C   C43       1.0  0.60066  0.2806  0.95729  1.0000
  C   C44       1.0  0.72866  0.63365  0.4387599999999999  1.0000
  C   C45       1.0  0.09821  0.8116900000000001  0.68775  1.0000
  C   C46       1.0  0.55076  0.3892900000000001  0.9805999999999998  1.0000
  C   C47       1.0  0.61324  0.5686500000000001  0.4698099999999999  1.0000
  C   C48       1.0  0.05105999999999999  0.90728  0.59432  1.0000
  O   O1        1.0  0.38756000000000007  0.20764  0.20745  1.0000
  O   O2        1.0  0.48691  0.8507  0.39382  1.0000
  O   O3        1.0  0.34944  0.00032000000000006253  0.4910099999999999  1.0000
  O   O4        1.0  0.59891  0.20221  0.2058  1.0000
  O   O5        1.0  0.51134  0.7795299999999998  0.57414  1.0000
  O   O6        1.0  0.28861  0.00670000000000005  0.6521999999999999  1.0000
  O   O7        1.0  0.61244  0.7923399999999999  0.7925399999999999  1.0000
  O   O8        1.0  0.5131  0.14931000000000005  0.60621  1.0000
  O   O9        1.0  0.65056  0.9996799999999999  0.5090099999999999  1.0000
  O   O10       1.0  0.40108  0.7977700000000001  0.79426  1.0000
  O   O11       1.0  0.48865000000000003  0.22044000000000002  0.42588  1.0000
  O   O12       1.0  0.71138  0.9933100000000001  0.34782  1.0000
