data_image0
_chemical_formula_structural       Cu2H28C20Br2N8
_chemical_formula_sum              "Cu2 H28 C20 Br2 N8"
_cell_length_a       5.30794
_cell_length_b       11.445739999999999
_cell_length_c       11.44461
_cell_angle_alpha    69.56556999999998
_cell_angle_beta     76.55575
_cell_angle_gamma    76.54974

_symmetry_space_group_name_H-M    'P 1'
_symmetry_Int_Tables_number       1

loop_
  _symmetry_equiv_pos_as_xyz
  'x,y,z'

loop_
  _atom_site_type_symbol
  _atom_site_label
  _atom_site_symmetry_multiplicity
  _atom_site_fract_x
  _atom_site_fract_y
  _atom_site_fract_z
  _atom_site_occupancy
  Cu  Cu1       1.0  0.42514  0.90002  0.60116  1.0000
  Cu  Cu2       1.0  0.9252699999999999  0.10118999999999999  0.40005  1.0000
  H   H1        1.0  0.8376300000000001  0.8498400000000002  0.40218  1.0000
  H   H2        1.0  0.27625999999999984  0.6477700000000002  0.7423100000000001  1.0000
  H   H3        1.0  0.3730799999999999  0.4910800000000001  0.73077  1.0000
  H   H4        1.0  0.12735999999999992  0.6016200000000002  0.64652  1.0000
  H   H5        1.0  0.10314000000000001  0.72778  0.23005  1.0000
  H   H6        1.0  0.10120999999999991  0.5611300000000002  0.28381  1.0000
  H   H7        1.0  0.27159999999999995  0.6276100000000001  0.35579  1.0000
  H   H8        1.0  0.08784000000000002  0.15096  0.5995  1.0000
  H   H9        1.0  0.6717499999999998  0.35590000000000005  0.25695  1.0000
  H   H10       1.0  0.5909100000000002  0.51129  0.27198  1.0000
  H   H11       1.0  0.3769199999999997  0.3976900000000003  0.35334  1.0000
  H   H12       1.0  0.05945999999999998  0.27318999999999993  0.7715  1.0000
  H   H13       1.0  0.9433199999999998  0.43960999999999995  0.71815  1.0000
  H   H14       1.0  0.25264999999999993  0.3737399999999999  0.64583  1.0000
  H   H15       1.0  0.33767000000000014  0.90236  0.34982  1.0000
  H   H16       1.0  0.7762900000000001  0.24243  0.14769  1.0000
  H   H17       1.0  0.8724899999999998  0.2306300000000001  0.9910600000000002  1.0000
  H   H18       1.0  0.6268  0.1466  0.10191000000000003  1.0000
  H   H19       1.0  0.6032899999999998  0.7302700000000004  0.22757  1.0000
  H   H20       1.0  0.6011799999999999  0.78423  0.06089  1.0000
  H   H21       1.0  0.7714  0.8561600000000003  0.12752  1.0000
  H   H22       1.0  0.58765  0.09946999999999999  0.65095  1.0000
  H   H23       1.0  0.17252999999999985  0.7567300000000002  0.85613  1.0000
  H   H24       1.0  0.09057999999999998  0.77209  0.0114  1.0000
  H   H25       1.0  0.8773199999999998  0.8532000000000002  0.8973900000000001  1.0000
  H   H26       1.0  0.5592999999999999  0.2715000000000001  0.77315  1.0000
  H   H27       1.0  0.4432599999999999  0.21810999999999997  0.9396000000000001  1.0000
  H   H28       1.0  0.7525199999999999  0.14574999999999996  0.87365  1.0000
  C   C1        1.0  0.70412  0.56902  0.49301  1.0000
  C   C2        1.0  0.8544599999999998  0.65866  0.40663000000000005  1.0000
  C   C3        1.0  0.52173  0.63604  0.57095  1.0000
  C   C4        1.0  0.3142199999999997  0.59069  0.67875  1.0000
  C   C5        1.0  0.09311999999999991  0.6433200000000002  0.31339  1.0000
  C   C6        1.0  0.76485  0.43214  0.5084100000000001  1.0000
  C   C7        1.0  0.91836  0.3423800000000001  0.5947800000000001  1.0000
  C   C8        1.0  0.72765  0.3652700000000001  0.43040000000000006  1.0000
  C   C9        1.0  0.58399  0.41098000000000007  0.32205  1.0000
  C   C10       1.0  0.047719999999999985  0.35766  0.68823  1.0000
  C   C11       1.0  0.20381  0.99311  0.06902  1.0000
  C   C12       1.0  0.35425999999999996  0.9067700000000001  0.15863  1.0000
  C   C13       1.0  0.021430000000000005  0.07098  0.13607  1.0000
  C   C14       1.0  0.81381  0.17879  0.09074  1.0000
  C   C15       1.0  0.5930799999999998  0.8136700000000002  0.14318000000000003  1.0000
  C   C16       1.0  0.26459999999999995  0.00846999999999998  0.9321200000000001  1.0000
  C   C17       1.0  0.4181499999999999  0.09480999999999999  0.8423600000000001  1.0000
  C   C18       1.0  0.22764999999999982  0.9303500000000002  0.86529  1.0000
  C   C19       1.0  0.08420999999999983  0.82198  0.9110000000000001  1.0000
  C   C20       1.0  0.5475600000000004  0.18821  0.85761  1.0000
  Br  Br1       1.0  0.43634000000000006  0.10127000000000007  0.40017  1.0000
  Br  Br2       1.0  0.9362900000000001  0.9001799999999999  0.60123  1.0000
  N   N1        1.0  0.55921  0.7571  0.53342  1.0000
  N   N2        1.0  0.75534  0.76967  0.43159000000000003  1.0000
  N   N3        1.0  0.84871  0.2441400000000001  0.46788  1.0000
  N   N4        1.0  0.95513  0.2314400000000001  0.5698  1.0000
  N   N5        1.0  0.05898000000000002  0.03347  0.25712  1.0000
  N   N6        1.0  0.2552  0.9317000000000001  0.26965  1.0000
  N   N7        1.0  0.3487899999999998  0.9677800000000002  0.74417  1.0000
  N   N8        1.0  0.4551199999999999  0.06975999999999997  0.7313900000000001  1.0000
