data_image0
_chemical_formula_structural       Sm2CuH12C32N4O24
_chemical_formula_sum              "Sm2 Cu1 H12 C32 N4 O24"
_cell_length_a       10.18552
_cell_length_b       10.62897
_cell_length_c       11.751999999999999
_cell_angle_alpha    80.46604999999998
_cell_angle_beta     72.29563
_cell_angle_gamma    69.47846

_symmetry_space_group_name_H-M    'P 1'
_symmetry_Int_Tables_number       1

loop_
  _symmetry_equiv_pos_as_xyz
  'x,y,z'

loop_
  _atom_site_type_symbol
  _atom_site_label
  _atom_site_symmetry_multiplicity
  _atom_site_fract_x
  _atom_site_fract_y
  _atom_site_fract_z
  _atom_site_occupancy
  Sm  Sm1       1.0  0.5902999999999999  0.5903900000000001  0.63618  1.0000
  Sm  Sm2       1.0  0.40949  0.40974  0.36367  1.0000
  Cu  Cu1       1.0  0.0  0.49998  0.50002  1.0000
  H   H1        1.0  0.36071000000000003  0.9802700000000002  0.47261000000000003  1.0000
  H   H2        1.0  0.9766399999999997  0.18107000000000004  0.34835000000000005  1.0000
  H   H3        1.0  0.1653099999999999  0.7499600000000002  0.34557  1.0000
  H   H4        1.0  0.6825  0.44975  0.93238  1.0000
  H   H5        1.0  0.9245900000000001  0.32181  0.19773000000000004  1.0000
  H   H6        1.0  0.1513  0.34428999999999993  0.8240200000000002  1.0000
  H   H7        1.0  0.6391800000000001  0.019660000000000004  0.52731  1.0000
  H   H8        1.0  0.023259999999999864  0.8190100000000002  0.65171  1.0000
  H   H9        1.0  0.83439  0.25012000000000006  0.6543400000000001  1.0000
  H   H10       1.0  0.31753999999999993  0.5501500000000001  0.06756  1.0000
  H   H11       1.0  0.07536000000000005  0.67823  0.80228  1.0000
  H   H12       1.0  0.8487100000000001  0.6557200000000002  0.17602  1.0000
  C   C1        1.0  0.27385999999999994  0.85177  0.41326000000000007  1.0000
  C   C2        1.0  0.27746000000000004  0.97676  0.43429  1.0000
  C   C3        1.0  0.17075  0.09536  0.41035  1.0000
  C   C4        1.0  0.06241000000000001  0.08991  0.36315  1.0000
  C   C5        1.0  0.06543000000000003  0.966  0.33714  1.0000
  C   C6        1.0  0.16856000000000002  0.84604  0.36235000000000006  1.0000
  C   C7        1.0  0.37793999999999994  0.7233000000000002  0.44986  1.0000
  C   C8        1.0  0.1645400000000001  0.23021000000000003  0.43752  1.0000
  C   C9        1.0  0.9163300000000001  0.40295  0.86476  1.0000
  C   C10       1.0  0.78633  0.4142  0.95478  1.0000
  C   C11       1.0  0.7898100000000001  0.3839700000000001  0.07473000000000002  1.0000
  C   C12       1.0  0.92221  0.34155  0.10471000000000003  1.0000
  C   C13       1.0  0.050279999999999984  0.32517  0.013350000000000002  1.0000
  C   C14       1.0  0.050079999999999965  0.3556  0.8935700000000001  1.0000
  C   C15       1.0  0.9140999999999999  0.4427400000000001  0.7374500000000003  1.0000
  C   C16       1.0  0.6539099999999999  0.3975200000000001  0.1734  1.0000
  C   C17       1.0  0.7258600000000001  0.1482  0.58682  1.0000
  C   C18       1.0  0.7223600000000001  0.023179999999999992  0.5657100000000002  1.0000
  C   C19       1.0  0.8291600000000001  0.9046  0.5896  1.0000
  C   C20       1.0  0.9375000000000002  0.9101300000000002  0.63679  1.0000
  C   C21       1.0  0.93444  0.03405999999999999  0.66279  1.0000
  C   C22       1.0  0.83122  0.15398000000000003  0.6376300000000001  1.0000
  C   C23       1.0  0.62177  0.27673000000000003  0.55024  1.0000
  C   C24       1.0  0.8355900000000002  0.76963  0.56246  1.0000
  C   C25       1.0  0.08371000000000002  0.597  0.13523  1.0000
  C   C26       1.0  0.21371000000000018  0.58572  0.04517  1.0000
  C   C27       1.0  0.21019  0.616  0.9252200000000002  1.0000
  C   C28       1.0  0.07774999999999987  0.6584400000000001  0.89529  1.0000
  C   C29       1.0  0.9496800000000001  0.67481  0.98667  1.0000
  C   C30       1.0  0.9499400000000001  0.64437  0.10644  1.0000
  C   C31       1.0  0.08583000000000006  0.55725  0.26256  1.0000
  C   C32       1.0  0.3459500000000001  0.6026  0.8264400000000002  1.0000
  N   N1        1.0  0.95058  0.9622700000000001  0.28711  1.0000
  N   N2        1.0  0.18966  0.27828  0.045700000000000005  1.0000
  N   N3        1.0  0.04924999999999995  0.037859999999999984  0.7128700000000001  1.0000
  N   N4        1.0  0.81025  0.72179  0.9543100000000001  1.0000
  O   O1        1.0  0.36504  0.61251  0.43398  1.0000
  O   O2        1.0  0.4718399999999997  0.73075  0.4968100000000001  1.0000
  O   O3        1.0  0.28222999999999987  0.25235000000000013  0.42851  1.0000
  O   O4        1.0  0.03686000000000001  0.31441  0.46778  1.0000
  O   O5        1.0  0.86267  0.07151  0.26298  1.0000
  O   O6        1.0  0.9472899999999999  0.8501100000000001  0.27377  1.0000
  O   O7        1.0  0.03344000000000002  0.44349  0.66127  1.0000
  O   O8        1.0  0.79436  0.47396  0.7089  1.0000
  O   O9        1.0  0.53664  0.39946000000000004  0.15292  1.0000
  O   O10       1.0  0.6566900000000001  0.4060100000000001  0.28023000000000003  1.0000
  O   O11       1.0  0.18319000000000007  0.26911  0.15422  1.0000
  O   O12       1.0  0.3037  0.25221000000000005  0.9638600000000002  1.0000
  O   O13       1.0  0.63489  0.38748000000000016  0.56595  1.0000
  O   O14       1.0  0.5278  0.26931  0.50335  1.0000
  O   O15       1.0  0.7181399999999999  0.74704  0.5714900000000002  1.0000
  O   O16       1.0  0.96335  0.68555  0.53217  1.0000
  O   O17       1.0  0.13719000000000006  0.92865  0.737  1.0000
  O   O18       1.0  0.05249999999999995  0.15000000000000008  0.72628  1.0000
  O   O19       1.0  0.9665100000000002  0.55653  0.33875000000000005  1.0000
  O   O20       1.0  0.20557999999999996  0.52603  0.29113  1.0000
  O   O21       1.0  0.46332000000000007  0.6005600000000002  0.84683  1.0000
  O   O22       1.0  0.3430099999999999  0.59423  0.71963  1.0000
  O   O23       1.0  0.81677  0.73099  0.84578  1.0000
  O   O24       1.0  0.69617  0.7478900000000003  0.03615  1.0000
