data_image0
_chemical_formula_structural       Ni2H22C36SN4O8
_chemical_formula_sum              "Ni2 H22 C36 S1 N4 O8"
_cell_length_a       7.87486
_cell_length_b       11.14951
_cell_length_c       13.251760000000003
_cell_angle_alpha    107.24113
_cell_angle_beta     107.63733
_cell_angle_gamma    89.97667

_symmetry_space_group_name_H-M    'P 1'
_symmetry_Int_Tables_number       1

loop_
  _symmetry_equiv_pos_as_xyz
  'x,y,z'

loop_
  _atom_site_type_symbol
  _atom_site_label
  _atom_site_symmetry_multiplicity
  _atom_site_fract_x
  _atom_site_fract_y
  _atom_site_fract_z
  _atom_site_occupancy
  Ni  Ni1       1.0  0.8338599999999996  0.06454  0.61651  1.0000
  Ni  Ni2       1.0  0.21301000000000003  0.9327200000000002  0.38186000000000003  1.0000
  H   H1        1.0  0.70907  0.78343  0.94406  1.0000
  H   H2        1.0  0.43001  0.68969  0.78365  1.0000
  H   H3        1.0  0.3205499999999999  0.7971500000000001  0.63825  1.0000
  H   H4        1.0  0.69266  0.81325  0.4541900000000001  1.0000
  H   H5        1.0  0.68384  0.59081  0.45787  1.0000
  H   H6        1.0  0.06021000000000001  0.7249100000000002  0.79204  1.0000
  H   H7        1.0  0.053659999999999965  0.94032  0.77231  1.0000
  H   H8        1.0  0.11277000000000001  0.29573  0.7393  1.0000
  H   H9        1.0  0.13668  0.52077  0.74416  1.0000
  H   H10       1.0  0.58943  0.45426000000000005  0.5248  1.0000
  H   H11       1.0  0.59673  0.22901  0.52109  1.0000
  H   H12       1.0  0.7646600000000001  0.21869000000000005  0.056870000000000004  1.0000
  H   H13       1.0  0.6455299999999999  0.31107999999999997  0.21619  1.0000
  H   H14       1.0  0.6804  0.20187000000000005  0.36002000000000006  1.0000
  H   H15       1.0  0.23417999999999994  0.18519  0.54487  1.0000
  H   H16       1.0  0.22457000000000005  0.40785  0.54161  1.0000
  H   H17       1.0  0.26804  0.27377  0.20922  1.0000
  H   H18       1.0  0.2780299999999999  0.05827000000000001  0.22856  1.0000
  H   H19       1.0  0.36969  0.70344  0.26119  1.0000
  H   H20       1.0  0.39102  0.4787899999999999  0.25712  1.0000
  H   H21       1.0  0.06368  0.54369  0.47419  1.0000
  H   H22       1.0  0.0722  0.76861  0.47713  1.0000
  C   C1        1.0  0.53272  0.9469300000000002  0.71469  1.0000
  C   C2        1.0  0.68747  0.002330000000000008  0.8063  1.0000
  C   C3        1.0  0.74781  0.9402300000000001  0.88735  1.0000
  C   C4        1.0  0.65699  0.82793  0.87928  1.0000
  C   C5        1.0  0.50134  0.77663  0.79007  1.0000
  C   C6        1.0  0.44018  0.83607  0.7089  1.0000
  C   C7        1.0  0.46434  0.99686  0.61845  1.0000
  C   C8        1.0  0.7858  0.12903  0.82603  1.0000
  C   C9        1.0  0.7705999999999997  0.7880600000000001  0.52682  1.0000
  C   C10       1.0  0.7666499999999998  0.6649600000000001  0.53036  1.0000
  C   C11       1.0  0.8707799999999999  0.63757  0.6262  1.0000
  C   C12       1.0  0.97874  0.73818  0.71432  1.0000
  C   C13       1.0  0.9759700000000001  0.85914  0.70476  1.0000
  C   C14       1.0  0.0028200000000000057  0.3341199999999999  0.68978  1.0000
  C   C15       1.0  0.013370000000000042  0.46029  0.69359  1.0000
  C   C16       1.0  0.86589  0.5069  0.63113  1.0000
  C   C17       1.0  0.71115  0.42291  0.57046  1.0000
  C   C18       1.0  0.7124699999999999  0.29771999999999993  0.56852  1.0000
  C   C19       1.0  0.81503  0.05217  0.28368  1.0000
  C   C20       1.0  0.8770800000000001  0.99726  0.19225000000000003  1.0000
  C   C21       1.0  0.85794  0.060640000000000006  0.11237  1.0000
  C   C22       1.0  0.77607  0.17325  0.12076000000000002  1.0000
  C   C23       1.0  0.7095  0.22377000000000002  0.20935  1.0000
  C   C24       1.0  0.7292  0.16343  0.28979  1.0000
  C   C25       1.0  0.8441699999999998  0.0011599999999999955  0.37926  1.0000
  C   C26       1.0  0.95458  0.87042  0.17145  1.0000
  C   C27       1.0  0.24085000000000004  0.21051  0.4728200000000001  1.0000
  C   C28       1.0  0.23484000000000002  0.33373000000000014  0.46948000000000006  1.0000
  C   C29       1.0  0.24390000000000006  0.3612000000000001  0.37418000000000007  1.0000
  C   C30       1.0  0.2637  0.26061000000000006  0.28658  1.0000
  C   C31       1.0  0.2689  0.13956  0.29594  1.0000
  C   C32       1.0  0.30995  0.6647500000000001  0.31038  1.0000
  C   C33       1.0  0.31794  0.53877  0.30705  1.0000
  C   C34       1.0  0.2337  0.49180000000000007  0.36907  1.0000
  C   C35       1.0  0.13917  0.57533  0.42888  1.0000
  C   C36       1.0  0.14106  0.70036  0.4304  1.0000
  S   S1        1.0  0.95013  0.00138  0.00104  1.0000
  N   N1        1.0  0.8721  0.88441  0.61309  1.0000
  N   N2        1.0  0.85696  0.25281000000000003  0.62514  1.0000
  N   N3        1.0  0.25551000000000007  0.11414000000000003  0.38689000000000007  1.0000
  N   N4        1.0  0.22818000000000002  0.74559  0.3741300000000001  1.0000
  O   O1        1.0  0.5688  0.06130000000000001  0.59176  1.0000
  O   O2        1.0  0.29902  0.9701100000000001  0.56124  1.0000
  O   O3        1.0  0.9168200000000001  0.12694999999999998  0.78409  1.0000
  O   O4        1.0  0.74051  0.22446000000000008  0.8839200000000002  1.0000
  O   O5        1.0  0.97253  0.9331  0.40328  1.0000
  O   O6        1.0  0.74025  0.03005999999999999  0.43837  1.0000
  O   O7        1.0  0.12802  0.87205  0.21404  1.0000
  O   O8        1.0  0.85003  0.7755800000000002  0.11184  1.0000
