data_image0
_chemical_formula_structural       Zn4H8C4N20F4
_chemical_formula_sum              "Zn4 H8 C4 N20 F4"
_cell_length_a       6.33067
_cell_length_b       8.661120000000002
_cell_length_c       10.04026
_cell_angle_alpha    90.0
_cell_angle_beta     90.0
_cell_angle_gamma    87.72985999999999

_space_group_name_H-M_alt    "P 1"
_space_group_IT_number       1

loop_
  _space_group_symop_operation_xyz
  'x, y, z'

loop_
  _atom_site_type_symbol
  _atom_site_label
  _atom_site_symmetry_multiplicity
  _atom_site_fract_x
  _atom_site_fract_y
  _atom_site_fract_z
  _atom_site_occupancy
  Zn  Zn1       1.0  0.66005  0.36154  0.49998  1.0000
  Zn  Zn2       1.0  0.33998  0.63847  0.49998  1.0000
  Zn  Zn3       1.0  0.0010099999999999953  0.99823  0.00025  1.0000
  Zn  Zn4       1.0  0.50121  0.0019299999999999999  0.9995599999999999  1.0000
  H   H1        1.0  0.23683  0.21946  0.76643  1.0000
  H   H2        1.0  0.1494  0.31244  0.62543  1.0000
  H   H3        1.0  0.7632  0.78055  0.76642  1.0000
  H   H4        1.0  0.85067  0.6875799999999997  0.62545  1.0000
  H   H5        1.0  0.76319  0.7805599999999998  0.23357999999999998  1.0000
  H   H6        1.0  0.85068  0.6875799999999997  0.37455  1.0000
  H   H7        1.0  0.23683999999999997  0.21944999999999998  0.23357999999999998  1.0000
  H   H8        1.0  0.14938999999999994  0.31243  0.37457  1.0000
  C   C1        1.0  0.9109099999999998  0.22215  0.73927  1.0000
  C   C2        1.0  0.08926  0.7777799999999998  0.73926  1.0000
  C   C3        1.0  0.08929  0.77779  0.26075  1.0000
  C   C4        1.0  0.9108899999999998  0.22215  0.26074  1.0000
  N   N1        1.0  0.85268  0.14016999999999996  0.8466  1.0000
  N   N2        1.0  0.56276  0.21896999999999997  0.74366  1.0000
  N   N3        1.0  0.64021  0.14142  0.84469  1.0000
  N   N4        1.0  0.73111  0.27291  0.67377  1.0000
  N   N5        1.0  0.11183999999999994  0.24367  0.70325  1.0000
  N   N6        1.0  0.14776  0.85974  0.84655  1.0000
  N   N7        1.0  0.43742999999999993  0.7811  0.74363  1.0000
  N   N8        1.0  0.36028999999999994  0.8586599999999998  0.8447  1.0000
  N   N9        1.0  0.26899999999999996  0.7270599999999998  0.67376  1.0000
  N   N10       1.0  0.88828  0.7563  0.7033  1.0000
  N   N11       1.0  0.14781  0.85973  0.15346  1.0000
  N   N12       1.0  0.43746  0.78111  0.25634  1.0000
  N   N13       1.0  0.36036  0.85867  0.15527  1.0000
  N   N14       1.0  0.26903  0.72707  0.32624  1.0000
  N   N15       1.0  0.8882999999999998  0.7563099999999998  0.2967  1.0000
  N   N16       1.0  0.85263  0.14018  0.15341  1.0000
  N   N17       1.0  0.56273  0.21895999999999993  0.2563  1.0000
  N   N18       1.0  0.64014  0.14142  0.15528  1.0000
  N   N19       1.0  0.73109  0.2729  0.32622  1.0000
  N   N20       1.0  0.11181999999999997  0.24367  0.29675  1.0000
  F   F1        1.0  0.65925  0.5937699999999998  0.5  1.0000
  F   F2        1.0  0.34081999999999996  0.40622  0.5  1.0000
  F   F3        1.0  0.7509399999999998  0.85895  0.0  1.0000
  F   F4        1.0  0.2487  0.14109  0.0  1.0000
