data_image0
_chemical_formula_structural       Zn4H16C32N16O8
_chemical_formula_sum              "Zn4 H16 C32 N16 O8"
_cell_length_a       6.99746
_cell_length_b       9.57369
_cell_length_c       17.79748
_cell_angle_alpha    101.71980999999998
_cell_angle_beta     96.63194
_cell_angle_gamma    105.99758000000001

_symmetry_space_group_name_H-M    'P 1'
_symmetry_Int_Tables_number       1

loop_
  _symmetry_equiv_pos_as_xyz
  'x,y,z'

loop_
  _atom_site_type_symbol
  _atom_site_label
  _atom_site_symmetry_multiplicity
  _atom_site_fract_x
  _atom_site_fract_y
  _atom_site_fract_z
  _atom_site_occupancy
  Zn  Zn1       1.0  0.06838  0.53709  0.24857  1.0000
  Zn  Zn2       1.0  0.17810000000000006  0.19968000000000002  0.2518  1.0000
  Zn  Zn3       1.0  0.93163  0.46290999999999993  0.75143  1.0000
  Zn  Zn4       1.0  0.82191  0.80033  0.7482  1.0000
  H   H1        1.0  0.80032  0.05089  0.024460000000000006  1.0000
  H   H2        1.0  0.22841  0.47085  0.02389  1.0000
  H   H3        1.0  0.16374000000000005  0.40276  0.87975  1.0000
  H   H4        1.0  0.7212400000000002  0.98482  0.88044  1.0000
  H   H5        1.0  0.36089  0.71413  0.47270000000000006  1.0000
  H   H6        1.0  0.11465000000000002  0.25625  0.48330000000000006  1.0000
  H   H7        1.0  0.44342000000000004  0.7947900000000001  0.6180000000000001  1.0000
  H   H8        1.0  0.18360000000000015  0.3355900000000001  0.6285200000000002  1.0000
  H   H9        1.0  0.19969000000000017  0.94912  0.9755500000000001  1.0000
  H   H10       1.0  0.77161  0.52916  0.97612  1.0000
  H   H11       1.0  0.83627  0.59725  0.12025000000000001  1.0000
  H   H12       1.0  0.27877  0.015189999999999992  0.11957  1.0000
  H   H13       1.0  0.6391200000000002  0.28588  0.5273  1.0000
  H   H14       1.0  0.88535  0.74376  0.5167  1.0000
  H   H15       1.0  0.55659  0.20522  0.382  1.0000
  H   H16       1.0  0.81641  0.66442  0.3714800000000001  1.0000
  C   C1        1.0  0.9374000000000003  0.1885200000000001  0.8694400000000002  1.0000
  C   C2        1.0  0.06345  0.3057  0.11979  1.0000
  C   C3        1.0  0.01959000000000001  0.26473  0.03303000000000001  1.0000
  C   C4        1.0  0.8778000000000002  0.12731  0.99221  1.0000
  C   C5        1.0  0.11951000000000009  0.36424000000000006  0.9917800000000001  1.0000
  C   C6        1.0  0.08070000000000002  0.32574  0.91055  1.0000
  C   C7        1.0  0.8351900000000001  0.09020000000000003  0.91101  1.0000
  C   C8        1.0  0.89319  0.14809  0.78398  1.0000
  C   C9        1.0  0.18930000000000005  0.43259  0.3831500000000001  1.0000
  C   C10       1.0  0.36027000000000015  0.6158700000000001  0.7180500000000002  1.0000
  C   C11       1.0  0.3258100000000001  0.63246  0.50762  1.0000
  C   C12       1.0  0.18374  0.37375  0.51359  1.0000
  C   C13       1.0  0.37046  0.67712  0.58879  1.0000
  C   C14       1.0  0.23374  0.4806000000000001  0.46978  1.0000
  C   C15       1.0  0.22319  0.4185000000000001  0.59465  1.0000
  C   C16       1.0  0.3179000000000002  0.5703  0.6327200000000002  1.0000
  C   C17       1.0  0.06260999999999993  0.81148  0.13057  1.0000
  C   C18       1.0  0.9365600000000003  0.69431  0.8802200000000002  1.0000
  C   C19       1.0  0.98043  0.73528  0.9669800000000001  1.0000
  C   C20       1.0  0.12221000000000008  0.8727000000000001  0.0078  1.0000
  C   C21       1.0  0.8805  0.63577  0.008220000000000003  1.0000
  C   C22       1.0  0.9193100000000001  0.67427  0.08945000000000002  1.0000
  C   C23       1.0  0.16482000000000008  0.90981  0.08899000000000003  1.0000
  C   C24       1.0  0.10682000000000001  0.85192  0.21602000000000005  1.0000
  C   C25       1.0  0.8107100000000002  0.5674200000000003  0.6168500000000002  1.0000
  C   C26       1.0  0.6397400000000003  0.38414000000000004  0.2819500000000001  1.0000
  C   C27       1.0  0.6742000000000001  0.3675400000000001  0.49238000000000004  1.0000
  C   C28       1.0  0.81626  0.6262600000000001  0.4864200000000001  1.0000
  C   C29       1.0  0.62954  0.32288  0.41122  1.0000
  C   C30       1.0  0.76627  0.5194  0.53022  1.0000
  C   C31       1.0  0.77682  0.58151  0.40535  1.0000
  C   C32       1.0  0.6821100000000003  0.4297  0.36729  1.0000
  N   N1        1.0  0.8844800000000002  0.24271  0.73776  1.0000
  N   N2        1.0  0.22984999999999994  0.57227  0.76517  1.0000
  N   N3        1.0  0.5108600000000002  0.7190300000000001  0.8390900000000002  1.0000
  N   N4        1.0  0.32829000000000025  0.6386100000000001  0.8401900000000002  1.0000
  N   N5        1.0  0.83605  0.15984  0.66221  1.0000
  N   N6        1.0  0.81563  0.020370000000000017  0.66195  1.0000
  N   N7        1.0  0.5357500000000002  0.7072700000000001  0.7633400000000002  1.0000
  N   N8        1.0  0.8510400000000002  0.009250000000000091  0.7372400000000002  1.0000
  N   N9        1.0  0.11552999999999995  0.7573  0.26225  1.0000
  N   N10       1.0  0.77016  0.42774  0.23483  1.0000
  N   N11       1.0  0.48915  0.28098  0.16091  1.0000
  N   N12       1.0  0.67171  0.3614  0.15981  1.0000
  N   N13       1.0  0.16394  0.84017  0.33779  1.0000
  N   N14       1.0  0.18437000000000006  0.97964  0.33806000000000014  1.0000
  N   N15       1.0  0.46426000000000006  0.29274000000000006  0.23667000000000005  1.0000
  N   N16       1.0  0.14896999999999996  0.99075  0.26277  1.0000
  O   O1        1.0  0.010400000000000001  0.20077  0.15495000000000003  1.0000
  O   O2        1.0  0.15161000000000002  0.44409000000000004  0.15423  1.0000
  O   O3        1.0  0.23038000000000006  0.5345500000000001  0.3456500000000001  1.0000
  O   O4        1.0  0.11391000000000003  0.292  0.35138  1.0000
  O   O5        1.0  0.98961  0.7992400000000001  0.84505  1.0000
  O   O6        1.0  0.8483900000000001  0.55592  0.8457700000000002  1.0000
  O   O7        1.0  0.76963  0.4654600000000001  0.6543600000000003  1.0000
  O   O8        1.0  0.8861000000000002  0.70801  0.64862  1.0000
