data_image0
_chemical_formula_structural       Cd4P4H4C4O24
_chemical_formula_sum              "Cd4 P4 H4 C4 O24"
_cell_length_a       5.7504
_cell_length_b       8.47711
_cell_length_c       15.738490000000002
_cell_angle_alpha    89.82176
_cell_angle_beta     90.01202
_cell_angle_gamma    85.24879999999999

_space_group_name_H-M_alt    "P 1"
_space_group_IT_number       1

loop_
  _space_group_symop_operation_xyz
  'x, y, z'

loop_
  _atom_site_type_symbol
  _atom_site_label
  _atom_site_symmetry_multiplicity
  _atom_site_fract_x
  _atom_site_fract_y
  _atom_site_fract_z
  _atom_site_occupancy
  Cd  Cd1       1.0  0.64535  0.02607  0.68091  1.0000
  Cd  Cd2       1.0  0.85341  0.47371  0.18079  1.0000
  Cd  Cd3       1.0  0.35464  0.9739399999999999  0.3190900000000001  1.0000
  Cd  Cd4       1.0  0.14657999999999996  0.52629  0.81921  1.0000
  P   P1        1.0  0.6677100000000001  0.34226  0.8083300000000002  1.0000
  P   P2        1.0  0.83185  0.15927  0.30929  1.0000
  P   P3        1.0  0.3322800000000001  0.65775  0.19167000000000003  1.0000
  P   P4        1.0  0.16814  0.84073  0.69071  1.0000
  H   H1        1.0  0.54615  0.31343  0.9366800000000002  1.0000
  H   H2        1.0  0.95277  0.18954999999999994  0.43737  1.0000
  H   H3        1.0  0.45384  0.68657  0.06332000000000003  1.0000
  H   H4        1.0  0.04722999999999999  0.81045  0.56263  1.0000
  C   C1        1.0  0.40422  0.06841  0.5065600000000002  1.0000
  C   C2        1.0  0.09719  0.43299  0.006790000000000002  1.0000
  C   C3        1.0  0.59578  0.93159  0.4934400000000001  1.0000
  C   C4        1.0  0.9028000000000002  0.56701  0.9932200000000002  1.0000
  O   O1        1.0  0.53335  0.20871999999999996  0.77038  1.0000
  O   O2        1.0  0.52328  0.5037  0.7965300000000002  1.0000
  O   O3        1.0  0.9103400000000001  0.35109  0.77082  1.0000
  O   O4        1.0  0.70009  0.30433  0.9081600000000002  1.0000
  O   O5        1.0  0.39891999999999994  0.14405  0.57496  1.0000
  O   O6        1.0  0.25808  0.09644  0.4461500000000001  1.0000
  O   O7        1.0  0.9682300000000001  0.28967  0.2688500000000001  1.0000
  O   O8        1.0  0.97636  0.9977  0.3001300000000001  1.0000
  O   O9        1.0  0.5896300000000001  0.15156  0.27119  1.0000
  O   O10       1.0  0.79922  0.20025  0.4085700000000001  1.0000
  O   O11       1.0  0.10379  0.35745999999999994  0.07531000000000003  1.0000
  O   O12       1.0  0.24347  0.4066  0.94632  1.0000
  O   O13       1.0  0.46664  0.79128  0.22962000000000005  1.0000
  O   O14       1.0  0.47672  0.4963  0.20347  1.0000
  O   O15       1.0  0.08966000000000003  0.6489099999999998  0.22918000000000005  1.0000
  O   O16       1.0  0.29991000000000007  0.6956799999999997  0.09184000000000003  1.0000
  O   O17       1.0  0.6010700000000001  0.85595  0.4250400000000001  1.0000
  O   O18       1.0  0.74191  0.90356  0.55385  1.0000
  O   O19       1.0  0.03177000000000001  0.71033  0.73116  1.0000
  O   O20       1.0  0.02363  0.002309999999999999  0.6998700000000002  1.0000
  O   O21       1.0  0.41036  0.8484399999999999  0.7288100000000002  1.0000
  O   O22       1.0  0.20077  0.7997499999999997  0.5914300000000002  1.0000
  O   O23       1.0  0.8962000000000001  0.64255  0.9246900000000002  1.0000
  O   O24       1.0  0.7565200000000001  0.5934  0.05368  1.0000
