data_image0
_chemical_formula_structural       La2Ni3H30C24N6O24
_chemical_formula_sum              "La2 Ni3 H30 C24 N6 O24"
_cell_length_a       7.6014
_cell_length_b       13.23681
_cell_length_c       13.237669999999998
_cell_angle_alpha    120.23297
_cell_angle_beta     89.99637
_cell_angle_gamma    90.00952

_symmetry_space_group_name_H-M    'P 1'
_symmetry_Int_Tables_number       1

loop_
  _symmetry_equiv_pos_as_xyz
  'x,y,z'

loop_
  _atom_site_type_symbol
  _atom_site_label
  _atom_site_symmetry_multiplicity
  _atom_site_fract_x
  _atom_site_fract_y
  _atom_site_fract_z
  _atom_site_occupancy
  La  La1       1.0  0.33422  0.33328  0.66632  1.0000
  La  La2       1.0  0.66576  0.66677  0.33358  1.0000
  Ni  Ni1       1.0  5e-05  0.49991  0.99968  1.0000
  Ni  Ni2       1.0  0.9998599999999999  0.50017  0.49929  1.0000
  Ni  Ni3       1.0  4.9999999999999996e-05  0.0005999999999999919  0.50005  1.0000
  H   H1        1.0  0.70289  0.55729  0.81693  1.0000
  H   H2        1.0  0.58902  0.61147  0.9509099999999999  1.0000
  H   H3        1.0  0.83313  0.68631  0.04950999999999999  1.0000
  H   H4        1.0  0.07463  0.7249599999999999  0.9748999999999999  1.0000
  H   H5        1.0  0.93135  0.68303  0.85382  1.0000
  H   H6        1.0  0.70254  0.25883  0.44183999999999996  1.0000
  H   H7        1.0  0.58878  0.33885999999999994  0.38836  1.0000
  H   H8        1.0  0.83292  0.3619  0.31323  1.0000
  H   H9        1.0  0.07523  0.24924999999999997  0.27506  1.0000
  H   H10       1.0  0.9321  0.16960999999999998  0.31613  1.0000
  H   H11       1.0  0.70216  0.18365000000000006  0.74091  1.0000
  H   H12       1.0  0.5886399999999998  0.04949  0.66062  1.0000
  H   H13       1.0  0.83297  0.9512899999999997  0.63693  1.0000
  H   H14       1.0  0.07481  0.02604999999999997  0.7499  1.0000
  H   H15       1.0  0.93176  0.14721999999999996  0.8299699999999999  1.0000
  H   H16       1.0  0.29709  0.44270999999999994  0.18305  1.0000
  H   H17       1.0  0.41094999999999987  0.38853  0.04909999999999999  1.0000
  H   H18       1.0  0.16687999999999995  0.31368  0.9505  1.0000
  H   H19       1.0  0.92536  0.27505  0.025109999999999997  1.0000
  H   H20       1.0  0.06864  0.31699  0.14616  1.0000
  H   H21       1.0  0.29751  0.7412  0.55816  1.0000
  H   H22       1.0  0.41123  0.66115  0.61165  1.0000
  H   H23       1.0  0.16691  0.6379399999999998  0.68657  1.0000
  H   H24       1.0  0.9247899999999998  0.75074  0.7249299999999999  1.0000
  H   H25       1.0  0.06788  0.8304399999999998  0.6839  1.0000
  H   H26       1.0  0.29782  0.8163599999999999  0.2591  1.0000
  H   H27       1.0  0.41136  0.9505100000000002  0.33938  1.0000
  H   H28       1.0  0.16711  0.04873999999999997  0.36299  1.0000
  H   H29       1.0  0.92517  0.97395  0.25009  1.0000
  H   H30       1.0  0.06824  0.85278  0.17003  1.0000
  C   C1        1.0  0.6795999999999998  0.43657999999999997  0.8783799999999999  1.0000
  C   C2        1.0  0.7048  0.56086  0.90179  1.0000
  C   C3        1.0  0.9946299999999998  0.65282  0.90865  1.0000
  C   C4        1.0  0.12218  0.55449  0.8329  1.0000
  C   C5        1.0  0.67986  0.44177999999999995  0.56308  1.0000
  C   C6        1.0  0.70473  0.3403  0.43865  1.0000
  C   C7        1.0  0.99496  0.25509  0.34683  1.0000
  C   C8        1.0  0.12204  0.27828  0.44543  1.0000
  C   C9        1.0  0.67918  0.12123  0.55805  1.0000
  C   C10       1.0  0.7043499999999999  0.09857000000000007  0.65928  1.0000
  C   C11       1.0  0.9946899999999997  0.09221999999999991  0.7444499999999998  1.0000
  C   C12       1.0  0.12209999999999997  0.16751  0.7216299999999999  1.0000
  C   C13       1.0  0.32035  0.5634199999999999  0.12159999999999999  1.0000
  C   C14       1.0  0.29516  0.43914999999999993  0.09819999999999998  1.0000
  C   C15       1.0  0.00535  0.3472  0.09133999999999999  1.0000
  C   C16       1.0  0.87781  0.44555  0.16708  1.0000
  C   C17       1.0  0.3202799999999999  0.5582899999999998  0.43688999999999995  1.0000
  C   C18       1.0  0.2953  0.6597299999999999  0.56135  1.0000
  C   C19       1.0  0.00504  0.74495  0.65317  1.0000
  C   C20       1.0  0.8779099999999997  0.7218499999999999  0.55461  1.0000
  C   C21       1.0  0.32073  0.87881  0.44198  1.0000
  C   C22       1.0  0.29564  0.90144  0.34073  1.0000
  C   C23       1.0  0.005299999999999998  0.9077899999999999  0.25555  1.0000
  C   C24       1.0  0.87792  0.83252  0.27842  1.0000
  N   N1        1.0  0.86687  0.61725  0.9682  1.0000
  N   N2        1.0  0.8667  0.3502  0.38228  1.0000
  N   N3        1.0  0.86655  0.03240000000000007  0.64921  1.0000
  N   N4        1.0  0.1331  0.38276  0.03176  1.0000
  N   N5        1.0  0.13324999999999998  0.64979  0.61758  1.0000
  N   N6        1.0  0.13349  0.9676599999999996  0.35074999999999995  1.0000
  O   O1        1.0  0.54137  0.38348  0.82259  1.0000
  O   O2        1.0  0.79287  0.39146  0.91441  1.0000
  O   O3        1.0  0.11484  0.46001999999999993  0.8384999999999999  1.0000
  O   O4        1.0  0.23219  0.56638  0.7684  1.0000
  O   O5        1.0  0.54242  0.4389700000000001  0.61655  1.0000
  O   O6        1.0  0.79258  0.52367  0.60791  1.0000
  O   O7        1.0  0.11436  0.37886999999999993  0.53997  1.0000
  O   O8        1.0  0.23206  0.20186  0.4336  1.0000
  O   O9        1.0  0.54082  0.17663999999999996  0.56052  1.0000
  O   O10       1.0  0.79268  0.08492999999999996  0.47681999999999997  1.0000
  O   O11       1.0  0.11437  0.16163000000000005  0.62142  1.0000
  O   O12       1.0  0.23264  0.23193999999999998  0.79808  1.0000
  O   O13       1.0  0.45858  0.61652  0.17742  1.0000
  O   O14       1.0  0.20713  0.60853  0.08554  1.0000
  O   O15       1.0  0.88517  0.53998  0.16144  1.0000
  O   O16       1.0  0.76783  0.43365  0.2316  1.0000
  O   O17       1.0  0.45775  0.56105  0.38348  1.0000
  O   O18       1.0  0.20754999999999996  0.47639  0.39184  1.0000
  O   O19       1.0  0.88556  0.6212999999999999  0.45994  1.0000
  O   O20       1.0  0.76788  0.7982099999999999  0.56645  1.0000
  O   O21       1.0  0.45908  0.82335  0.43948  1.0000
  O   O22       1.0  0.20721999999999996  0.91522  0.52319  1.0000
  O   O23       1.0  0.88567  0.8384799999999997  0.3786399999999999  1.0000
  O   O24       1.0  0.76737  0.76807  0.20192  1.0000
