data_image0
_chemical_formula_structural       Ca2H8C16O12
_chemical_formula_sum              "Ca2 H8 C16 O12"
_cell_length_a       8.13807
_cell_length_b       8.1991
_cell_length_c       9.98185
_cell_angle_alpha    50.209790000000005
_cell_angle_beta     66.05405
_cell_angle_gamma    75.84694

_space_group_name_H-M_alt    "P 1"
_space_group_IT_number       1

loop_
  _space_group_symop_operation_xyz
  'x, y, z'

loop_
  _atom_site_type_symbol
  _atom_site_label
  _atom_site_symmetry_multiplicity
  _atom_site_fract_x
  _atom_site_fract_y
  _atom_site_fract_z
  _atom_site_occupancy
  Ca  Ca1       1.0  0.30978  0.3936799999999999  0.98894  1.0000
  Ca  Ca2       1.0  0.69022  0.60632  0.01106  1.0000
  H   H1        1.0  0.22005  0.328  0.36944  1.0000
  H   H2        1.0  0.66036  0.58016  0.38039  1.0000
  H   H3        1.0  0.68139  0.06821000000000027  0.8616299999999998  1.0000
  H   H4        1.0  0.88833  0.16763  0.15772  1.0000
  H   H5        1.0  0.7799499999999999  0.6719999999999999  0.63057  1.0000
  H   H6        1.0  0.33964999999999995  0.41984000000000005  0.61961  1.0000
  H   H7        1.0  0.31861  0.9317899999999999  0.13837999999999995  1.0000
  H   H8        1.0  0.11168000000000011  0.8323700000000002  0.8422799999999998  1.0000
  C   C1        1.0  0.9217499999999998  0.43613  0.27841  1.0000
  C   C2        1.0  0.95759  0.46357  0.39726  1.0000
  C   C3        1.0  0.12412000000000004  0.40549000000000013  0.4251399999999999  1.0000
  C   C4        1.0  0.82997  0.5594399999999999  0.47474  1.0000
  C   C5        1.0  0.6574699999999999  0.20509  0.004889999999999999  1.0000
  C   C6        1.0  0.8313  0.09595  0.00629  1.0000
  C   C7        1.0  0.93669  0.09607  0.08739  1.0000
  C   C8        1.0  0.8948200000000002  0.9955100000000001  0.92033  1.0000
  C   C9        1.0  0.07826000000000005  0.56387  0.7216  1.0000
  C   C10       1.0  0.042409999999999975  0.53643  0.60275  1.0000
  C   C11       1.0  0.87589  0.5945099999999999  0.57486  1.0000
  C   C12       1.0  0.17003000000000004  0.44056000000000006  0.52526  1.0000
  C   C13       1.0  0.34253000000000017  0.7949100000000001  0.9951199999999998  1.0000
  C   C14       1.0  0.16871  0.9040500000000001  0.99372  1.0000
  C   C15       1.0  0.06331000000000003  0.9039300000000001  0.91261  1.0000
  C   C16       1.0  0.10517999999999998  0.004489999999999999  0.07968  1.0000
  O   O1        1.0  0.043330000000000035  0.36679999999999996  0.19782999999999998  1.0000
  O   O2        1.0  0.76551  0.4898  0.25758  1.0000
  O   O3        1.0  0.56601  0.20208999999999996  0.92727  1.0000
  O   O4        1.0  0.5970799999999999  0.3021  0.07727  1.0000
  O   O5        1.0  0.6655999999999999  0.6206500000000001  0.45442999999999995  1.0000
  O   O6        1.0  0.79166  0.98127  0.84835  1.0000
  O   O7        1.0  0.95667  0.6332099999999999  0.80217  1.0000
  O   O8        1.0  0.23450000000000007  0.5102  0.74243  1.0000
  O   O9        1.0  0.43399000000000004  0.79791  0.07273  1.0000
  O   O10       1.0  0.40292000000000017  0.69791  0.9227299999999998  1.0000
  O   O11       1.0  0.3343999999999999  0.37935  0.54557  1.0000
  O   O12       1.0  0.20834  0.018729999999999993  0.15165  1.0000
