data_image0
_chemical_formula_structural       Co6H6C24O18
_chemical_formula_sum              "Co6 H6 C24 O18"
_cell_length_a       6.86488
_cell_length_b       15.25763
_cell_length_c       15.248930000000001
_cell_angle_alpha    117.78968
_cell_angle_beta     98.63196999999998
_cell_angle_gamma    98.66771

_symmetry_space_group_name_H-M    'P 1'
_symmetry_Int_Tables_number       1

loop_
  _symmetry_equiv_pos_as_xyz
  'x,y,z'

loop_
  _atom_site_type_symbol
  _atom_site_label
  _atom_site_symmetry_multiplicity
  _atom_site_fract_x
  _atom_site_fract_y
  _atom_site_fract_z
  _atom_site_occupancy
  Co  Co1       1.0  0.51695  0.40449  0.73237  1.0000
  Co  Co2       1.0  0.78451  0.2675100000000001  0.6719300000000002  1.0000
  Co  Co3       1.0  0.11183000000000004  0.3278700000000001  0.59548  1.0000
  Co  Co4       1.0  0.4829900000000001  0.5953800000000002  0.26733000000000007  1.0000
  Co  Co5       1.0  0.21572999999999998  0.73276  0.32811  1.0000
  Co  Co6       1.0  0.8881400000000002  0.6721300000000002  0.40471  1.0000
  H   H1        1.0  0.18009  0.5287  0.55217  1.0000
  H   H2        1.0  0.62793  0.44744000000000006  0.9762400000000001  1.0000
  H   H3        1.0  0.65206  0.024510000000000018  0.47167000000000003  1.0000
  H   H4        1.0  0.81944  0.4708100000000001  0.44736  1.0000
  H   H5        1.0  0.37215  0.55276  0.023480000000000008  1.0000
  H   H6        1.0  0.34780999999999995  0.97555  0.52851  1.0000
  C   C1        1.0  0.74587  0.39281  0.56487  1.0000
  C   C2        1.0  0.61728  0.44815999999999995  0.53377  1.0000
  C   C3        1.0  0.4323100000000001  0.46359000000000017  0.5639800000000001  1.0000
  C   C4        1.0  0.31989000000000006  0.5154200000000001  0.5289500000000001  1.0000
  C   C5        1.0  0.18153000000000005  0.4348500000000001  0.82779  1.0000
  C   C6        1.0  0.08372000000000011  0.4660100000000002  0.9142000000000002  1.0000
  C   C7        1.0  0.8685  0.43572  0.8994600000000001  1.0000
  C   C8        1.0  0.79101  0.47089000000000003  0.9863500000000002  1.0000
  C   C9        1.0  0.3551399999999999  0.17175000000000004  0.60675  1.0000
  C   C10       1.0  0.17029  0.08547000000000005  0.5516400000000001  1.0000
  C   C11       1.0  0.97002  0.10050000000000002  0.53636  1.0000
  C   C12       1.0  0.80469  0.013940000000000076  0.4847300000000001  1.0000
  C   C13       1.0  0.2546300000000001  0.60754  0.43527  1.0000
  C   C14       1.0  0.3827  0.5517500000000002  0.46602  1.0000
  C   C15       1.0  0.56733  0.5360400000000001  0.43552000000000013  1.0000
  C   C16       1.0  0.6796599999999999  0.48418  0.47056  1.0000
  C   C17       1.0  0.8188099999999999  0.56528  0.17218000000000006  1.0000
  C   C18       1.0  0.9164599999999997  0.5342  0.08568000000000003  1.0000
  C   C19       1.0  0.13169  0.56454  0.1004  1.0000
  C   C20       1.0  0.20911999999999994  0.52942  0.013500000000000002  1.0000
  C   C21       1.0  0.645  0.8282000000000002  0.3932600000000001  1.0000
  C   C22       1.0  0.8296299999999996  0.91452  0.44864  1.0000
  C   C23       1.0  0.029870000000000205  0.8995000000000002  0.46400000000000013  1.0000
  C   C24       1.0  0.1951400000000001  0.9860600000000002  0.5156100000000001  1.0000
  O   O1        1.0  0.68897  0.3599700000000002  0.6235200000000002  1.0000
  O   O2        1.0  0.90667  0.37808  0.53383  1.0000
  O   O3        1.0  0.3615900000000001  0.43156000000000005  0.6251500000000001  1.0000
  O   O4        1.0  0.06637000000000005  0.37566000000000005  0.73631  1.0000
  O   O5        1.0  0.3733099999999999  0.46620000000000017  0.8441200000000001  1.0000
  O   O6        1.0  0.73628  0.37457  0.8063  1.0000
  O   O7        1.0  0.33176  0.26326000000000016  0.6394500000000002  1.0000
  O   O8        1.0  0.5307100000000001  0.15529000000000023  0.6213800000000003  1.0000
  O   O9        1.0  0.93198  0.19375  0.56856  1.0000
  O   O10       1.0  0.31151  0.64036  0.37665  1.0000
  O   O11       1.0  0.09409000000000002  0.62238  0.46655000000000013  1.0000
  O   O12       1.0  0.6382299999999999  0.5680400000000002  0.37437  1.0000
  O   O13       1.0  0.9337499999999995  0.62474  0.26370000000000005  1.0000
  O   O14       1.0  0.62708  0.53363  0.15581000000000006  1.0000
  O   O15       1.0  0.2639900000000001  0.6255900000000002  0.19357000000000002  1.0000
  O   O16       1.0  0.66815  0.73666  0.36078  1.0000
  O   O17       1.0  0.4695400000000001  0.8447000000000002  0.37827  1.0000
  O   O18       1.0  0.068  0.80625  0.4316500000000001  1.0000
