data_image0
_chemical_formula_structural       Cu4H16C44N4O24
_chemical_formula_sum              "Cu4 H16 C44 N4 O24"
_cell_length_a       10.16322
_cell_length_b       10.98998
_cell_length_c       14.65987
_cell_angle_alpha    90.0
_cell_angle_beta     106.67785
_cell_angle_gamma    90.0

_space_group_name_H-M_alt    "P 1"
_space_group_IT_number       1

loop_
  _space_group_symop_operation_xyz
  'x, y, z'

loop_
  _atom_site_type_symbol
  _atom_site_label
  _atom_site_symmetry_multiplicity
  _atom_site_fract_x
  _atom_site_fract_y
  _atom_site_fract_z
  _atom_site_occupancy
  Cu  Cu1       1.0  0.03736  0.24254000000000006  0.008960000000000003  1.0000
  Cu  Cu2       1.0  0.9626399999999999  0.24254000000000006  0.49104  1.0000
  Cu  Cu3       1.0  0.9626399999999999  0.75746  0.99105  1.0000
  Cu  Cu4       1.0  0.03735999999999997  0.75746  0.50895  1.0000
  H   H1        1.0  0.12848000000000004  0.48756  0.04352000000000001  1.0000
  H   H2        1.0  0.31926  0.61499  0.03203  1.0000
  H   H3        1.0  0.5243400000000001  0.28326  0.9848500000000002  1.0000
  H   H4        1.0  0.32139000000000006  0.17045000000000002  0.9941600000000002  1.0000
  H   H5        1.0  0.87152  0.48756  0.45648  1.0000
  H   H6        1.0  0.68074  0.61499  0.46797  1.0000
  H   H7        1.0  0.47566  0.28326  0.5151400000000003  1.0000
  H   H8        1.0  0.6786100000000002  0.17045000000000002  0.5058400000000002  1.0000
  H   H9        1.0  0.87153  0.51245  0.95648  1.0000
  H   H10       1.0  0.6807400000000001  0.38502  0.9679700000000002  1.0000
  H   H11       1.0  0.47566  0.7167500000000002  0.015150000000000004  1.0000
  H   H12       1.0  0.67862  0.8295600000000001  0.0058400000000000014  1.0000
  H   H13       1.0  0.12847000000000006  0.51245  0.5435200000000001  1.0000
  H   H14       1.0  0.31926000000000004  0.38502  0.5320300000000001  1.0000
  H   H15       1.0  0.5243400000000001  0.7167500000000002  0.4848500000000001  1.0000
  H   H16       1.0  0.32139000000000006  0.8295600000000001  0.49416  1.0000
  C   C1        1.0  0.21752000000000005  0.44625  0.029670000000000005  1.0000
  C   C2        1.0  0.32732  0.51726  0.0234  1.0000
  C   C3        1.0  0.44178  0.4626400000000001  0.00514  1.0000
  C   C4        1.0  0.4393100000000001  0.33475000000000005  0.9966800000000002  1.0000
  C   C5        1.0  0.32503  0.26891000000000004  0.0022700000000000007  1.0000
  C   C6        1.0  0.9292099999999999  0.34782  0.15016000000000004  1.0000
  C   C7        1.0  0.9612599999999999  0.22800000000000006  0.20175  1.0000
  C   C8        1.0  0.8156299999999999  0.12033  0.056070000000000016  1.0000
  C   C9        1.0  0.91381  0.11823000000000002  0.15503000000000003  1.0000
  C   C10       1.0  0.95606  0.00793  0.20302000000000006  1.0000
  C   C11       1.0  0.9119  0.8902500000000001  0.14984  1.0000
  C   C12       1.0  0.78248  0.44625  0.47032  1.0000
  C   C13       1.0  0.6726800000000001  0.51726  0.47660000000000013  1.0000
  C   C14       1.0  0.55822  0.4626400000000001  0.49485000000000007  1.0000
  C   C15       1.0  0.56069  0.33475000000000005  0.50332  1.0000
  C   C16       1.0  0.6749699999999998  0.26891000000000004  0.49773000000000006  1.0000
  C   C17       1.0  0.0708  0.34782  0.34984  1.0000
  C   C18       1.0  0.03874000000000005  0.22800000000000006  0.2982500000000001  1.0000
  C   C19       1.0  0.18437000000000006  0.12033  0.4439300000000001  1.0000
  C   C20       1.0  0.08619  0.11823000000000002  0.34497  1.0000
  C   C21       1.0  0.04394  0.00793  0.29698  1.0000
  C   C22       1.0  0.08810000000000005  0.8902500000000001  0.35016000000000014  1.0000
  C   C23       1.0  0.7824800000000001  0.55375  0.97032  1.0000
  C   C24       1.0  0.6726800000000002  0.48275  0.9766000000000002  1.0000
  C   C25       1.0  0.55822  0.53736  0.99485  1.0000
  C   C26       1.0  0.56069  0.6652600000000001  0.003320000000000001  1.0000
  C   C27       1.0  0.67497  0.7311000000000001  0.9977200000000002  1.0000
  C   C28       1.0  0.07079000000000006  0.6521800000000001  0.8498400000000002  1.0000
  C   C29       1.0  0.03874000000000007  0.7720000000000002  0.7982500000000002  1.0000
  C   C30       1.0  0.18437000000000012  0.87967  0.9439300000000003  1.0000
  C   C31       1.0  0.08619000000000003  0.88177  0.8449700000000001  1.0000
  C   C32       1.0  0.043940000000000055  0.9920700000000002  0.7969800000000001  1.0000
  C   C33       1.0  0.0881000000000001  0.10975000000000001  0.8501600000000002  1.0000
  C   C34       1.0  0.21752000000000002  0.55375  0.52967  1.0000
  C   C35       1.0  0.32732000000000006  0.48275  0.5233900000000001  1.0000
  C   C36       1.0  0.44178  0.53736  0.50514  1.0000
  C   C37       1.0  0.4393100000000001  0.6652600000000001  0.4966800000000001  1.0000
  C   C38       1.0  0.32503  0.7311000000000001  0.50227  1.0000
  C   C39       1.0  0.9292099999999999  0.6521800000000001  0.65016  1.0000
  C   C40       1.0  0.9612599999999999  0.7720000000000002  0.70175  1.0000
  C   C41       1.0  0.8156299999999999  0.87967  0.55607  1.0000
  C   C42       1.0  0.91381  0.88177  0.65503  1.0000
  C   C43       1.0  0.95606  0.9920700000000002  0.70302  1.0000
  C   C44       1.0  0.9119  0.10975000000000001  0.64984  1.0000
  N   N1        1.0  0.21451  0.32454000000000005  0.017950000000000008  1.0000
  N   N2        1.0  0.78549  0.32454000000000005  0.48205000000000003  1.0000
  N   N3        1.0  0.78549  0.67546  0.9820500000000002  1.0000
  N   N4        1.0  0.21451  0.67546  0.51795  1.0000
  O   O1        1.0  0.85288  0.17750000000000005  0.98993  1.0000
  O   O2        1.0  0.70062  0.07284  0.04144  1.0000
  O   O3        1.0  0.98559  0.37041  0.08287000000000003  1.0000
  O   O4        1.0  0.8529099999999998  0.41867000000000004  0.1767  1.0000
  O   O5        1.0  0.94035  0.89077  0.06908000000000002  1.0000
  O   O6        1.0  0.85529  0.81122  0.18511000000000002  1.0000
  O   O7        1.0  0.14711999999999995  0.17750000000000005  0.51006  1.0000
  O   O8        1.0  0.29939  0.07284  0.45856  1.0000
  O   O9        1.0  0.014409999999999982  0.37041  0.41713  1.0000
  O   O10       1.0  0.14709000000000003  0.41867000000000004  0.32330000000000003  1.0000
  O   O11       1.0  0.05965000000000002  0.89077  0.4309200000000001  1.0000
  O   O12       1.0  0.14471  0.81122  0.31489  1.0000
  O   O13       1.0  0.14712  0.8225000000000002  0.01006  1.0000
  O   O14       1.0  0.2993799999999999  0.92716  0.95856  1.0000
  O   O15       1.0  0.01441000000000009  0.6295900000000001  0.9171300000000002  1.0000
  O   O16       1.0  0.14708000000000007  0.5813400000000001  0.8233000000000003  1.0000
  O   O17       1.0  0.059650000000000064  0.10923000000000001  0.9309200000000002  1.0000
  O   O18       1.0  0.14470999999999995  0.18878  0.81489  1.0000
  O   O19       1.0  0.85288  0.8225000000000002  0.48994  1.0000
  O   O20       1.0  0.70062  0.92716  0.54144  1.0000
  O   O21       1.0  0.98559  0.6295900000000001  0.58287  1.0000
  O   O22       1.0  0.85292  0.58133  0.67669  1.0000
  O   O23       1.0  0.94035  0.10923000000000001  0.56908  1.0000
  O   O24       1.0  0.8552900000000002  0.18878  0.6851100000000002  1.0000
