data_image0
_chemical_formula_structural       Zn2H28C34N2O8
_chemical_formula_sum              "Zn2 H28 C34 N2 O8"
_cell_length_a       9.65001
_cell_length_b       15.40089
_cell_length_c       15.401500000000002
_cell_angle_alpha    89.99635999999998
_cell_angle_beta     90.00318
_cell_angle_gamma    89.99909

_symmetry_space_group_name_H-M    'P 1'
_symmetry_Int_Tables_number       1

loop_
  _symmetry_equiv_pos_as_xyz
  'x,y,z'

loop_
  _atom_site_type_symbol
  _atom_site_label
  _atom_site_symmetry_multiplicity
  _atom_site_fract_x
  _atom_site_fract_y
  _atom_site_fract_z
  _atom_site_occupancy
  Zn  Zn1       1.0  0.64752  0.006220000000000002  0.99343  1.0000
  Zn  Zn2       1.0  0.35273  0.00624  0.99343  1.0000
  H   H1        1.0  0.71675  0.97513  0.71517  1.0000
  H   H2        1.0  0.71707  0.97232  0.55403  1.0000
  H   H3        1.0  0.71575  0.03822  0.27125  1.0000
  H   H4        1.0  0.7160799999999999  0.041860000000000015  0.43245  1.0000
  H   H5        1.0  0.71651  0.28431  0.02404  1.0000
  H   H6        1.0  0.71685  0.44546  0.02719  1.0000
  H   H7        1.0  0.71633  0.7283100000000002  0.96218  1.0000
  H   H8        1.0  0.7167099999999998  0.56711  0.95888  1.0000
  H   H9        1.0  0.28393  0.036  0.71509  1.0000
  H   H10       1.0  0.28407  0.03969  0.554  1.0000
  H   H11       1.0  0.28464999999999996  0.97312  0.27159  1.0000
  H   H12       1.0  0.28471  0.97004  0.43278  1.0000
  H   H13       1.0  0.28409  0.7281  0.02423  1.0000
  H   H14       1.0  0.28409  0.56692  0.02755  1.0000
  H   H15       1.0  0.284  0.2844600000000001  0.96258  1.0000
  H   H16       1.0  0.28402  0.44558  0.95921  1.0000
  H   H17       1.0  0.8768399999999998  0.8766000000000003  0.03216  1.0000
  H   H18       1.0  0.8772299999999998  0.89286  0.91881  1.0000
  H   H19       1.0  0.8764799999999999  0.10641000000000003  0.08572  1.0000
  H   H20       1.0  0.8773399999999999  0.00010000000000000003  0.12876  1.0000
  H   H21       1.0  0.8763299999999999  0.03802  0.86043  1.0000
  H   H22       1.0  0.8768299999999999  0.12823  0.9313  1.0000
  H   H23       1.0  0.12379  0.1279  0.93063  1.0000
  H   H24       1.0  0.12315  0.03714000000000001  0.86032  1.0000
  H   H25       1.0  0.12374  0.89234  0.91949  1.0000
  H   H26       1.0  0.12284  0.87697  0.03294  1.0000
  H   H27       1.0  0.12352999999999999  0.0009700000000000003  0.12884  1.0000
  H   H28       1.0  0.1233  0.10692000000000003  0.0852  1.0000
  C   C1        1.0  0.50009  0.004770000000000001  0.82298  1.0000
  C   C2        1.0  0.50025  0.00524  0.72558  1.0000
  C   C3        1.0  0.50051  0.0059  0.54135  1.0000
  C   C4        1.0  0.50014  0.004770000000000001  0.16378  1.0000
  C   C5        1.0  0.50027  0.005290000000000002  0.26114  1.0000
  C   C6        1.0  0.50045  0.005910000000000002  0.4453  1.0000
  C   C7        1.0  0.50011  0.17659  0.99356  1.0000
  C   C8        1.0  0.5002399999999999  0.2739700000000001  0.99338  1.0000
  C   C9        1.0  0.50043  0.45824  0.9932100000000003  1.0000
  C   C10       1.0  0.50011  0.8358  0.99349  1.0000
  C   C11       1.0  0.5002299999999998  0.73845  0.99331  1.0000
  C   C12       1.0  0.50041  0.5543000000000001  0.9932100000000003  1.0000
  C   C13       1.0  0.9198999999999999  0.91695  0.98019  1.0000
  C   C14       1.0  0.91982  0.04117  0.07718  1.0000
  C   C15       1.0  0.9195999999999999  0.06308  0.9212300000000002  1.0000
  C   C16       1.0  0.08048  0.06282  0.92103  1.0000
  C   C17       1.0  0.0804  0.9169300000000002  0.98048  1.0000
  C   C18       1.0  0.08047  0.04151  0.07704  1.0000
  C   C19       1.0  0.6224  0.98865  0.67908  1.0000
  C   C20       1.0  0.6222099999999999  0.9881200000000001  0.58867  1.0000
  C   C21       1.0  0.6219099999999999  0.02372  0.30748  1.0000
  C   C22       1.0  0.62166  0.02483  0.39789000000000013  1.0000
  C   C23       1.0  0.62227  0.32045  0.01039  1.0000
  C   C24       1.0  0.62205  0.4108600000000001  0.01113  1.0000
  C   C25       1.0  0.6222099999999999  0.69208  0.97595  1.0000
  C   C26       1.0  0.62196  0.6016700000000003  0.9751  1.0000
  C   C27       1.0  0.37832  0.02246  0.6790700000000002  1.0000
  C   C28       1.0  0.3787799999999999  0.02358  0.58867  1.0000
  C   C29       1.0  0.37865  0.98751  0.30769  1.0000
  C   C30       1.0  0.37906999999999996  0.9869000000000002  0.39809  1.0000
  C   C31       1.0  0.37832  0.69196  0.01053  1.0000
  C   C32       1.0  0.37875  0.60156  0.01131  1.0000
  C   C33       1.0  0.37833  0.32051000000000013  0.97618  1.0000
  C   C34       1.0  0.37875  0.41092  0.9753  1.0000
  N   N1        1.0  0.86653  0.00697  0.99291  1.0000
  N   N2        1.0  0.13372  0.00701  0.99289  1.0000
  O   O1        1.0  0.61783  0.87352  0.99146  1.0000
  O   O2        1.0  0.38235  0.87347  0.99563  1.0000
  O   O3        1.0  0.38227999999999995  0.00456  0.12611  1.0000
  O   O4        1.0  0.3822199999999999  0.0046  0.86069  1.0000
  O   O5        1.0  0.3822  0.13889  0.9915  1.0000
  O   O6        1.0  0.61791  0.00457  0.12604  1.0000
  O   O7        1.0  0.61794  0.00456  0.86075  1.0000
  O   O8        1.0  0.6179699999999999  0.13883  0.99569  1.0000
