data_image0
_chemical_formula_structural       Cu2H24C24N48
_chemical_formula_sum              "Cu2 H24 C24 N48"
_cell_length_a       8.24513
_cell_length_b       8.72122
_cell_length_c       20.97354
_cell_angle_alpha    89.99772999999999
_cell_angle_beta     89.99953999999998
_cell_angle_gamma    90.22028

_symmetry_space_group_name_H-M    'P 1'
_symmetry_Int_Tables_number       1

loop_
  _symmetry_equiv_pos_as_xyz
  'x,y,z'

loop_
  _atom_site_type_symbol
  _atom_site_label
  _atom_site_symmetry_multiplicity
  _atom_site_fract_x
  _atom_site_fract_y
  _atom_site_fract_z
  _atom_site_occupancy
  Cu  Cu1       1.0  0.9999900000000002  0.5  0.5  1.0000
  Cu  Cu2       1.0  0.5  0.0  0.0  1.0000
  H   H1        1.0  0.58902  0.37396  0.49686  1.0000
  H   H2        1.0  0.8202  0.93717  0.50349  1.0000
  H   H3        1.0  0.06505  0.67697  0.36067  1.0000
  H   H4        1.0  0.5540100000000002  0.66612  0.3403  1.0000
  H   H5        1.0  0.49101  0.7933  0.1396  1.0000
  H   H6        1.0  0.9943200000000001  0.85756  0.17075  1.0000
  H   H7        1.0  0.41097  0.62605  0.50314  1.0000
  H   H8        1.0  0.17979  0.06283  0.49651  1.0000
  H   H9        1.0  0.9349400000000002  0.32303  0.63933  1.0000
  H   H10       1.0  0.4459800000000001  0.33389  0.6597  1.0000
  H   H11       1.0  0.5089800000000001  0.20671  0.8604  1.0000
  H   H12       1.0  0.005670000000000001  0.14244  0.8292399999999999  1.0000
  H   H13       1.0  0.91095  0.12601999999999997  0.99683  1.0000
  H   H14       1.0  0.67976  0.56279  0.00343  1.0000
  H   H15       1.0  0.4349  0.82297  0.86057  1.0000
  H   H16       1.0  0.946  0.8338  0.84019  1.0000
  H   H17       1.0  0.00892  0.70665  0.63951  1.0000
  H   H18       1.0  0.50568  0.6424  0.6707  1.0000
  H   H19       1.0  0.08904  0.87399  0.00317  1.0000
  H   H20       1.0  0.32023  0.43721  0.9965599999999999  1.0000
  H   H21       1.0  0.56509  0.17702999999999997  0.13943  1.0000
  H   H22       1.0  0.05399000000000002  0.1662  0.15981  1.0000
  H   H23       1.0  0.9910700000000001  0.29335  0.36049  1.0000
  H   H24       1.0  0.4943100000000001  0.3576  0.3293  1.0000
  C   C1        1.0  0.6827500000000002  0.28721  0.49777999999999994  1.0000
  C   C2        1.0  0.8015100000000002  0.06003000000000001  0.50041  1.0000
  C   C3        1.0  0.93801  0.65966  0.3712  1.0000
  C   C4        1.0  0.6732  0.6528499999999999  0.36082  1.0000
  C   C5        1.0  0.61645  0.82418  0.13158  1.0000
  C   C6        1.0  0.87722  0.85756  0.14758  1.0000
  C   C7        1.0  0.31724  0.71279  0.50221  1.0000
  C   C8        1.0  0.19847  0.93997  0.4995899999999999  1.0000
  C   C9        1.0  0.06198000000000001  0.34034  0.62879  1.0000
  C   C10       1.0  0.32679  0.34715  0.63918  1.0000
  C   C11       1.0  0.3835400000000001  0.17582  0.8684099999999999  1.0000
  C   C12       1.0  0.12277000000000002  0.14244999999999994  0.8524099999999999  1.0000
  C   C13       1.0  0.81722  0.21279  0.99765  1.0000
  C   C14       1.0  0.69844  0.43995  0.00029  1.0000
  C   C15       1.0  0.56196  0.84039  0.8710599999999998  1.0000
  C   C16       1.0  0.8267400000000001  0.84719  0.8606700000000002  1.0000
  C   C17       1.0  0.8835  0.67577  0.63147  1.0000
  C   C18       1.0  0.62272  0.64238  0.6475  1.0000
  C   C19       1.0  0.18277  0.78722  0.00235  1.0000
  C   C20       1.0  0.3015500000000001  0.56006  0.9996999999999999  1.0000
  C   C21       1.0  0.4380300000000001  0.15961  0.12894  1.0000
  C   C22       1.0  0.17325  0.15281  0.13933  1.0000
  C   C23       1.0  0.11649  0.32423  0.36853  1.0000
  C   C24       1.0  0.37727  0.35763  0.35249  1.0000
  N   N1        1.0  0.8412  0.30683  0.49124999999999996  1.0000
  N   N2        1.0  0.916  0.16432  0.49456999999999995  1.0000
  N   N3        1.0  0.65226  0.13212999999999997  0.50351  1.0000
  N   N4        1.0  0.49834  0.07131  0.5083  1.0000
  N   N5        1.0  0.8748000000000002  0.60722  0.42483999999999994  1.0000
  N   N6        1.0  0.70778  0.60197  0.41854  1.0000
  N   N7        1.0  0.8152800000000002  0.6899  0.32879  1.0000
  N   N8        1.0  0.8441500000000001  0.7433  0.26798  1.0000
  N   N9        1.0  0.67915  0.88167  0.07886  1.0000
  N   N10       1.0  0.84428  0.9035  0.08890999999999999  1.0000
  N   N11       1.0  0.7361000000000002  0.80683  0.17681  1.0000
  N   N12       1.0  0.7067  0.75111  0.23723999999999998  1.0000
  N   N13       1.0  0.15879  0.69318  0.50874  1.0000
  N   N14       1.0  0.08399  0.83568  0.50542  1.0000
  N   N15       1.0  0.34773  0.86787  0.49648999999999993  1.0000
  N   N16       1.0  0.50165  0.92869  0.4917  1.0000
  N   N17       1.0  0.12519  0.39278  0.57516  1.0000
  N   N18       1.0  0.29221  0.39803  0.58146  1.0000
  N   N19       1.0  0.1847  0.3101  0.67121  1.0000
  N   N20       1.0  0.15584  0.2567  0.73202  1.0000
  N   N21       1.0  0.32083  0.11834  0.92113  1.0000
  N   N22       1.0  0.15571000000000004  0.0965  0.91109  1.0000
  N   N23       1.0  0.26389  0.19318  0.82319  1.0000
  N   N24       1.0  0.29329  0.24888999999999997  0.76276  1.0000
  N   N25       1.0  0.6587500000000002  0.19313  0.9912  1.0000
  N   N26       1.0  0.5839500000000002  0.33564  0.99451  1.0000
  N   N27       1.0  0.8477  0.36786  0.0033499999999999997  1.0000
  N   N28       1.0  0.0015700000000000004  0.42872  0.00836  1.0000
  N   N29       1.0  0.62515  0.89301  0.92465  1.0000
  N   N30       1.0  0.79217  0.89824  0.91835  1.0000
  N   N31       1.0  0.68467  0.8100599999999999  0.82866  1.0000
  N   N32       1.0  0.65585  0.75662  0.76786  1.0000
  N   N33       1.0  0.82076  0.61831  0.57875  1.0000
  N   N34       1.0  0.65563  0.59646  0.58881  1.0000
  N   N35       1.0  0.76387  0.69311  0.6767  1.0000
  N   N36       1.0  0.79329  0.74886  0.73711  1.0000
  N   N37       1.0  0.34124  0.80687  0.0088  1.0000
  N   N38       1.0  0.41604  0.66437  0.00548  1.0000
  N   N39       1.0  0.15228  0.63214  0.9966499999999999  1.0000
  N   N40       1.0  0.99841  0.57128  0.99164  1.0000
  N   N41       1.0  0.37484  0.10699999999999997  0.07534  1.0000
  N   N42       1.0  0.20782  0.10175999999999999  0.08165  1.0000
  N   N43       1.0  0.31532  0.18995  0.17134  1.0000
  N   N44       1.0  0.34414  0.24339  0.23214  1.0000
  N   N45       1.0  0.17923  0.38169  0.42125000000000007  1.0000
  N   N46       1.0  0.34435  0.40355  0.41119000000000006  1.0000
  N   N47       1.0  0.23611000000000004  0.30688999999999994  0.3233  1.0000
  N   N48       1.0  0.20670000000000005  0.25114  0.26288  1.0000
