data_image0
_chemical_formula_structural       Mn4Nb2H8C24N20O4
_chemical_formula_sum              "Mn4 Nb2 H8 C24 N20 O4"
_cell_length_a       10.14814
_cell_length_b       10.138869999999999
_cell_length_c       12.702029999999999
_cell_angle_alpha    74.24839
_cell_angle_beta     75.72809
_cell_angle_gamma    72.39958

_symmetry_space_group_name_H-M    'P 1'
_symmetry_Int_Tables_number       1

loop_
  _symmetry_equiv_pos_as_xyz
  'x,y,z'

loop_
  _atom_site_type_symbol
  _atom_site_label
  _atom_site_symmetry_multiplicity
  _atom_site_fract_x
  _atom_site_fract_y
  _atom_site_fract_z
  _atom_site_occupancy
  Mn  Mn1       1.0  0.24511  0.35113  0.13015  1.0000
  Mn  Mn2       1.0  0.6453399999999999  0.7547200000000001  0.37294999999999995  1.0000
  Mn  Mn3       1.0  0.75488  0.64887  0.86985  1.0000
  Mn  Mn4       1.0  0.35466  0.24528999999999995  0.62705  1.0000
  Nb  Nb1       1.0  0.7359800000000001  0.26575  0.25227  1.0000
  Nb  Nb2       1.0  0.26400999999999997  0.7342500000000002  0.74773  1.0000
  H   H1        1.0  0.20668999999999998  0.52908  0.40874  1.0000
  H   H2        1.0  0.32972  0.63942  0.06436  1.0000
  H   H3        1.0  0.47977  0.78483  0.09063999999999998  1.0000
  H   H4        1.0  0.34912999999999994  0.6807  0.4350399999999999  1.0000
  H   H5        1.0  0.7933100000000002  0.47093  0.59126  1.0000
  H   H6        1.0  0.6702699999999999  0.36057999999999996  0.93564  1.0000
  H   H7        1.0  0.5202200000000001  0.21517000000000003  0.90937  1.0000
  H   H8        1.0  0.65087  0.3193099999999999  0.56496  1.0000
  C   C1        1.0  0.96177  0.26226  0.20104999999999995  1.0000
  C   C2        1.0  0.80256  0.17876  0.09935  1.0000
  C   C3        1.0  0.55524  0.27651  0.39234  1.0000
  C   C4        1.0  0.54223  0.27425  0.19655999999999998  1.0000
  C   C5        1.0  0.26848  0.58695  0.3400099999999999  1.0000
  C   C6        1.0  0.3387699999999999  0.64662  0.14578  1.0000
  C   C7        1.0  0.7362299999999999  0.038360000000000005  0.30684  1.0000
  C   C8        1.0  0.82513  0.19416  0.40696  1.0000
  C   C9        1.0  0.72586  0.44732000000000005  0.10856  1.0000
  C   C10       1.0  0.72789  0.45916  0.30592  1.0000
  C   C11       1.0  0.41856999999999994  0.72642  0.15957  1.0000
  C   C12       1.0  0.34758  0.66704  0.35375  1.0000
  C   C13       1.0  0.03822000000000003  0.7377399999999998  0.79895  1.0000
  C   C14       1.0  0.1974400000000001  0.82124  0.9006499999999998  1.0000
  C   C15       1.0  0.4447499999999998  0.7234900000000001  0.60766  1.0000
  C   C16       1.0  0.4577600000000001  0.7257499999999999  0.80344  1.0000
  C   C17       1.0  0.7315099999999998  0.4130499999999999  0.65999  1.0000
  C   C18       1.0  0.66122  0.35338  0.85422  1.0000
  C   C19       1.0  0.2637700000000001  0.96164  0.69316  1.0000
  C   C20       1.0  0.17487000000000005  0.8058499999999998  0.59304  1.0000
  C   C21       1.0  0.27412999999999993  0.55268  0.89145  1.0000
  C   C22       1.0  0.2721  0.5408399999999999  0.69408  1.0000
  C   C23       1.0  0.58143  0.27359000000000006  0.84043  1.0000
  C   C24       1.0  0.65241  0.33297  0.64625  1.0000
  N   N1        1.0  0.07696999999999994  0.27692  0.17396  1.0000
  N   N2        1.0  0.8267999999999999  0.13902  0.01618  1.0000
  N   N3        1.0  0.4631600000000001  0.27988  0.46993  1.0000
  N   N4        1.0  0.4386699999999999  0.28207  0.16646  1.0000
  N   N5        1.0  0.2624000000000001  0.57721  0.23639999999999997  1.0000
  N   N6        1.0  0.7199399999999999  0.9228900000000001  0.33456  1.0000
  N   N7        1.0  0.8665400000000001  0.16718000000000002  0.4909499999999999  1.0000
  N   N8        1.0  0.72378  0.54047  0.02917  1.0000
  N   N9        1.0  0.7181299999999999  0.5621100000000002  0.3364199999999999  1.0000
  N   N10       1.0  0.4222  0.73803  0.26329  1.0000
  N   N11       1.0  0.92302  0.7230800000000002  0.82604  1.0000
  N   N12       1.0  0.17319  0.8609899999999999  0.98382  1.0000
  N   N13       1.0  0.5368299999999999  0.72012  0.53008  1.0000
  N   N14       1.0  0.56132  0.71794  0.8335399999999998  1.0000
  N   N15       1.0  0.7376  0.4228000000000001  0.7635999999999998  1.0000
  N   N16       1.0  0.2800499999999999  0.07711  0.66544  1.0000
  N   N17       1.0  0.13344999999999999  0.8328200000000001  0.50905  1.0000
  N   N18       1.0  0.2762200000000001  0.45953  0.97083  1.0000
  N   N19       1.0  0.2818600000000001  0.43789  0.66358  1.0000
  N   N20       1.0  0.5778  0.26197  0.73671  1.0000
  O   O1        1.0  0.18186000000000005  0.50253  0.22717  1.0000
  O   O2        1.0  0.49472000000000016  0.8194700000000001  0.27413  1.0000
  O   O3        1.0  0.8181299999999999  0.49746999999999997  0.77283  1.0000
  O   O4        1.0  0.5052699999999999  0.18053  0.72587  1.0000
