data_image0
_chemical_formula_structural       Fe6P6H4C8O40
_chemical_formula_sum              "Fe6 P6 H4 C8 O40"
_cell_length_a       9.85452
_cell_length_b       10.45133
_cell_length_c       11.402130000000001
_cell_angle_alpha    92.63135
_cell_angle_beta     70.74507
_cell_angle_gamma    59.034099999999995

_space_group_name_H-M_alt    "P 1"
_space_group_IT_number       1

loop_
  _space_group_symop_operation_xyz
  'x, y, z'

loop_
  _atom_site_type_symbol
  _atom_site_label
  _atom_site_symmetry_multiplicity
  _atom_site_fract_x
  _atom_site_fract_y
  _atom_site_fract_z
  _atom_site_occupancy
  Fe  Fe1       1.0  0.08578  0.13413  0.32331  1.0000
  Fe  Fe2       1.0  0.81339  0.97503  0.17509  1.0000
  Fe  Fe3       1.0  0.27690999999999993  0.23300000000000007  0.58247  1.0000
  Fe  Fe4       1.0  0.9132000000000001  0.8642100000000001  0.67984  1.0000
  Fe  Fe5       1.0  0.18470999999999993  0.026760000000000016  0.8282300000000001  1.0000
  Fe  Fe6       1.0  0.72333  0.7665599999999999  0.4219899999999999  1.0000
  P   P1        1.0  0.47831000000000007  0.9874199999999997  0.2926  1.0000
  P   P2        1.0  0.8762499999999998  0.97173  0.4204  1.0000
  P   P3        1.0  0.91305  0.21440000000000003  0.11948999999999999  1.0000
  P   P4        1.0  0.51984  0.012829999999999998  0.71245  1.0000
  P   P5        1.0  0.12196999999999997  0.028160000000000004  0.58301  1.0000
  P   P6        1.0  0.08744999999999992  0.7859100000000002  0.88322  1.0000
  H   H1        1.0  0.6139700000000002  0.15798  0.56823  1.0000
  H   H2        1.0  0.6753  0.44916000000000006  0.19926000000000002  1.0000
  H   H3        1.0  0.38589  0.84157  0.43653999999999993  1.0000
  H   H4        1.0  0.32712000000000013  0.5520399999999999  0.8079799999999999  1.0000
  C   C1        1.0  0.9855500000000001  0.4544500000000001  0.3632  1.0000
  C   C2        1.0  0.8162899999999997  0.46251000000000003  0.41195999999999994  1.0000
  C   C3        1.0  0.12451000000000001  0.51582  0.08315  1.0000
  C   C4        1.0  0.3835400000000001  0.6434  0.17052  1.0000
  C   C5        1.0  0.015370000000000019  0.54406  0.63937  1.0000
  C   C6        1.0  0.18471999999999986  0.5360800000000002  0.59063  1.0000
  C   C7        1.0  0.8664500000000002  0.48950999999999995  0.9247899999999999  1.0000
  C   C8        1.0  0.6145399999999999  0.34740000000000004  0.8401499999999998  1.0000
  O   O1        1.0  0.61573  0.9893700000000001  0.17715  1.0000
  O   O2        1.0  0.33963999999999994  0.9950000000000001  0.25459  1.0000
  O   O3        1.0  0.40219  0.12308000000000001  0.40997  1.0000
  O   O4        1.0  0.56891  0.8332300000000001  0.33364  1.0000
  O   O5        1.0  0.01883999999999999  0.9838400000000002  0.32733  1.0000
  O   O6        1.0  0.93125  0.85574  0.49931999999999993  1.0000
  O   O7        1.0  0.8120000000000005  0.90769  0.33468  1.0000
  O   O8        1.0  0.7227499999999999  0.14144  0.50425  1.0000
  O   O9        1.0  0.9774199999999998  0.16476000000000002  0.9705200000000002  1.0000
  O   O10       1.0  0.7857000000000001  0.16771  0.18537  1.0000
  O   O11       1.0  0.06787999999999998  0.15284  0.15478  1.0000
  O   O12       1.0  0.80214  0.3985100000000001  0.16092  1.0000
  O   O13       1.0  0.12611000000000003  0.32457  0.32192  1.0000
  O   O14       1.0  0.9672200000000001  0.5861100000000001  0.36734  1.0000
  O   O15       1.0  0.8270499999999997  0.3375200000000001  0.41095  1.0000
  O   O16       1.0  0.6780200000000001  0.59832  0.44765  1.0000
  O   O17       1.0  0.97357  0.5965800000000001  0.11404999999999998  1.0000
  O   O18       1.0  0.27472999999999986  0.4348500000000001  0.05376999999999999  1.0000
  O   O19       1.0  0.33039999999999997  0.70138  0.09638  1.0000
  O   O20       1.0  0.4374999999999998  0.5833900000000002  0.24477  1.0000
  O   O21       1.0  0.38139  0.012570000000000001  0.8281799999999999  1.0000
  O   O22       1.0  0.65901  0.0033000000000000178  0.75083  1.0000
  O   O23       1.0  0.5953799999999999  0.87794  0.59464  1.0000
  O   O24       1.0  0.42957  0.16754000000000005  0.67202  1.0000
  O   O25       1.0  0.97934  0.015330000000000005  0.67513  1.0000
  O   O26       1.0  0.06670999999999999  0.14356  0.50361  1.0000
  O   O27       1.0  0.18588999999999997  0.09325000000000004  0.66878  1.0000
  O   O28       1.0  0.2770399999999999  0.8582100000000003  0.50064  1.0000
  O   O29       1.0  0.020980000000000026  0.83877  0.03212  1.0000
  O   O30       1.0  0.21313999999999989  0.8338500000000002  0.81601  1.0000
  O   O31       1.0  0.9341600000000001  0.84357  0.8465099999999999  1.0000
  O   O32       1.0  0.2004699999999999  0.60187  0.84378  1.0000
  O   O33       1.0  0.8748200000000003  0.67398  0.6794  1.0000
  O   O34       1.0  0.033029999999999955  0.41284  0.63632  1.0000
  O   O35       1.0  0.17386999999999994  0.66088  0.58949  1.0000
  O   O36       1.0  0.32297000000000003  0.40041000000000004  0.55628  1.0000
  O   O37       1.0  0.01793999999999993  0.41536  0.89165  1.0000
  O   O38       1.0  0.7153399999999999  0.56376  0.95683  1.0000
  O   O39       1.0  0.6653900000000001  0.28385  0.91316  1.0000
  O   O40       1.0  0.5638799999999999  0.41256  0.76661  1.0000
