data_image0
_chemical_formula_structural       Cd3H6C18O12
_chemical_formula_sum              "Cd3 H6 C18 O12"
_cell_length_a       7.59189
_cell_length_b       7.49275
_cell_length_c       10.22538
_cell_angle_alpha    106.06126
_cell_angle_beta     101.34869000000002
_cell_angle_gamma    105.03417

_space_group_name_H-M_alt    "P 1"
_space_group_IT_number       1

loop_
  _space_group_symop_operation_xyz
  'x, y, z'

loop_
  _atom_site_type_symbol
  _atom_site_label
  _atom_site_symmetry_multiplicity
  _atom_site_fract_x
  _atom_site_fract_y
  _atom_site_fract_z
  _atom_site_occupancy
  Cd  Cd1       1.0  0.8127999999999996  0.5890699999999998  0.65178  1.0000
  Cd  Cd2       1.0  0.18718999999999988  0.4109199999999999  0.34822  1.0000
  Cd  Cd3       1.0  0.4999999999999999  0.0  0.5  1.0000
  H   H1        1.0  0.12131999999999989  0.42833999999999983  0.8892699999999999  1.0000
  H   H2        1.0  0.63654  0.8670299999999997  0.18759  1.0000
  H   H3        1.0  0.7310699999999998  0.9611099999999998  0.98985  1.0000
  H   H4        1.0  0.8786699999999998  0.5716499999999998  0.11071999999999999  1.0000
  H   H5        1.0  0.36344999999999983  0.13295999999999994  0.81241  1.0000
  H   H6        1.0  0.26892  0.03889  0.01014  1.0000
  C   C1        1.0  0.4795399999999999  0.7493899999999998  0.82868  1.0000
  C   C2        1.0  0.3087199999999999  0.59538  0.80012  1.0000
  C   C3        1.0  0.2535999999999999  0.54606  0.91131  1.0000
  C   C4        1.0  0.3693799999999998  0.6473899999999998  0.05217  1.0000
  C   C5        1.0  0.5443599999999997  0.79195  0.0792  1.0000
  C   C6        1.0  0.5982199999999998  0.8440199999999998  0.96828  1.0000
  C   C7        1.0  0.52468  0.82345  0.7129  1.0000
  C   C8        1.0  0.1962099999999999  0.4750699999999998  0.64968  1.0000
  C   C9        1.0  0.3074499999999999  0.58879  0.16807  1.0000
  C   C10       1.0  0.52045  0.2506  0.17132  1.0000
  C   C11       1.0  0.69127  0.4046099999999999  0.19988  1.0000
  C   C12       1.0  0.7463999999999997  0.4539299999999999  0.08868  1.0000
  C   C13       1.0  0.6306099999999998  0.35260999999999987  0.94783  1.0000
  C   C14       1.0  0.45564  0.20803999999999995  0.9208000000000001  1.0000
  C   C15       1.0  0.4017699999999999  0.15596999999999994  0.03172  1.0000
  C   C16       1.0  0.47531  0.17653999999999995  0.28709  1.0000
  C   C17       1.0  0.8037799999999998  0.52492  0.35032  1.0000
  C   C18       1.0  0.6925499999999998  0.41119999999999995  0.83193  1.0000
  O   O1        1.0  0.68894  0.85836  0.69437  1.0000
  O   O2        1.0  0.3873999999999999  0.8581599999999999  0.63908  1.0000
  O   O3        1.0  0.29817  0.43483  0.56636  1.0000
  O   O4        1.0  0.016149999999999973  0.4149499999999999  0.61177  1.0000
  O   O5        1.0  0.16817  0.42751  0.131  1.0000
  O   O6        1.0  0.3943299999999998  0.68999  0.29956  1.0000
  O   O7        1.0  0.3110599999999999  0.14162999999999995  0.30562  1.0000
  O   O8        1.0  0.61259  0.14183  0.36091  1.0000
  O   O9        1.0  0.7018199999999999  0.56516  0.43364  1.0000
  O   O10       1.0  0.9838499999999998  0.58504  0.38823  1.0000
  O   O11       1.0  0.8318199999999998  0.57248  0.869  1.0000
  O   O12       1.0  0.60567  0.31  0.70044  1.0000
