data_image0
_chemical_formula_structural       Cu6P6H6C12O18
_chemical_formula_sum              "Cu6 P6 H6 C12 O18"
_cell_length_a       9.54554
_cell_length_b       9.95251
_cell_length_c       10.72944
_cell_angle_alpha    72.93498
_cell_angle_beta     61.95027
_cell_angle_gamma    48.89209000000001

_symmetry_space_group_name_H-M    'P 1'
_symmetry_Int_Tables_number       1

loop_
  _symmetry_equiv_pos_as_xyz
  'x,y,z'

loop_
  _atom_site_type_symbol
  _atom_site_label
  _atom_site_symmetry_multiplicity
  _atom_site_fract_x
  _atom_site_fract_y
  _atom_site_fract_z
  _atom_site_occupancy
  Cu  Cu1       1.0  0.24561000000000005  0.48482  0.53408  1.0000
  Cu  Cu2       1.0  0.4251999999999999  0.19967  0.8156900000000001  1.0000
  Cu  Cu3       1.0  0.21227999999999994  0.2132  0.18961000000000006  1.0000
  Cu  Cu4       1.0  0.75441  0.51517  0.46592  1.0000
  Cu  Cu5       1.0  0.5748099999999998  0.80033  0.18431  1.0000
  Cu  Cu6       1.0  0.7877299999999994  0.78679  0.81038  1.0000
  P   P1        1.0  0.9122599999999998  0.45578  0.70358  1.0000
  P   P2        1.0  0.65767  0.0527  0.00063  1.0000
  P   P3        1.0  0.62553  0.4606699999999999  0.28958  1.0000
  P   P4        1.0  0.08774999999999994  0.54419  0.2964200000000001  1.0000
  P   P5        1.0  0.3423300000000001  0.9473  0.99939  1.0000
  P   P6        1.0  0.37446999999999997  0.5393  0.71043  1.0000
  H   H1        1.0  0.83336  0.20002  0.7736300000000002  1.0000
  H   H2        1.0  0.6116700000000002  0.19971  0.23022000000000004  1.0000
  H   H3        1.0  0.8359199999999998  0.49598  0.99611  1.0000
  H   H4        1.0  0.1666399999999999  0.8  0.22640000000000002  1.0000
  H   H5        1.0  0.38839  0.80032  0.7697  1.0000
  H   H6        1.0  0.16411  0.50411  0.00388  1.0000
  C   C1        1.0  0.8407899999999999  0.3587599999999999  0.8689000000000001  1.0000
  C   C2        1.0  0.8039699999999996  0.24154  0.8711300000000001  1.0000
  C   C3        1.0  0.72344  0.18456999999999996  0.00182  1.0000
  C   C4        1.0  0.67876  0.24104  0.13072  1.0000
  C   C5        1.0  0.71699  0.3574999999999999  0.1275  1.0000
  C   C6        1.0  0.8030299999999997  0.4096  0.99735  1.0000
  C   C7        1.0  0.15925  0.64146  0.13113  1.0000
  C   C8        1.0  0.19594999999999999  0.75825  0.12894  1.0000
  C   C9        1.0  0.27666  0.81548  0.9980600000000001  1.0000
  C   C10       1.0  0.32111999999999996  0.75876  0.86942  1.0000
  C   C11       1.0  0.28317  0.64273  0.87233  1.0000
  C   C12       1.0  0.19685999999999995  0.59017  0.00275  1.0000
  O   O1        1.0  0.5089100000000001  0.3999  0.41032  1.0000
  O   O2        1.0  0.8939999999999997  0.40764  0.59216  1.0000
  O   O3        1.0  0.13235999999999984  0.37351  0.6695100000000003  1.0000
  O   O4        1.0  0.8118399999999998  0.39847999999999995  0.30923000000000006  1.0000
  O   O5        1.0  0.43089  0.18376999999999993  0.0051  1.0000
  O   O6        1.0  0.7983900000000002  0.94951  0.85764  1.0000
  O   O7        1.0  0.7724799999999999  0.66199  0.72439  1.0000
  O   O8        1.0  0.48359  0.66629  0.27429  1.0000
  O   O9        1.0  0.65791  0.9430499999999999  0.13611  1.0000
  O   O10       1.0  0.4910899999999999  0.60011  0.58969  1.0000
  O   O11       1.0  0.10601000000000003  0.59236  0.40783  1.0000
  O   O12       1.0  0.86765  0.62648  0.3305  1.0000
  O   O13       1.0  0.18817999999999988  0.60151  0.69077  1.0000
  O   O14       1.0  0.5691199999999997  0.81623  0.9949000000000001  1.0000
  O   O15       1.0  0.20162000000000002  0.05047999999999999  0.14236  1.0000
  O   O16       1.0  0.22751999999999994  0.33801  0.27562  1.0000
  O   O17       1.0  0.5164200000000002  0.33372  0.7257100000000001  1.0000
  O   O18       1.0  0.34208999999999995  0.056939999999999984  0.86388  1.0000
