data_image0
_chemical_formula_structural       Zn2H26C44N2O8
_chemical_formula_sum              "Zn2 H26 C44 N2 O8"
_cell_length_a       11.79115
_cell_length_b       14.01037
_cell_length_c       15.70111
_cell_angle_alpha    90.0
_cell_angle_beta     90.0
_cell_angle_gamma    90.0

_symmetry_space_group_name_H-M    'P 1'
_symmetry_Int_Tables_number       1

loop_
  _symmetry_equiv_pos_as_xyz
  'x,y,z'

loop_
  _atom_site_type_symbol
  _atom_site_label
  _atom_site_symmetry_multiplicity
  _atom_site_fract_x
  _atom_site_fract_y
  _atom_site_fract_z
  _atom_site_occupancy
  Zn  Zn1       1.0  0.4999999999999999  0.09786  0.0  1.0000
  Zn  Zn2       1.0  0.4999999999999999  0.9021400000000002  0.0  1.0000
  H   H1        1.0  0.13531  0.15328000000000003  0.3325800000000001  1.0000
  H   H2        1.0  0.25886  0.15279000000000006  0.20303000000000004  1.0000
  H   H3        1.0  0.86469  0.8467200000000003  0.3325800000000001  1.0000
  H   H4        1.0  0.74114  0.84721  0.20303000000000004  1.0000
  H   H5        1.0  0.86469  0.15328000000000003  0.66742  1.0000
  H   H6        1.0  0.74114  0.15279000000000006  0.7969700000000002  1.0000
  H   H7        1.0  0.13531  0.8467200000000003  0.66742  1.0000
  H   H8        1.0  0.25886  0.84721  0.7969700000000002  1.0000
  H   H9        1.0  0.86469  0.8467200000000003  0.66742  1.0000
  H   H10       1.0  0.74114  0.84721  0.7969700000000002  1.0000
  H   H11       1.0  0.13531  0.15328000000000003  0.66742  1.0000
  H   H12       1.0  0.25886  0.15279000000000006  0.7969700000000002  1.0000
  H   H13       1.0  0.13531  0.8467200000000003  0.3325800000000001  1.0000
  H   H14       1.0  0.25886  0.84721  0.20303000000000004  1.0000
  H   H15       1.0  0.86469  0.15328000000000003  0.3325800000000001  1.0000
  H   H16       1.0  0.74114  0.15279000000000006  0.20303000000000004  1.0000
  H   H17       1.0  0.7905499999999999  0.0  0.5  1.0000
  H   H18       1.0  0.20944999999999997  0.0  0.5  1.0000
  H   H19       1.0  0.32495999999999997  0.25186  0.0  1.0000
  H   H20       1.0  0.31621  0.42883  0.0  1.0000
  H   H21       1.0  0.6750399999999999  0.74814  0.0  1.0000
  H   H22       1.0  0.6837899999999999  0.57117  0.0  1.0000
  H   H23       1.0  0.6750399999999999  0.25186  0.0  1.0000
  H   H24       1.0  0.6837899999999999  0.42883  0.0  1.0000
  H   H25       1.0  0.32495999999999997  0.74814  0.0  1.0000
  H   H26       1.0  0.31621  0.57117  0.0  1.0000
  C   C1        1.0  0.1616  0.08622  0.3038200000000001  1.0000
  C   C2        1.0  0.23030999999999993  0.08627  0.23151000000000005  1.0000
  C   C3        1.0  0.8384099999999999  0.91378  0.3038200000000001  1.0000
  C   C4        1.0  0.7696899999999999  0.9137200000000002  0.23151000000000005  1.0000
  C   C5        1.0  0.8384  0.08622  0.69618  1.0000
  C   C6        1.0  0.7696899999999999  0.08627  0.76849  1.0000
  C   C7        1.0  0.1616  0.91378  0.69618  1.0000
  C   C8        1.0  0.23030999999999993  0.9137200000000002  0.76849  1.0000
  C   C9        1.0  0.8384099999999999  0.91378  0.69618  1.0000
  C   C10       1.0  0.7696899999999999  0.9137200000000002  0.76849  1.0000
  C   C11       1.0  0.1616  0.08622  0.69618  1.0000
  C   C12       1.0  0.23030999999999993  0.08627  0.76849  1.0000
  C   C13       1.0  0.1616  0.91378  0.3038200000000001  1.0000
  C   C14       1.0  0.23030999999999993  0.9137200000000002  0.23151000000000005  1.0000
  C   C15       1.0  0.8384  0.08622  0.3038200000000001  1.0000
  C   C16       1.0  0.7696899999999999  0.08627  0.23151000000000005  1.0000
  C   C17       1.0  0.4999999999999999  0.44697  0.0  1.0000
  C   C18       1.0  0.4999999999999999  0.55303  0.0  1.0000
  C   C19       1.0  0.11718999999999999  0.0  0.5  1.0000
  C   C20       1.0  0.88281  0.0  0.5  1.0000
  C   C21       1.0  0.059729999999999984  0.0  0.42173  1.0000
  C   C22       1.0  0.12718  0.0  0.34136  1.0000
  C   C23       1.0  0.26601  0.0  0.195  1.0000
  C   C24       1.0  0.34518  0.99999  0.12024000000000003  1.0000
  C   C25       1.0  0.94027  0.0  0.42173  1.0000
  C   C26       1.0  0.8728299999999999  0.0  0.34136  1.0000
  C   C27       1.0  0.7339899999999999  0.0  0.195  1.0000
  C   C28       1.0  0.6548199999999998  0.99999  0.12024000000000003  1.0000
  C   C29       1.0  0.94027  0.0  0.57827  1.0000
  C   C30       1.0  0.8728299999999999  0.0  0.6586400000000002  1.0000
  C   C31       1.0  0.7339899999999999  0.0  0.8050000000000003  1.0000
  C   C32       1.0  0.6548199999999998  0.99999  0.87976  1.0000
  C   C33       1.0  0.059729999999999984  0.0  0.57827  1.0000
  C   C34       1.0  0.12718  0.0  0.6586400000000002  1.0000
  C   C35       1.0  0.26601  0.0  0.8050000000000003  1.0000
  C   C36       1.0  0.34518  0.99999  0.87976  1.0000
  C   C37       1.0  0.40187999999999996  0.29491  0.0  1.0000
  C   C38       1.0  0.39858  0.39409  0.0  1.0000
  C   C39       1.0  0.59812  0.70509  0.0  1.0000
  C   C40       1.0  0.60142  0.6059000000000002  0.0  1.0000
  C   C41       1.0  0.59812  0.29491  0.0  1.0000
  C   C42       1.0  0.60142  0.39409  0.0  1.0000
  C   C43       1.0  0.40187999999999996  0.70509  0.0  1.0000
  C   C44       1.0  0.39858  0.6059000000000002  0.0  1.0000
  N   N1        1.0  0.4999999999999999  0.24582000000000007  0.0  1.0000
  N   N2        1.0  0.4999999999999999  0.75418  0.0  1.0000
  O   O1        1.0  0.37683  0.08106  0.09167000000000002  1.0000
  O   O2        1.0  0.6231699999999999  0.91895  0.09168  1.0000
  O   O3        1.0  0.6231699999999999  0.08106  0.90833  1.0000
  O   O4        1.0  0.37683  0.91895  0.9083200000000002  1.0000
  O   O5        1.0  0.6231699999999999  0.91895  0.9083200000000002  1.0000
  O   O6        1.0  0.37683  0.08106  0.90833  1.0000
  O   O7        1.0  0.37683  0.91895  0.09168  1.0000
  O   O8        1.0  0.6231699999999999  0.08106  0.09167000000000002  1.0000
