data_image0
_chemical_formula_structural       Co2H36C44N8O8
_chemical_formula_sum              "Co2 H36 C44 N8 O8"
_cell_length_a       11.76272
_cell_length_b       11.946819999999999
_cell_length_c       13.61774
_cell_angle_alpha    111.09011999999998
_cell_angle_beta     90.06359
_cell_angle_gamma    119.54543

_symmetry_space_group_name_H-M    'P 1'
_symmetry_Int_Tables_number       1

loop_
  _symmetry_equiv_pos_as_xyz
  'x,y,z'

loop_
  _atom_site_type_symbol
  _atom_site_label
  _atom_site_symmetry_multiplicity
  _atom_site_fract_x
  _atom_site_fract_y
  _atom_site_fract_z
  _atom_site_occupancy
  Co  Co1       1.0  0.02768999999999991  0.0005399999999998162  0.7499099999999997  1.0000
  Co  Co2       1.0  0.9723200000000001  0.9994600000000001  0.25009  1.0000
  H   H1        1.0  0.17546000000000006  0.7134600000000001  0.6559999999999999  1.0000
  H   H2        1.0  0.21263000000000004  0.5165500000000001  0.5512499999999999  1.0000
  H   H3        1.0  0.9714699999999997  0.1651799999999999  0.9713899999999999  1.0000
  H   H4        1.0  0.79311  0.73032  0.7755999999999998  1.0000
  H   H5        1.0  0.65995  0.76202  0.94311  1.0000
  H   H6        1.0  0.75333  0.003029999999999992  0.13465  1.0000
  H   H7        1.0  0.8377500000000001  0.16152999999999998  0.11560999999999998  1.0000
  H   H8        1.0  0.5122300000000001  0.8400800000000003  0.06966  1.0000
  H   H9        1.0  0.29096000000000005  0.7930400000000001  0.0005399999999999999  1.0000
  H   H10       1.0  0.4650799999999999  0.28758999999999985  0.8453099999999998  1.0000
  H   H11       1.0  0.69834  0.48645  0.9524799999999998  1.0000
  H   H12       1.0  0.80587  0.83565  0.52998  1.0000
  H   H13       1.0  0.06440000000000003  0.27148  0.72308  1.0000
  H   H14       1.0  0.89818  0.23759000000000005  0.55494  1.0000
  H   H15       1.0  0.7481500000000001  0.9938400000000001  0.36408999999999997  1.0000
  H   H16       1.0  0.67453  0.83699  0.38557  1.0000
  H   H17       1.0  0.6724600000000001  0.15898000000000004  0.42973  1.0000
  H   H18       1.0  0.49956  0.20754  0.49953  1.0000
  H   H19       1.0  0.8245400000000002  0.28654  0.34399999999999986  1.0000
  H   H20       1.0  0.78737  0.48346  0.44875  1.0000
  H   H21       1.0  0.02852999999999994  0.83482  0.028599999999999997  1.0000
  H   H22       1.0  0.20689  0.26968  0.22438999999999995  1.0000
  H   H23       1.0  0.34005  0.23798  0.05688  1.0000
  H   H24       1.0  0.2466700000000001  0.9969700000000002  0.86535  1.0000
  H   H25       1.0  0.16225  0.83847  0.88439  1.0000
  H   H26       1.0  0.4877699999999999  0.15991999999999998  0.93034  1.0000
  H   H27       1.0  0.70904  0.20695999999999992  0.9994499999999998  1.0000
  H   H28       1.0  0.5349200000000001  0.7124100000000001  0.15468  1.0000
  H   H29       1.0  0.30166  0.51355  0.047519999999999986  1.0000
  H   H30       1.0  0.19413000000000002  0.16435  0.47002  1.0000
  H   H31       1.0  0.9356  0.72852  0.27692  1.0000
  H   H32       1.0  0.10182000000000005  0.76241  0.44504999999999995  1.0000
  H   H33       1.0  0.25185  0.006160000000000024  0.63591  1.0000
  H   H34       1.0  0.32547  0.16301  0.61443  1.0000
  H   H35       1.0  0.3275400000000001  0.84102  0.57027  1.0000
  H   H36       1.0  0.5004400000000001  0.7924600000000002  0.50047  1.0000
  C   C1        1.0  0.9563600000000001  0.72761  0.6162499999999999  1.0000
  C   C2        1.0  0.9792800000000003  0.6098700000000001  0.5578899999999999  1.0000
  C   C3        1.0  0.09946  0.61976  0.58735  1.0000
  C   C4        1.0  0.12026999999999995  0.5110299999999999  0.5297999999999999  1.0000
  C   C5        1.0  0.9055  0.05158999999999992  0.9412199999999998  1.0000
  C   C6        1.0  0.81071  0.82455  0.84241  1.0000
  C   C7        1.0  0.7436600000000002  0.8390400000000001  0.9238  1.0000
  C   C8        1.0  0.7593700000000001  0.04911  0.07684  1.0000
  C   C9        1.0  0.62569  0.02654  0.03946  1.0000
  C   C10       1.0  0.50685  0.9104  0.03927  1.0000
  C   C11       1.0  0.3822800000000001  0.8838200000000002  0.00014  1.0000
  C   C12       1.0  0.22982  0.2700699999999999  0.8813299999999998  1.0000
  C   C13       1.0  0.36987000000000003  0.38911000000000007  0.94085  1.0000
  C   C14       1.0  0.48141  0.38083000000000006  0.9134199999999999  1.0000
  C   C15       1.0  0.61045  0.49052999999999986  0.9721999999999997  1.0000
  C   C16       1.0  0.8538700000000002  0.9492400000000001  0.55944  1.0000
  C   C17       1.0  0.9870900000000002  0.17674000000000006  0.65683  1.0000
  C   C18       1.0  0.90488  0.16117  0.5751  1.0000
  C   C19       1.0  0.70915  0.9495500000000001  0.42301  1.0000
  C   C20       1.0  0.5984300000000001  0.9726500000000001  0.46019999999999994  1.0000
  C   C21       1.0  0.59654  0.08902999999999997  0.46029  1.0000
  C   C22       1.0  0.4993899999999999  0.11651999999999993  0.4999699999999999  1.0000
  C   C23       1.0  0.04363999999999996  0.27238999999999997  0.3837399999999999  1.0000
  C   C24       1.0  0.020719999999999975  0.39012999999999987  0.4420999999999999  1.0000
  C   C25       1.0  0.90054  0.38023999999999997  0.41263999999999995  1.0000
  C   C26       1.0  0.87973  0.48897000000000007  0.47019999999999995  1.0000
  C   C27       1.0  0.0945000000000001  0.9484100000000002  0.05877  1.0000
  C   C28       1.0  0.18929  0.17545  0.15758  1.0000
  C   C29       1.0  0.25634  0.16096  0.0762  1.0000
  C   C30       1.0  0.2406300000000001  0.95089  0.92316  1.0000
  C   C31       1.0  0.37431000000000003  0.9734600000000001  0.96054  1.0000
  C   C32       1.0  0.49315  0.0896  0.96072  1.0000
  C   C33       1.0  0.61772  0.11617999999999996  0.99986  1.0000
  C   C34       1.0  0.7701800000000001  0.7299300000000002  0.11866999999999997  1.0000
  C   C35       1.0  0.63013  0.61089  0.05915  1.0000
  C   C36       1.0  0.51859  0.61917  0.08657999999999999  1.0000
  C   C37       1.0  0.38955  0.50947  0.02779  1.0000
  C   C38       1.0  0.14612999999999998  0.050759999999999965  0.44055  1.0000
  C   C39       1.0  0.012910000000000085  0.8232600000000001  0.34317  1.0000
  C   C40       1.0  0.09512  0.83883  0.42489999999999994  1.0000
  C   C41       1.0  0.29085  0.050449999999999995  0.57699  1.0000
  C   C42       1.0  0.40157000000000004  0.02734999999999999  0.5398  1.0000
  C   C43       1.0  0.40346  0.91097  0.5397099999999999  1.0000
  C   C44       1.0  0.5006100000000002  0.8834800000000003  0.50003  1.0000
  N   N1        1.0  0.91163  0.95797  0.85385  1.0000
  N   N2        1.0  0.80482  0.9829700000000002  0.98565  1.0000
  N   N3        1.0  0.9543399999999999  0.0436799999999999  0.6464699999999998  1.0000
  N   N4        1.0  0.8216  0.016990000000000022  0.51415  1.0000
  N   N5        1.0  0.08837  0.04203  0.14614  1.0000
  N   N6        1.0  0.19518  0.017030000000000003  0.01435  1.0000
  N   N7        1.0  0.0456600000000001  0.9563200000000001  0.35352  1.0000
  N   N8        1.0  0.17839999999999998  0.98301  0.48584  1.0000
  O   O1        1.0  0.06219  0.84714  0.68121  1.0000
  O   O2        1.0  0.8422000000000001  0.70868  0.6004  1.0000
  O   O3        1.0  0.2176  0.15143  0.8167  1.0000
  O   O4        1.0  0.13298999999999997  0.2864599999999999  0.8957699999999997  1.0000
  O   O5        1.0  0.93781  0.15286  0.31879  1.0000
  O   O6        1.0  0.15779000000000004  0.2913200000000001  0.3996  1.0000
  O   O7        1.0  0.7824  0.84857  0.18329  1.0000
  O   O8        1.0  0.86701  0.71354  0.10422999999999998  1.0000
