data_image0
_chemical_formula_structural       Y2H12C24O12
_chemical_formula_sum              "Y2 H12 C24 O12"
_cell_length_a       9.56657
_cell_length_b       9.77451
_cell_length_c       12.01768
_cell_angle_alpha    67.52609
_cell_angle_beta     80.35936
_cell_angle_gamma    69.73274

_space_group_name_H-M_alt    "P 1"
_space_group_IT_number       1

loop_
  _space_group_symop_operation_xyz
  'x, y, z'

loop_
  _atom_site_type_symbol
  _atom_site_label
  _atom_site_symmetry_multiplicity
  _atom_site_fract_x
  _atom_site_fract_y
  _atom_site_fract_z
  _atom_site_occupancy
  Y   Y1        1.0  0.99709  0.18107  0.77333  1.0000
  Y   Y2        1.0  0.0029099999999999985  0.8189299999999999  0.22667  1.0000
  H   H1        1.0  0.4933  0.48868  0.71127  1.0000
  H   H2        1.0  0.7440800000000001  0.39835  0.40171  1.0000
  H   H3        1.0  0.3242499999999999  0.8441599999999999  0.5831600000000001  1.0000
  H   H4        1.0  0.45353  0.2385  0.54885  1.0000
  H   H5        1.0  0.6596  0.8095600000000001  0.17175000000000004  1.0000
  H   H6        1.0  0.61494  0.13473999999999994  0.8059500000000002  1.0000
  H   H7        1.0  0.5067  0.51132  0.28873  1.0000
  H   H8        1.0  0.2559200000000001  0.60166  0.5983  1.0000
  H   H9        1.0  0.67575  0.15585000000000002  0.41684  1.0000
  H   H10       1.0  0.5464700000000001  0.7615  0.45115  1.0000
  H   H11       1.0  0.3403999999999999  0.19043999999999997  0.82826  1.0000
  H   H12       1.0  0.38506  0.86526  0.19406  1.0000
  C   C1        1.0  0.6311099999999998  0.43701  0.56247  1.0000
  C   C2        1.0  0.49443000000000004  0.4937799999999999  0.61914  1.0000
  C   C3        1.0  0.63654  0.4435  0.44319  1.0000
  C   C4        1.0  0.7707799999999999  0.3653100000000001  0.62973  1.0000
  C   C5        1.0  0.37771999999999994  0.04495999999999993  0.5735600000000001  1.0000
  C   C6        1.0  0.4024000000000001  0.91058  0.54639  1.0000
  C   C7        1.0  0.4754  0.13454999999999998  0.52708  1.0000
  C   C8        1.0  0.24621000000000004  0.09180999999999997  0.65126  1.0000
  C   C9        1.0  0.65545  0.96872  0.98714  1.0000
  C   C10       1.0  0.58989  0.89227  0.09662  1.0000
  C   C11       1.0  0.5643  0.07611999999999997  0.89073  1.0000
  C   C12       1.0  0.8200800000000001  0.9405199999999999  0.9739000000000001  1.0000
  C   C13       1.0  0.3689000000000001  0.5629999999999998  0.4375300000000001  1.0000
  C   C14       1.0  0.50558  0.5062200000000001  0.38086  1.0000
  C   C15       1.0  0.36346  0.5565  0.55681  1.0000
  C   C16       1.0  0.22922000000000006  0.63469  0.37028  1.0000
  C   C17       1.0  0.62228  0.95505  0.42644000000000004  1.0000
  C   C18       1.0  0.5976  0.08942999999999998  0.45361  1.0000
  C   C19       1.0  0.5245999999999998  0.8654500000000002  0.4729300000000001  1.0000
  C   C20       1.0  0.7538000000000001  0.90819  0.34874000000000005  1.0000
  C   C21       1.0  0.34455  0.03128  0.01286  1.0000
  C   C22       1.0  0.41011000000000014  0.10772999999999992  0.9033800000000001  1.0000
  C   C23       1.0  0.43569999999999987  0.92389  0.10928000000000002  1.0000
  C   C24       1.0  0.17992  0.05948  0.0261  1.0000
  O   O1        1.0  0.7720900000000002  0.37864999999999993  0.73244  1.0000
  O   O2        1.0  0.88801  0.28369  0.588  1.0000
  O   O3        1.0  0.16720999999999994  0.9995799999999999  0.7045400000000002  1.0000
  O   O4        1.0  0.20944000000000007  0.22458000000000006  0.66519  1.0000
  O   O5        1.0  0.87456  0.01325999999999999  0.8733  1.0000
  O   O6        1.0  0.9018  0.8466599999999999  0.06343  1.0000
  O   O7        1.0  0.22791000000000006  0.62135  0.26756  1.0000
  O   O8        1.0  0.11198999999999991  0.7163100000000002  0.412  1.0000
  O   O9        1.0  0.83279  0.0004199999999999856  0.29546  1.0000
  O   O10       1.0  0.79056  0.77542  0.33481  1.0000
  O   O11       1.0  0.12544000000000008  0.9867399999999998  0.1267  1.0000
  O   O12       1.0  0.09820000000000004  0.15333999999999995  0.9365800000000001  1.0000
