data_image0
_chemical_formula_structural       Ho2Zn2H12C30N4O20
_chemical_formula_sum              "Ho2 Zn2 H12 C30 N4 O20"
_cell_length_a       10.03447
_cell_length_b       10.58261
_cell_length_c       10.909169999999998
_cell_angle_alpha    80.71670999999999
_cell_angle_beta     71.74331
_cell_angle_gamma    74.1233

_symmetry_space_group_name_H-M    'P 1'
_symmetry_Int_Tables_number       1

loop_
  _symmetry_equiv_pos_as_xyz
  'x,y,z'

loop_
  _atom_site_type_symbol
  _atom_site_label
  _atom_site_symmetry_multiplicity
  _atom_site_fract_x
  _atom_site_fract_y
  _atom_site_fract_z
  _atom_site_occupancy
  Ho  Ho1       1.0  0.82926  0.32497  0.45045  1.0000
  Ho  Ho2       1.0  0.17608  0.67364  0.54831  1.0000
  Zn  Zn1       1.0  0.7184300000000001  0.14091  0.88542  1.0000
  Zn  Zn2       1.0  0.2810500000000001  0.85949  0.11510000000000001  1.0000
  H   H1        1.0  0.20224  0.22899  0.01582  1.0000
  H   H2        1.0  0.16884000000000002  0.31861  0.79733  1.0000
  H   H3        1.0  0.94748  0.29532  0.74893  1.0000
  H   H4        1.0  0.17965000000000012  0.57501  0.95958  1.0000
  H   H5        1.0  0.24951  0.45249  0.1563  1.0000
  H   H6        1.0  0.47348000000000007  0.26731  0.12365999999999999  1.0000
  H   H7        1.0  0.79784  0.77099  0.98396  1.0000
  H   H8        1.0  0.83109  0.68137  0.20257  1.0000
  H   H9        1.0  0.052399999999999995  0.70475  0.25104  1.0000
  H   H10       1.0  0.81958  0.42546  0.04028  1.0000
  H   H11       1.0  0.74993  0.54807  0.84344  1.0000
  H   H12       1.0  0.5258599999999999  0.7334000000000002  0.8761200000000001  1.0000
  C   C1        1.0  0.7754300000000001  0.07512  0.12622  1.0000
  C   C2        1.0  0.8881900000000001  0.14961  0.04458  1.0000
  C   C3        1.0  0.0051799999999999945  0.16198  0.08226  1.0000
  C   C4        1.0  0.10780999999999995  0.22220000000000004  0.99132  1.0000
  C   C5        1.0  0.09123  0.27126  0.8694  1.0000
  C   C6        1.0  0.9705500000000001  0.25874  0.84066  1.0000
  C   C7        1.0  0.030140000000000014  0.11240000000000001  0.21257  1.0000
  C   C8        1.0  0.6012000000000001  0.32494000000000006  0.69345  1.0000
  C   C9        1.0  0.4894000000000001  0.3612699999999999  0.8184700000000001  1.0000
  C   C10       1.0  0.36520999999999987  0.46384  0.82677  1.0000
  C   C11       1.0  0.2773600000000001  0.49674  0.95043  1.0000
  C   C12       1.0  0.31545999999999996  0.42845  0.05926000000000001  1.0000
  C   C13       1.0  0.4388000000000001  0.32499  0.04257  1.0000
  C   C14       1.0  0.3148800000000003  0.53843  0.71419  1.0000
  C   C15       1.0  0.05851999999999998  0.48075  0.4369  1.0000
  C   C16       1.0  0.22452999999999998  0.9249400000000001  0.87366  1.0000
  C   C17       1.0  0.11175999999999998  0.85049  0.95536  1.0000
  C   C18       1.0  0.9945799999999998  0.83862  0.9176600000000001  1.0000
  C   C19       1.0  0.89219  0.77795  0.00851  1.0000
  C   C20       1.0  0.9087700000000001  0.72871  0.13045  1.0000
  C   C21       1.0  0.029540000000000025  0.74107  0.15918  1.0000
  C   C22       1.0  0.9705100000000002  0.88773  0.78681  1.0000
  C   C23       1.0  0.3996099999999998  0.67431  0.30655  1.0000
  C   C24       1.0  0.51036  0.63919  0.18117  1.0000
  C   C25       1.0  0.6341599999999997  0.53663  0.17233  1.0000
  C   C26       1.0  0.7220100000000002  0.50378  0.048839999999999995  1.0000
  C   C27       1.0  0.6837599999999999  0.57229  0.94033  1.0000
  C   C28       1.0  0.5603800000000001  0.67583  0.95727  1.0000
  C   C29       1.0  0.6848200000000001  0.46237  0.28468  1.0000
  C   C30       1.0  0.9419300000000002  0.51895  0.56313  1.0000
  N   N1        1.0  0.87384  0.19956  0.92649  1.0000
  N   N2        1.0  0.52297  0.29222  0.92437  1.0000
  N   N3        1.0  0.12633000000000005  0.80027  0.07341  1.0000
  N   N4        1.0  0.47623000000000004  0.70865  0.07562  1.0000
  O   O1        1.0  0.68358  0.0615  0.06908  1.0000
  O   O2        1.0  0.7818700000000002  0.031060000000000004  0.23611  1.0000
  O   O3        1.0  0.9608600000000002  0.18713  0.30488  1.0000
  O   O4        1.0  0.12587999999999996  0.00916  0.22409  1.0000
  O   O5        1.0  0.7137600000000002  0.23084  0.69668  1.0000
  O   O6        1.0  0.5874099999999999  0.3902500000000001  0.58925  1.0000
  O   O7        1.0  0.32664000000000004  0.65571  0.68069  1.0000
  O   O8        1.0  0.24392000000000003  0.48481  0.66531  1.0000
  O   O9        1.0  0.043140000000000005  0.39305  0.37903  1.0000
  O   O10       1.0  0.15888999999999998  0.54181  0.40054  1.0000
  O   O11       1.0  0.31653  0.9384100000000001  0.93069  1.0000
  O   O12       1.0  0.21807000000000012  0.96895  0.7637  1.0000
  O   O13       1.0  0.03971000000000006  0.81288  0.6946  1.0000
  O   O14       1.0  0.8744799999999998  0.9915300000000001  0.77615  1.0000
  O   O15       1.0  0.28636  0.7677200000000001  0.3052  1.0000
  O   O16       1.0  0.41459  0.60724  0.41047  1.0000
  O   O17       1.0  0.67296  0.34523000000000004  0.31786  1.0000
  O   O18       1.0  0.7565000000000002  0.5162  0.33234  1.0000
  O   O19       1.0  0.9581299999999999  0.60625  0.62051  1.0000
  O   O20       1.0  0.8407699999999999  0.45844000000000007  0.59938  1.0000
