data_image0
_chemical_formula_structural       Zn4H24C40N24
_chemical_formula_sum              "Zn4 H24 C40 N24"
_cell_length_a       7.2139
_cell_length_b       15.390260000000001
_cell_length_c       18.63534
_cell_angle_alpha    90.03044
_cell_angle_beta     90.02819
_cell_angle_gamma    94.32830999999999

_symmetry_space_group_name_H-M    'P 1'
_symmetry_Int_Tables_number       1

loop_
  _symmetry_equiv_pos_as_xyz
  'x,y,z'

loop_
  _atom_site_type_symbol
  _atom_site_label
  _atom_site_symmetry_multiplicity
  _atom_site_fract_x
  _atom_site_fract_y
  _atom_site_fract_z
  _atom_site_occupancy
  Zn  Zn1       1.0  0.35686999999999997  0.9798199999999998  0.9205900000000001  1.0000
  Zn  Zn2       1.0  0.35648  0.4786399999999999  0.57971  1.0000
  Zn  Zn3       1.0  0.64353  0.52136  0.42029  1.0000
  Zn  Zn4       1.0  0.6431400000000003  0.020179999999999993  0.0794  1.0000
  H   H1        1.0  0.34731  0.6154899999999998  0.33188  1.0000
  H   H2        1.0  0.95026  0.9827499999999998  0.17283000000000004  1.0000
  H   H3        1.0  0.34716000000000014  0.11552999999999997  0.16858  1.0000
  H   H4        1.0  0.9637800000000002  0.13052999999999995  0.7393700000000002  1.0000
  H   H5        1.0  0.9641400000000002  0.63094  0.76087  1.0000
  H   H6        1.0  0.04975  0.01725  0.82717  1.0000
  H   H7        1.0  0.6527  0.3845099999999999  0.66811  1.0000
  H   H8        1.0  0.018909999999999986  0.5854099999999999  0.52585  1.0000
  H   H9        1.0  0.98111  0.4145899999999999  0.47415000000000007  1.0000
  H   H10       1.0  0.03586999999999999  0.3690599999999999  0.23913000000000004  1.0000
  H   H11       1.0  0.04941999999999998  0.5170299999999998  0.6731300000000001  1.0000
  H   H12       1.0  0.5902200000000001  0.6280399999999998  0.65727  1.0000
  H   H13       1.0  0.40957000000000005  0.8713799999999998  0.15724  1.0000
  H   H14       1.0  0.5904500000000003  0.12862  0.8427500000000002  1.0000
  H   H15       1.0  0.9812500000000001  0.9148499999999998  0.02556  1.0000
  H   H16       1.0  0.4710400000000001  0.2564799999999999  0.25343  1.0000
  H   H17       1.0  0.95059  0.4829699999999999  0.32687  1.0000
  H   H18       1.0  0.6528500000000003  0.8844699999999998  0.83142  1.0000
  H   H19       1.0  0.03623000000000002  0.86947  0.26063  1.0000
  H   H20       1.0  0.47138000000000013  0.7564499999999997  0.24669  1.0000
  H   H21       1.0  0.4098  0.3719599999999999  0.3427200000000001  1.0000
  H   H22       1.0  0.52863  0.24355  0.7533100000000001  1.0000
  H   H23       1.0  0.52897  0.7435199999999997  0.7465600000000002  1.0000
  H   H24       1.0  0.018770000000000005  0.08515  0.97443  1.0000
  C   C1        1.0  0.58164  0.30461  0.26935  1.0000
  C   C2        1.0  0.23776000000000005  0.19808999999999996  0.7406400000000001  1.0000
  C   C3        1.0  0.87932  0.4166799999999999  0.51664  1.0000
  C   C4        1.0  0.81063  0.23448999999999995  0.19085  1.0000
  C   C5        1.0  0.15070999999999996  0.5690599999999998  0.69009  1.0000
  C   C6        1.0  0.81128  0.7347899999999998  0.30928  1.0000
  C   C7        1.0  0.03333999999999997  0.8418899999999998  0.87722  1.0000
  C   C8        1.0  0.8492900000000003  0.93061  0.18972  1.0000
  C   C9        1.0  0.28656  0.09790999999999998  0.11686  1.0000
  C   C10       1.0  0.87961  0.9168499999999998  0.98297  1.0000
  C   C11       1.0  0.8834900000000002  0.88235  0.9133700000000001  1.0000
  C   C12       1.0  0.18938000000000005  0.76551  0.8091500000000001  1.0000
  C   C13       1.0  0.4183700000000001  0.69539  0.73065  1.0000
  C   C14       1.0  0.7622599999999998  0.8019099999999998  0.25936  1.0000
  C   C15       1.0  0.4536000000000001  0.13129  0.81858  1.0000
  C   C16       1.0  0.18873  0.2652099999999999  0.6907200000000001  1.0000
  C   C17       1.0  0.11652000000000003  0.11764999999999998  0.08663  1.0000
  C   C18       1.0  0.7131800000000003  0.40188  0.61637  1.0000
  C   C19       1.0  0.15072  0.06939  0.81027  1.0000
  C   C20       1.0  0.12040000000000002  0.08315  0.01703  1.0000
  C   C21       1.0  0.8965  0.3679799999999999  0.26149  1.0000
  C   C22       1.0  0.71345  0.9020899999999997  0.8831300000000001  1.0000
  C   C23       1.0  0.4180000000000001  0.19562  0.76937  1.0000
  C   C24       1.0  0.23829  0.69809  0.75945  1.0000
  C   C25       1.0  0.96667  0.15811  0.12278  1.0000
  C   C26       1.0  0.9672100000000002  0.6584999999999998  0.37753  1.0000
  C   C27       1.0  0.8968199999999998  0.8679399999999998  0.23829  1.0000
  C   C28       1.0  0.8493  0.4309399999999999  0.3099  1.0000
  C   C29       1.0  0.8832700000000002  0.38218999999999986  0.58624  1.0000
  C   C30       1.0  0.76172  0.30191  0.24055000000000004  1.0000
  C   C31       1.0  0.5464100000000002  0.8687099999999998  0.18142  1.0000
  C   C32       1.0  0.11674000000000001  0.6178099999999999  0.41375000000000006  1.0000
  C   C33       1.0  0.5820100000000002  0.8043799999999998  0.23062  1.0000
  C   C34       1.0  0.0328  0.3415  0.62246  1.0000
  C   C35       1.0  0.28683  0.59812  0.38363  1.0000
  C   C36       1.0  0.45358999999999994  0.6307599999999999  0.68162  1.0000
  C   C37       1.0  0.10319000000000003  0.13205999999999996  0.7617000000000003  1.0000
  C   C38       1.0  0.12069000000000003  0.58332  0.48336000000000007  1.0000
  C   C39       1.0  0.54642  0.3692399999999999  0.31838  1.0000
  C   C40       1.0  0.10351  0.63202  0.7385000000000002  1.0000
  N   N1        1.0  0.6179900000000003  0.9473899999999998  0.93085  1.0000
  N   N2        1.0  0.68388  0.17512999999999995  0.16288  1.0000
  N   N3        1.0  0.7845300000000002  0.6270099999999997  0.3817300000000001  1.0000
  N   N4        1.0  0.7841500000000002  0.1262  0.11869  1.0000
  N   N5        1.0  0.9889700000000002  0.7262699999999999  0.33222  1.0000
  N   N6        1.0  0.31613  0.82487  0.8371200000000001  1.0000
  N   N7        1.0  0.72077  0.9563799999999998  0.99283  1.0000
  N   N8        1.0  0.27973000000000003  0.5439399999999998  0.49337  1.0000
  N   N9        1.0  0.21586000000000002  0.8737999999999998  0.8813100000000001  1.0000
  N   N10       1.0  0.67746  0.9312299999999998  0.16054000000000002  1.0000
  N   N11       1.0  0.3157200000000001  0.3241899999999999  0.66251  1.0000
  N   N12       1.0  0.3225200000000001  0.56804  0.66096  1.0000
  N   N13       1.0  0.38253000000000004  0.5530899999999997  0.43143  1.0000
  N   N14       1.0  0.21548000000000003  0.3729899999999999  0.61826  1.0000
  N   N15       1.0  0.38202  0.05261  0.06914  1.0000
  N   N16       1.0  0.011709999999999963  0.7738799999999998  0.8321100000000001  1.0000
  N   N17       1.0  0.6842900000000002  0.6758099999999998  0.33748  1.0000
  N   N18       1.0  0.32256  0.06877  0.83946  1.0000
  N   N19       1.0  0.6174800000000003  0.44690999999999986  0.5685700000000001  1.0000
  N   N20       1.0  0.67749  0.4319599999999999  0.33903  1.0000
  N   N21       1.0  0.27924  0.04362  0.007170000000000001  1.0000
  N   N22       1.0  0.72028  0.45606  0.50662  1.0000
  N   N23       1.0  0.9883  0.22611999999999996  0.16789  1.0000
  N   N24       1.0  0.011039999999999986  0.27372999999999986  0.66777  1.0000
