data_image0
_chemical_formula_structural       Y4H12C36O24
_chemical_formula_sum              "Y4 H12 C36 O24"
_cell_length_a       10.37336
_cell_length_b       10.36798
_cell_length_c       14.06048
_cell_angle_alpha    90.0
_cell_angle_beta     90.0
_cell_angle_gamma    90.0

_space_group_name_H-M_alt    "P 1"
_space_group_IT_number       1

loop_
  _space_group_symop_operation_xyz
  'x, y, z'

loop_
  _atom_site_type_symbol
  _atom_site_label
  _atom_site_symmetry_multiplicity
  _atom_site_fract_x
  _atom_site_fract_y
  _atom_site_fract_z
  _atom_site_occupancy
  Y   Y1        1.0  0.62768  0.62773  0.87498  1.0000
  Y   Y2        1.0  0.37233  0.37227  0.37499  1.0000
  Y   Y3        1.0  0.37233  0.62773  0.12501  1.0000
  Y   Y4        1.0  0.62768  0.37227  0.62501  1.0000
  H   H1        1.0  0.96842  0.57902  0.10815  1.0000
  H   H2        1.0  0.03159  0.42097999999999997  0.60815  1.0000
  H   H3        1.0  0.42084  0.96837  0.35821  1.0000
  H   H4        1.0  0.57917  0.031639999999999995  0.85821  1.0000
  H   H5        1.0  0.03159  0.57902  0.89185  1.0000
  H   H6        1.0  0.96842  0.42097999999999997  0.39185  1.0000
  H   H7        1.0  0.57917  0.96837  0.64178  1.0000
  H   H8        1.0  0.42084  0.031639999999999995  0.14178  1.0000
  H   H9        1.0  0.60946  0.4999999999999999  0.25  1.0000
  H   H10       1.0  0.39054  0.4999999999999999  0.75  1.0000
  H   H11       1.0  0.5  0.60914  0.5  1.0000
  H   H12       1.0  0.5  0.39086  0.0  1.0000
  C   C1        1.0  0.78037  0.54328  0.16964  1.0000
  C   C2        1.0  0.9153399999999999  0.5446  0.16989  1.0000
  C   C3        1.0  0.70418  0.58286  0.08483  1.0000
  C   C4        1.0  0.21964  0.45671999999999996  0.66964  1.0000
  C   C5        1.0  0.08466  0.45539999999999997  0.6698900000000001  1.0000
  C   C6        1.0  0.29582  0.41715  0.58483  1.0000
  C   C7        1.0  0.45666999999999996  0.78004  0.41956  1.0000
  C   C8        1.0  0.4552399999999999  0.91517  0.41992  1.0000
  C   C9        1.0  0.41727  0.7044  0.33428  1.0000
  C   C10       1.0  0.54333  0.21996  0.91956  1.0000
  C   C11       1.0  0.54476  0.08482999999999999  0.91992  1.0000
  C   C12       1.0  0.58273  0.2956  0.83427  1.0000
  C   C13       1.0  0.21964  0.54328  0.83036  1.0000
  C   C14       1.0  0.08466  0.5446  0.8301000000000001  1.0000
  C   C15       1.0  0.29582  0.58286  0.9151700000000002  1.0000
  C   C16       1.0  0.78037  0.45671999999999996  0.33036  1.0000
  C   C17       1.0  0.9153399999999999  0.45539999999999997  0.3301  1.0000
  C   C18       1.0  0.70418  0.41715  0.41517  1.0000
  C   C19       1.0  0.54333  0.78004  0.58044  1.0000
  C   C20       1.0  0.54476  0.91517  0.58007  1.0000
  C   C21       1.0  0.58273  0.7044  0.6657200000000001  1.0000
  C   C22       1.0  0.45666999999999996  0.21996  0.08044  1.0000
  C   C23       1.0  0.4552399999999999  0.08482999999999999  0.08008  1.0000
  C   C24       1.0  0.41727  0.2956  0.16572  1.0000
  C   C25       1.0  0.71397  0.4999999999999999  0.25  1.0000
  C   C26       1.0  0.9824599999999999  0.4999999999999999  0.25  1.0000
  C   C27       1.0  0.12647  0.4999999999999999  0.25  1.0000
  C   C28       1.0  0.28604  0.4999999999999999  0.75  1.0000
  C   C29       1.0  0.01755  0.4999999999999999  0.75  1.0000
  C   C30       1.0  0.8735299999999999  0.4999999999999999  0.75  1.0000
  C   C31       1.0  0.5  0.7137099999999998  0.5  1.0000
  C   C32       1.0  0.5  0.9822599999999999  0.5  1.0000
  C   C33       1.0  0.5  0.12646  0.5  1.0000
  C   C34       1.0  0.5  0.28629  0.0  1.0000
  C   C35       1.0  0.5  0.01774  0.0  1.0000
  C   C36       1.0  0.5  0.8735399999999999  0.0  1.0000
  O   O1        1.0  0.76028  0.59669  0.004870000000000001  1.0000
  O   O2        1.0  0.58233  0.5977  0.09463  1.0000
  O   O3        1.0  0.18232  0.41829  0.30393  1.0000
  O   O4        1.0  0.23971999999999996  0.4033099999999999  0.50486  1.0000
  O   O5        1.0  0.41767  0.40229999999999994  0.59463  1.0000
  O   O6        1.0  0.8176799999999999  0.5817099999999998  0.80393  1.0000
  O   O7        1.0  0.40326  0.7612799999999997  0.25462  1.0000
  O   O8        1.0  0.40256999999999993  0.58229  0.34292  1.0000
  O   O9        1.0  0.58352  0.18236999999999998  0.55233  1.0000
  O   O10       1.0  0.59674  0.23872  0.75462  1.0000
  O   O11       1.0  0.59743  0.41770999999999997  0.84292  1.0000
  O   O12       1.0  0.41648999999999997  0.81763  0.05233  1.0000
  O   O13       1.0  0.23971999999999996  0.59669  0.99513  1.0000
  O   O14       1.0  0.41767  0.5977  0.90537  1.0000
  O   O15       1.0  0.8176799999999999  0.41829  0.69606  1.0000
  O   O16       1.0  0.76028  0.4033099999999999  0.49513  1.0000
  O   O17       1.0  0.58233  0.40229999999999994  0.40537  1.0000
  O   O18       1.0  0.18232  0.5817099999999998  0.19607  1.0000
  O   O19       1.0  0.59674  0.7612799999999997  0.7453800000000002  1.0000
  O   O20       1.0  0.59743  0.58229  0.65707  1.0000
  O   O21       1.0  0.41648999999999997  0.18236999999999998  0.44767  1.0000
  O   O22       1.0  0.40326  0.23872  0.24538  1.0000
  O   O23       1.0  0.40256999999999993  0.41770999999999997  0.15708  1.0000
  O   O24       1.0  0.58352  0.81763  0.94767  1.0000
