data_image0
_chemical_formula_structural       Mg4P2H2C6O20
_chemical_formula_sum              "Mg4 P2 H2 C6 O20"
_cell_length_a       7.68588
_cell_length_b       7.93279
_cell_length_c       9.941579999999998
_cell_angle_alpha    72.4989
_cell_angle_beta     83.88028000000001
_cell_angle_gamma    85.01602

_symmetry_space_group_name_H-M    'P 1'
_symmetry_Int_Tables_number       1

loop_
  _symmetry_equiv_pos_as_xyz
  'x,y,z'

loop_
  _atom_site_type_symbol
  _atom_site_label
  _atom_site_symmetry_multiplicity
  _atom_site_fract_x
  _atom_site_fract_y
  _atom_site_fract_z
  _atom_site_occupancy
  Mg  Mg1       1.0  0.37156000000000006  0.008279999999999912  0.7441900000000002  1.0000
  Mg  Mg2       1.0  0.3243800000000001  0.7124599999999998  0.35224  1.0000
  Mg  Mg3       1.0  0.6284399999999998  0.99173  0.25581  1.0000
  Mg  Mg4       1.0  0.6756199999999998  0.2875399999999998  0.64776  1.0000
  P   P1        1.0  0.41366999999999987  0.27638000000000007  0.41327  1.0000
  P   P2        1.0  0.58633  0.7236199999999998  0.58673  1.0000
  H   H1        1.0  0.18803999999999996  0.12903999999999996  0.40934  1.0000
  H   H2        1.0  0.81196  0.8709599999999995  0.59066  1.0000
  C   C1        1.0  0.004809999999999998  0.053099999999999994  0.67583  1.0000
  C   C2        1.0  0.04388999999999999  0.24109  0.72175  1.0000
  C   C3        1.0  0.57114  0.06528999999999988  0.9615700000000001  1.0000
  C   C4        1.0  0.99518  0.9469099999999999  0.32417  1.0000
  C   C5        1.0  0.9560999999999995  0.7589199999999998  0.27825  1.0000
  C   C6        1.0  0.4288600000000001  0.9347099999999998  0.03843  1.0000
  O   O1        1.0  0.49137  0.1902199999999999  0.56005  1.0000
  O   O2        1.0  0.4246999999999999  0.47534999999999994  0.37274  1.0000
  O   O3        1.0  0.49984000000000006  0.19497000000000003  0.30097  1.0000
  O   O4        1.0  0.2088999999999999  0.23348999999999998  0.43979  1.0000
  O   O5        1.0  0.12496999999999997  0.93706  0.6992800000000001  1.0000
  O   O6        1.0  0.8595599999999997  0.06679000000000003  0.62609  1.0000
  O   O7        1.0  0.18974999999999997  0.23164999999999997  0.76559  1.0000
  O   O8        1.0  0.9166399999999996  0.35027  0.70069  1.0000
  O   O9        1.0  0.5670799999999998  0.11739000000000001  0.82634  1.0000
  O   O10       1.0  0.6747  0.10775999999999994  0.03275  1.0000
  O   O11       1.0  0.50863  0.80978  0.43995  1.0000
  O   O12       1.0  0.5753  0.5246499999999998  0.62726  1.0000
  O   O13       1.0  0.50016  0.80503  0.69903  1.0000
  O   O14       1.0  0.7911  0.76651  0.56021  1.0000
  O   O15       1.0  0.8750399999999998  0.06293999999999998  0.30072  1.0000
  O   O16       1.0  0.14044  0.9332099999999995  0.37391  1.0000
  O   O17       1.0  0.8102599999999998  0.7683500000000001  0.23441  1.0000
  O   O18       1.0  0.08335999999999999  0.6497299999999998  0.29931  1.0000
  O   O19       1.0  0.43291999999999997  0.8826099999999998  0.17365  1.0000
  O   O20       1.0  0.32529999999999976  0.89224  0.9672499999999999  1.0000
