data_image0
_chemical_formula_structural       Zn2H2C10O8
_chemical_formula_sum              "Zn2 H2 C10 O8"
_cell_length_a       6.39742
_cell_length_b       7.47473
_cell_length_c       8.1724
_cell_angle_alpha    90.515
_cell_angle_beta     110.17916
_cell_angle_gamma    92.00339999999998

_symmetry_space_group_name_H-M    'P 1'
_symmetry_Int_Tables_number       1

loop_
  _symmetry_equiv_pos_as_xyz
  'x,y,z'

loop_
  _atom_site_type_symbol
  _atom_site_label
  _atom_site_symmetry_multiplicity
  _atom_site_fract_x
  _atom_site_fract_y
  _atom_site_fract_z
  _atom_site_occupancy
  Zn  Zn1       1.0  0.4999999999999999  0.0  0.5  1.0000
  Zn  Zn2       1.0  0.9999999999999999  0.4999999999999999  0.5  1.0000
  H   H1        1.0  0.5574699999999999  0.17829  0.9638700000000002  1.0000
  H   H2        1.0  0.44253  0.82171  0.03613  1.0000
  C   C1        1.0  0.53211  0.3195899999999999  0.9806500000000002  1.0000
  C   C2        1.0  0.56712  0.39005000000000006  0.14741000000000007  1.0000
  C   C3        1.0  0.5348099999999999  0.5741099999999998  0.16747000000000006  1.0000
  C   C4        1.0  0.5659  0.66655  0.3383800000000001  1.0000
  C   C5        1.0  0.6259299999999998  0.26106  0.29412  1.0000
  C   C6        1.0  0.46787999999999996  0.68041  0.01935  1.0000
  C   C7        1.0  0.43286999999999987  0.6099399999999998  0.85259  1.0000
  C   C8        1.0  0.46519  0.4258899999999999  0.8325300000000002  1.0000
  C   C9        1.0  0.43408999999999986  0.33345  0.66162  1.0000
  C   C10       1.0  0.37407000000000007  0.73893  0.7058800000000002  1.0000
  O   O1        1.0  0.48016999999999993  0.13631999999999994  0.2814900000000001  1.0000
  O   O2        1.0  0.8136099999999998  0.27367  0.41768  1.0000
  O   O3        1.0  0.4263699999999999  0.7851299999999998  0.33331  1.0000
  O   O4        1.0  0.72707  0.63237  0.4776200000000001  1.0000
  O   O5        1.0  0.5198299999999998  0.86368  0.71851  1.0000
  O   O6        1.0  0.18639  0.7263299999999998  0.58232  1.0000
  O   O7        1.0  0.57363  0.21485999999999994  0.6667  1.0000
  O   O8        1.0  0.27293  0.3676299999999999  0.5223800000000002  1.0000
