data_image0
_chemical_formula_structural       Cu4H24C16N12O
_chemical_formula_sum              "Cu4 H24 C16 N12 O1"
_cell_length_a       13.2631
_cell_length_b       9.03905
_cell_length_c       8.99837
_cell_angle_alpha    123.3353
_cell_angle_beta     98.09091
_cell_angle_gamma    96.51576

_space_group_name_H-M_alt    "P 1"
_space_group_IT_number       1

loop_
  _space_group_symop_operation_xyz
  'x, y, z'

loop_
  _atom_site_type_symbol
  _atom_site_label
  _atom_site_symmetry_multiplicity
  _atom_site_fract_x
  _atom_site_fract_y
  _atom_site_fract_z
  _atom_site_occupancy
  Cu  Cu1       1.0  0.99521  0.6532900000000001  0.3230300000000001  1.0000
  Cu  Cu2       1.0  0.01734  0.33044  0.71082  1.0000
  Cu  Cu3       1.0  0.40013  0.50739  0.3484700000000001  1.0000
  Cu  Cu4       1.0  0.40839000000000003  0.37318  0.51254  1.0000
  H   H1        1.0  0.83315  0.89817  0.4573000000000001  1.0000
  H   H2        1.0  0.7845300000000001  0.32596  0.11258  1.0000
  H   H3        1.0  0.55168  0.3366  0.16088  1.0000
  H   H4        1.0  0.59244  0.26894  0.95087  1.0000
  H   H5        1.0  0.42525  0.36328999999999995  0.9598  1.0000
  H   H6        1.0  0.47930000000000017  0.5672099999999999  0.17352000000000006  1.0000
  H   H7        1.0  0.15772  0.41939000000000004  0.20854  1.0000
  H   H8        1.0  0.19739  0.99079  0.53854  1.0000
  H   H9        1.0  0.40509000000000006  0.86247  0.67261  1.0000
  H   H10       1.0  0.3887700000000001  0.06217000000000001  0.68562  1.0000
  H   H11       1.0  0.57149  0.9932200000000001  0.66166  1.0000
  H   H12       1.0  0.5142400000000001  0.8024300000000001  0.4371100000000001  1.0000
  H   H13       1.0  0.17326  0.19579999999999997  0.45865  1.0000
  H   H14       1.0  0.23016  0.6043499999999999  0.026220000000000007  1.0000
  H   H15       1.0  0.44153  0.7191399999999999  0.86577  1.0000
  H   H16       1.0  0.4187199999999999  0.7533  0.07312  1.0000
  H   H17       1.0  0.59194  0.67439  0.027490000000000007  1.0000
  H   H18       1.0  0.53092  0.47257  0.81068  1.0000
  H   H19       1.0  0.84991  0.4243699999999999  0.93491  1.0000
  H   H20       1.0  0.8112  0.12612  0.36338  1.0000
  H   H21       1.0  0.58261  0.18042000000000002  0.35692  1.0000
  H   H22       1.0  0.60893  0.96104  0.28462  1.0000
  H   H23       1.0  0.4382700000000001  0.013790000000000014  0.36793000000000003  1.0000
  H   H24       1.0  0.50342  0.19934000000000004  0.58921  1.0000
  C   C1        1.0  0.79664  0.75449  0.36377000000000004  1.0000
  C   C2        1.0  0.77476  0.46299999999999997  0.19045000000000006  1.0000
  C   C3        1.0  0.57926  0.38227  0.07812  1.0000
  C   C4        1.0  0.49755  0.47037  0.04143  1.0000
  C   C5        1.0  0.19326  0.56314  0.28962  1.0000
  C   C6        1.0  0.21251000000000006  0.8570699999999999  0.45994  1.0000
  C   C7        1.0  0.40323  0.92558  0.59658  1.0000
  C   C8        1.0  0.50647  0.93998  0.54249  1.0000
  C   C9        1.0  0.21116  0.30619  0.59884  1.0000
  C   C10       1.0  0.23704  0.52261  0.88696  1.0000
  C   C11       1.0  0.429  0.6521200000000001  0.9364800000000002  1.0000
  C   C12       1.0  0.52013  0.56638  0.9498000000000002  1.0000
  C   C13       1.0  0.8146400000000003  0.34117  0.7904  1.0000
  C   C14       1.0  0.79738  0.18840000000000004  0.4985500000000001  1.0000
  C   C15       1.0  0.60005  0.09108  0.40107  1.0000
  C   C16       1.0  0.50958  0.06374  0.47665  1.0000
  N   N1        1.0  0.85146  0.61925  0.3022  1.0000
  N   N2        1.0  0.69423  0.69276  0.2954600000000001  1.0000
  N   N3        1.0  0.68124  0.50906  0.18341  1.0000
  N   N4        1.0  0.14023  0.69651  0.36421  1.0000
  N   N5        1.0  0.29775  0.62773  0.33224  1.0000
  N   N6        1.0  0.31258000000000014  0.82271  0.43694  1.0000
  N   N7        1.0  0.16181  0.38609  0.737  1.0000
  N   N8        1.0  0.3134900000000001  0.38339  0.65142  1.0000
  N   N9        1.0  0.33082  0.51749  0.83793  1.0000
  N   N10       1.0  0.8716500000000001  0.29020000000000007  0.6605400000000001  1.0000
  N   N11       1.0  0.71165  0.27714  0.71992  1.0000
  N   N12       1.0  0.70203  0.1778  0.53467  1.0000
  O   O1        1.0  0.48974000000000006  0.3781999999999999  0.37047  1.0000
