data_image0
_chemical_formula_structural       La4H8C32N4O24
_chemical_formula_sum              "La4 H8 C32 N4 O24"
_cell_length_a       6.79737
_cell_length_b       12.23061
_cell_length_c       13.3742
_cell_angle_alpha    90.04630000000002
_cell_angle_beta     97.76135
_cell_angle_gamma    89.86319

_symmetry_space_group_name_H-M    'P 1'
_symmetry_Int_Tables_number       1

loop_
  _symmetry_equiv_pos_as_xyz
  'x,y,z'

loop_
  _atom_site_type_symbol
  _atom_site_label
  _atom_site_symmetry_multiplicity
  _atom_site_fract_x
  _atom_site_fract_y
  _atom_site_fract_z
  _atom_site_occupancy
  La  La1       1.0  0.9577599999999997  0.83189  0.23276  1.0000
  La  La2       1.0  0.04215999999999999  0.33272  0.26722  1.0000
  La  La3       1.0  0.04223000000000005  0.16811  0.7672400000000001  1.0000
  La  La4       1.0  0.9578299999999998  0.66728  0.7327800000000002  1.0000
  H   H1        1.0  0.19207999999999997  0.9469799999999998  0.04491000000000001  1.0000
  H   H2        1.0  0.54767  0.79502  0.83855  1.0000
  H   H3        1.0  0.8077  0.44674999999999987  0.45549  1.0000
  H   H4        1.0  0.45268  0.29519  0.66146  1.0000
  H   H5        1.0  0.8079199999999997  0.05301999999999999  0.9550900000000002  1.0000
  H   H6        1.0  0.45232  0.20498  0.16144  1.0000
  H   H7        1.0  0.19229999999999997  0.55325  0.5445100000000002  1.0000
  H   H8        1.0  0.54732  0.70481  0.33854  1.0000
  C   C1        1.0  0.4692499999999999  0.8727499999999999  0.1083  1.0000
  C   C2        1.0  0.3238699999999999  0.9029299999999999  0.02934000000000001  1.0000
  C   C3        1.0  0.34918  0.8739799999999998  0.93075  1.0000
  C   C4        1.0  0.5236199999999999  0.81954  0.9140100000000001  1.0000
  C   C5        1.0  0.6668199999999997  0.79764  0.9966000000000003  1.0000
  C   C6        1.0  0.8716200000000001  0.7511199999999999  0.9887800000000002  1.0000
  C   C7        1.0  0.4562699999999999  0.89694  0.2179  1.0000
  C   C8        1.0  0.19032999999999997  0.89981  0.8440900000000002  1.0000
  C   C9        1.0  0.53092  0.37298  0.3918100000000001  1.0000
  C   C10       1.0  0.67606  0.4028499999999999  0.47086  1.0000
  C   C11       1.0  0.65079  0.3740099999999999  0.5694100000000001  1.0000
  C   C12       1.0  0.4766799999999999  0.31973  0.58607  1.0000
  C   C13       1.0  0.33364999999999995  0.2981  0.50341  1.0000
  C   C14       1.0  0.12881  0.25239  0.51133  1.0000
  C   C15       1.0  0.54405  0.39711  0.28223  1.0000
  C   C16       1.0  0.80936  0.39994  0.6560300000000001  1.0000
  C   C17       1.0  0.53075  0.12725  0.8917  1.0000
  C   C18       1.0  0.6761299999999999  0.09707  0.97065  1.0000
  C   C19       1.0  0.65082  0.12601999999999997  0.06925  1.0000
  C   C20       1.0  0.4763699999999999  0.18046  0.08599000000000002  1.0000
  C   C21       1.0  0.33318  0.20235999999999996  0.0033900000000000007  1.0000
  C   C22       1.0  0.12837  0.24887999999999993  0.01122  1.0000
  C   C23       1.0  0.54373  0.10305999999999997  0.7821000000000002  1.0000
  C   C24       1.0  0.8096699999999999  0.10019  0.15591  1.0000
  C   C25       1.0  0.46907999999999994  0.6270199999999999  0.60818  1.0000
  C   C26       1.0  0.32394  0.59715  0.5291400000000002  1.0000
  C   C27       1.0  0.34921  0.6259999999999999  0.43059000000000003  1.0000
  C   C28       1.0  0.5233199999999998  0.68027  0.41392  1.0000
  C   C29       1.0  0.6663499999999998  0.7019  0.4965900000000001  1.0000
  C   C30       1.0  0.8711899999999998  0.74761  0.4886700000000001  1.0000
  C   C31       1.0  0.45594  0.60289  0.71777  1.0000
  C   C32       1.0  0.19063999999999998  0.60006  0.3439700000000001  1.0000
  N   N1        1.0  0.63856  0.8224699999999999  0.09151000000000002  1.0000
  N   N2        1.0  0.36176  0.32293999999999995  0.40854  1.0000
  N   N3        1.0  0.36144000000000004  0.17753  0.9084800000000001  1.0000
  N   N4        1.0  0.63824  0.6770599999999998  0.59145  1.0000
  O   O1        1.0  0.61775  0.8947699999999997  0.27767000000000003  1.0000
  O   O2        1.0  0.28501999999999994  0.9163699999999998  0.24287000000000003  1.0000
  O   O3        1.0  0.9908199999999998  0.7458699999999999  0.07048  1.0000
  O   O4        1.0  0.9142599999999997  0.7246599999999997  0.90276  1.0000
  O   O5        1.0  0.16244  0.83127  0.77246  1.0000
  O   O6        1.0  0.09423  0.98852  0.8491500000000002  1.0000
  O   O7        1.0  0.38304  0.39327  0.22223  1.0000
  O   O8        1.0  0.7147599999999997  0.41817  0.2574600000000001  1.0000
  O   O9        1.0  0.009580000000000036  0.24758999999999995  0.4295500000000001  1.0000
  O   O10       1.0  0.08576000000000006  0.22671999999999995  0.5973600000000001  1.0000
  O   O11       1.0  0.8369800000000002  0.33239999999999986  0.72827  1.0000
  O   O12       1.0  0.9060799999999998  0.48804  0.65042  1.0000
  O   O13       1.0  0.38223999999999997  0.10522999999999999  0.7223300000000001  1.0000
  O   O14       1.0  0.7149699999999998  0.08363  0.7571200000000001  1.0000
  O   O15       1.0  0.009180000000000016  0.25412999999999997  0.9295200000000001  1.0000
  O   O16       1.0  0.08574  0.27534  0.09723  1.0000
  O   O17       1.0  0.8375499999999998  0.16872999999999994  0.22754  1.0000
  O   O18       1.0  0.90577  0.011479999999999999  0.15085  1.0000
  O   O19       1.0  0.61695  0.6067299999999999  0.7777600000000002  1.0000
  O   O20       1.0  0.28523999999999994  0.58183  0.74254  1.0000
  O   O21       1.0  0.9904200000000001  0.75242  0.57045  1.0000
  O   O22       1.0  0.91424  0.7732799999999997  0.40264  1.0000
  O   O23       1.0  0.16301  0.6676  0.27172  1.0000
  O   O24       1.0  0.09392  0.51196  0.3495700000000001  1.0000
