data_image0
_chemical_formula_structural       Cd4Cu4H16C24O32
_chemical_formula_sum              "Cd4 Cu4 H16 C24 O32"
_cell_length_a       7.6014
_cell_length_b       12.73085
_cell_length_c       14.08927
_cell_angle_alpha    90.05695
_cell_angle_beta     89.99006
_cell_angle_gamma    90.02836

_space_group_name_H-M_alt    "P 1"
_space_group_IT_number       1

loop_
  _space_group_symop_operation_xyz
  'x, y, z'

loop_
  _atom_site_type_symbol
  _atom_site_label
  _atom_site_symmetry_multiplicity
  _atom_site_fract_x
  _atom_site_fract_y
  _atom_site_fract_z
  _atom_site_occupancy
  Cd  Cd1       1.0  0.0025599999999999993  0.7492  0.73076  1.0000
  Cd  Cd2       1.0  0.49761  0.74929  0.23056  1.0000
  Cd  Cd3       1.0  0.9974299999999999  0.25079  0.26924  1.0000
  Cd  Cd4       1.0  0.50239  0.2507  0.7694399999999998  1.0000
  Cu  Cu1       1.0  0.4999899999999999  0.0  0.5  1.0000
  Cu  Cu2       1.0  0.5  0.5  0.5  1.0000
  Cu  Cu3       1.0  0.99999  0.99999  0.0  1.0000
  Cu  Cu4       1.0  0.0  0.5  0.0  1.0000
  H   H1        1.0  0.37319999999999987  0.89393  0.7798199999999997  1.0000
  H   H2        1.0  0.42856  0.62285  0.7125199999999998  1.0000
  H   H3        1.0  0.92869  0.37795  0.78773  1.0000
  H   H4        1.0  0.12666  0.89398  0.2797  1.0000
  H   H5        1.0  0.92898  0.87792  0.21379999999999993  1.0000
  H   H6        1.0  0.07101  0.12207  0.7862  1.0000
  H   H7        1.0  0.12579  0.39187  0.72076  1.0000
  H   H8        1.0  0.6256199999999997  0.60766  0.7793499999999998  1.0000
  H   H9        1.0  0.57144  0.37715  0.2874799999999999  1.0000
  H   H10       1.0  0.07131  0.62204  0.21228  1.0000
  H   H11       1.0  0.6267899999999998  0.10607  0.22018  1.0000
  H   H12       1.0  0.37438  0.39234  0.22065  1.0000
  H   H13       1.0  0.8742  0.60813  0.27924  1.0000
  H   H14       1.0  0.42902  0.1221  0.28604  1.0000
  H   H15       1.0  0.57097  0.8779  0.7139599999999999  1.0000
  H   H16       1.0  0.87334  0.10601  0.7203099999999998  1.0000
  C   C1        1.0  0.06361  0.41056  0.7888099999999999  1.0000
  C   C2        1.0  0.6566999999999998  0.64639  0.63104  1.0000
  C   C3        1.0  0.15658  0.85425  0.1316  1.0000
  C   C4        1.0  0.06305  0.91175  0.21181999999999995  1.0000
  C   C5        1.0  0.15674  0.3533899999999999  0.86921  1.0000
  C   C6        1.0  0.5426499999999997  0.47207  0.70179  1.0000
  C   C7        1.0  0.9363799999999998  0.58944  0.2112  1.0000
  C   C8        1.0  0.34351  0.8542  0.63166  1.0000
  C   C9        1.0  0.4369399999999999  0.91167  0.71195  1.0000
  C   C10       1.0  0.56306  0.08833  0.28805  1.0000
  C   C11       1.0  0.95806  0.97091  0.7981999999999998  1.0000
  C   C12       1.0  0.95472  0.47202  0.2018  1.0000
  C   C13       1.0  0.84341  0.14574  0.8684099999999998  1.0000
  C   C14       1.0  0.04194  0.02908  0.2018  1.0000
  C   C15       1.0  0.54194  0.9710399999999999  0.2981  1.0000
  C   C16       1.0  0.4580599999999999  0.02896  0.7018999999999999  1.0000
  C   C17       1.0  0.65648  0.1458  0.36834  1.0000
  C   C18       1.0  0.3433  0.35359999999999997  0.36897  1.0000
  C   C19       1.0  0.93695  0.08823999999999999  0.7881799999999999  1.0000
  C   C20       1.0  0.43713  0.41056999999999994  0.28865  1.0000
  C   C21       1.0  0.84325  0.64661  0.13079  1.0000
  C   C22       1.0  0.04528  0.52797  0.7981999999999998  1.0000
  C   C23       1.0  0.45735  0.52792  0.29822  1.0000
  C   C24       1.0  0.56287  0.58943  0.71135  1.0000
  O   O1        1.0  0.49185  0.92863  0.37582999999999994  1.0000
  O   O2        1.0  0.64236  0.11534  0.4542099999999999  1.0000
  O   O3        1.0  0.00808  0.92837  0.87589  1.0000
  O   O4        1.0  3.0000000000000045e-05  0.57165  0.8761899999999999  1.0000
  O   O5        1.0  0.4932  0.42876  0.62429  1.0000
  O   O6        1.0  0.5068  0.57124  0.37571  1.0000
  O   O7        1.0  0.99997  0.42833999999999994  0.12380999999999998  1.0000
  O   O8        1.0  0.57034  0.91641  0.22385  1.0000
  O   O9        1.0  0.07113  0.58158  0.72323  1.0000
  O   O10       1.0  0.36502  0.38149  0.4552299999999999  1.0000
  O   O11       1.0  0.75203  0.72637  0.15222  1.0000
  O   O12       1.0  0.74829  0.72605  0.65237  1.0000
  O   O13       1.0  0.85758  0.11529999999999999  0.95428  1.0000
  O   O14       1.0  0.74141  0.22817  0.3471899999999999  1.0000
  O   O15       1.0  0.42966  0.08358999999999998  0.77616  1.0000
  O   O16       1.0  0.63497  0.61851  0.54477  1.0000
  O   O17       1.0  0.24796  0.27362  0.8477799999999998  1.0000
  O   O18       1.0  0.25859  0.77183  0.65281  1.0000
  O   O19       1.0  0.50814  0.07138  0.62418  1.0000
  O   O20       1.0  0.9919  0.07161  0.12411  1.0000
  O   O21       1.0  0.3576299999999999  0.88466  0.54579  1.0000
  O   O22       1.0  0.2517  0.27395  0.34763  1.0000
  O   O23       1.0  0.07023  0.08368  0.27611  1.0000
  O   O24       1.0  0.14240999999999995  0.88469  0.04573  1.0000
  O   O25       1.0  0.92976  0.91632  0.72389  1.0000
  O   O26       1.0  0.24152  0.77193  0.15276  1.0000
  O   O27       1.0  0.7584799999999998  0.22805999999999996  0.84724  1.0000
  O   O28       1.0  0.42882  0.5817  0.22358999999999996  1.0000
  O   O29       1.0  0.13492  0.38124  0.95549  1.0000
  O   O30       1.0  0.92886  0.41841  0.27677  1.0000
  O   O31       1.0  0.86508  0.61875  0.04451  1.0000
  O   O32       1.0  0.5711799999999999  0.41829  0.7764099999999998  1.0000
