data_image0
_chemical_formula_structural       Gd4H24C24O24
_chemical_formula_sum              "Gd4 H24 C24 O24"
_cell_length_a       7.8473
_cell_length_b       11.8772
_cell_length_c       12.070539999999998
_cell_angle_alpha    67.91068
_cell_angle_beta     89.97649
_cell_angle_gamma    80.84959

_symmetry_space_group_name_H-M    'P 1'
_symmetry_Int_Tables_number       1

loop_
  _symmetry_equiv_pos_as_xyz
  'x,y,z'

loop_
  _atom_site_type_symbol
  _atom_site_label
  _atom_site_symmetry_multiplicity
  _atom_site_fract_x
  _atom_site_fract_y
  _atom_site_fract_z
  _atom_site_occupancy
  Gd  Gd1       1.0  0.02483999999999999  0.13702  0.15784  1.0000
  Gd  Gd2       1.0  0.5259299999999998  0.13631  0.23999  1.0000
  Gd  Gd3       1.0  0.9751599999999999  0.8629799999999997  0.84216  1.0000
  Gd  Gd4       1.0  0.47406999999999977  0.8636900000000001  0.76002  1.0000
  H   H1        1.0  0.24808  0.21561999999999998  0.6785  1.0000
  H   H2        1.0  0.12107000000000001  0.2631999999999999  0.7817  1.0000
  H   H3        1.0  0.37682999999999983  0.7362  0.47427  1.0000
  H   H4        1.0  0.2481899999999999  0.78678  0.33638  1.0000
  H   H5        1.0  0.09719  0.55739  0.84775  1.0000
  H   H6        1.0  0.2829199999999999  0.4786099999999999  0.8057300000000001  1.0000
  H   H7        1.0  0.022030000000000032  0.9103399999999999  0.41345  1.0000
  H   H8        1.0  0.04999000000000003  0.7516799999999999  0.49911000000000005  1.0000
  H   H9        1.0  0.4253299999999999  0.41145999999999994  0.00742  1.0000
  H   H10       1.0  0.27000999999999986  0.51153  0.04757  1.0000
  H   H11       1.0  0.47743999999999986  0.09135000000000001  0.84319  1.0000
  H   H12       1.0  0.4479599999999999  0.2489799999999999  0.81611  1.0000
  H   H13       1.0  0.75193  0.78438  0.3215  1.0000
  H   H14       1.0  0.8789400000000002  0.7367999999999999  0.21830000000000002  1.0000
  H   H15       1.0  0.62317  0.2637999999999999  0.52573  1.0000
  H   H16       1.0  0.75181  0.21322  0.66362  1.0000
  H   H17       1.0  0.90281  0.44261  0.15226  1.0000
  H   H18       1.0  0.7170799999999997  0.52139  0.19426999999999997  1.0000
  H   H19       1.0  0.9779699999999998  0.08966000000000002  0.58656  1.0000
  H   H20       1.0  0.95001  0.24831999999999996  0.50089  1.0000
  H   H21       1.0  0.5746799999999997  0.58854  0.99258  1.0000
  H   H22       1.0  0.7299899999999998  0.48847  0.95243  1.0000
  H   H23       1.0  0.5225599999999998  0.90865  0.15681  1.0000
  H   H24       1.0  0.5520399999999999  0.75102  0.18389000000000003  1.0000
  C   C1        1.0  0.35752000000000006  0.1373099999999999  0.9810500000000001  1.0000
  C   C2        1.0  0.21653999999999998  0.18946999999999997  0.77288  1.0000
  C   C3        1.0  0.13256999999999994  0.07698999999999998  0.8032000000000001  1.0000
  C   C4        1.0  0.36589  0.9238299999999998  0.3599200000000001  1.0000
  C   C5        1.0  0.2815499999999999  0.8112999999999998  0.41208  1.0000
  C   C6        1.0  0.23825999999999992  0.5305699999999999  0.8616400000000001  1.0000
  C   C7        1.0  0.3195299999999999  0.6450899999999998  0.8253000000000001  1.0000
  C   C8        1.0  0.14464000000000002  0.8586299999999999  0.58495  1.0000
  C   C9        1.0  0.11568  0.83193  0.47381  1.0000
  C   C10       1.0  0.28799999999999987  0.45302  0.99471  1.0000
  C   C11       1.0  0.18644  0.35065  0.05204  1.0000
  C   C12       1.0  0.3835699999999999  0.16790999999999995  0.8490200000000001  1.0000
  C   C13       1.0  0.6424899999999998  0.86269  0.01895  1.0000
  C   C14       1.0  0.7834599999999998  0.81053  0.22712  1.0000
  C   C15       1.0  0.8674299999999997  0.92301  0.19681000000000004  1.0000
  C   C16       1.0  0.6341199999999999  0.07616999999999993  0.64008  1.0000
  C   C17       1.0  0.7184499999999999  0.1886999999999999  0.58792  1.0000
  C   C18       1.0  0.76175  0.46942999999999996  0.13836  1.0000
  C   C19       1.0  0.6804799999999999  0.3549099999999999  0.1747  1.0000
  C   C20       1.0  0.8553699999999997  0.14136999999999994  0.41505  1.0000
  C   C21       1.0  0.8843299999999997  0.16807000000000002  0.52619  1.0000
  C   C22       1.0  0.7119999999999999  0.5469799999999999  0.00529  1.0000
  C   C23       1.0  0.81356  0.6493499999999999  0.94796  1.0000
  C   C24       1.0  0.6164400000000001  0.8320899999999999  0.15099  1.0000
  O   O1        1.0  0.24141999999999997  0.26954  0.15813  1.0000
  O   O2        1.0  0.05099999999999999  0.34239  0.00101  1.0000
  O   O3        1.0  0.22369  0.9740899999999999  0.80593  1.0000
  O   O4        1.0  0.9738299999999998  0.07970999999999995  0.82157  1.0000
  O   O5        1.0  0.44844999999999996  0.6574799999999998  0.7615400000000001  1.0000
  O   O6        1.0  0.25922  0.73012  0.8656900000000001  1.0000
  O   O7        1.0  0.48095  0.14740999999999999  0.04359  1.0000
  O   O8        1.0  0.21694  0.10264999999999998  0.02169  1.0000
  O   O9        1.0  0.023640000000000008  0.84622  0.65679  1.0000
  O   O10       1.0  0.28540999999999994  0.8934  0.59906  1.0000
  O   O11       1.0  0.2743  0.027930000000000007  0.28911  1.0000
  O   O12       1.0  0.5256099999999997  0.9200100000000001  0.37809999999999994  1.0000
  O   O13       1.0  0.75858  0.7304599999999998  0.8418700000000001  1.0000
  O   O14       1.0  0.9489999999999996  0.6576099999999998  0.9989900000000002  1.0000
  O   O15       1.0  0.7763099999999997  0.025909999999999992  0.19407  1.0000
  O   O16       1.0  0.026179999999999988  0.92029  0.17843  1.0000
  O   O17       1.0  0.5515599999999998  0.34252  0.23846  1.0000
  O   O18       1.0  0.74079  0.26988  0.13432  1.0000
  O   O19       1.0  0.51906  0.8525899999999997  0.95641  1.0000
  O   O20       1.0  0.7830599999999998  0.8973499999999999  0.97831  1.0000
  O   O21       1.0  0.9763599999999998  0.15378  0.34322  1.0000
  O   O22       1.0  0.7146  0.10659999999999999  0.40094  1.0000
  O   O23       1.0  0.7257  0.97207  0.71089  1.0000
  O   O24       1.0  0.4743899999999998  0.07999  0.6219  1.0000
