data_image0
_chemical_formula_structural       Co4H20C42N4O18
_chemical_formula_sum              "Co4 H20 C42 N4 O18"
_cell_length_a       7.4124
_cell_length_b       12.60202
_cell_length_c       13.82303
_cell_angle_alpha    87.23849
_cell_angle_beta     87.26750999999999
_cell_angle_gamma    68.497

_space_group_name_H-M_alt    "P 1"
_space_group_IT_number       1

loop_
  _space_group_symop_operation_xyz
  'x, y, z'

loop_
  _atom_site_type_symbol
  _atom_site_label
  _atom_site_symmetry_multiplicity
  _atom_site_fract_x
  _atom_site_fract_y
  _atom_site_fract_z
  _atom_site_occupancy
  Co  Co1       1.0  0.5842500000000004  0.7438  0.9464800000000002  1.0000
  Co  Co2       1.0  0.89663  0.92667  0.7293600000000001  1.0000
  Co  Co3       1.0  0.42177000000000003  0.25514  0.052240000000000016  1.0000
  Co  Co4       1.0  0.10602000000000002  0.07189  0.26976  1.0000
  H   H1        1.0  0.94601  0.57287  0.6775700000000002  1.0000
  H   H2        1.0  0.9723000000000004  0.36902  0.7852000000000002  1.0000
  H   H3        1.0  0.2561300000000001  0.60907  0.7013900000000001  1.0000
  H   H4        1.0  0.5577  0.20816  0.57036  1.0000
  H   H5        1.0  0.50055  0.44484999999999997  0.6166200000000001  1.0000
  H   H6        1.0  0.23560999999999996  0.30647  0.4979300000000001  1.0000
  H   H7        1.0  0.24194000000000007  0.68661  0.98832  1.0000
  H   H8        1.0  0.83425  0.48791  0.96258  1.0000
  H   H9        1.0  0.9908899999999999  0.8121500000000001  0.5423  1.0000
  H   H10       1.0  0.9522600000000004  0.13287  0.63002  1.0000
  H   H11       1.0  0.05698000000000003  0.4261499999999999  0.3218600000000001  1.0000
  H   H12       1.0  0.029100000000000032  0.62966  0.21424000000000007  1.0000
  H   H13       1.0  0.7464400000000003  0.39177  0.29764  1.0000
  H   H14       1.0  0.445  0.79126  0.42935000000000006  1.0000
  H   H15       1.0  0.50068  0.55573  0.3826000000000001  1.0000
  H   H16       1.0  0.7664700000000001  0.69216  0.50185  1.0000
  H   H17       1.0  0.76137  0.31337  0.01006  1.0000
  H   H18       1.0  0.16898000000000002  0.51221  0.03582  1.0000
  H   H19       1.0  0.013469999999999965  0.18731000000000003  0.4575200000000001  1.0000
  H   H20       1.0  0.05095000000000006  0.86698  0.36972  1.0000
  C   C1        1.0  0.74079  0.49523  0.6452300000000002  1.0000
  C   C2        1.0  0.08164999999999999  0.34336  0.63665  1.0000
  C   C3        1.0  0.79611  0.57819  0.6849400000000002  1.0000
  C   C4        1.0  0.09930999999999998  0.33331  0.73754  1.0000
  C   C5        1.0  0.6593800000000001  0.67174  0.73069  1.0000
  C   C6        1.0  0.27901000000000004  0.2738399999999999  0.7788500000000003  1.0000
  C   C7        1.0  0.46356000000000025  0.6813999999999999  0.7399600000000002  1.0000
  C   C8        1.0  0.44478000000000006  0.22627999999999998  0.71813  1.0000
  C   C9        1.0  0.40840000000000015  0.59934  0.69714  1.0000
  C   C10       1.0  0.42790999999999985  0.24085  0.6170100000000001  1.0000
  C   C11       1.0  0.5442500000000002  0.5079  0.6496000000000002  1.0000
  C   C12       1.0  0.24829  0.2967  0.57628  1.0000
  C   C13       1.0  0.73282  0.76128  0.75949  1.0000
  C   C14       1.0  0.29433  0.26741  0.88617  1.0000
  C   C15       1.0  0.3125700000000002  0.7783799999999998  0.79135  1.0000
  C   C16       1.0  0.64606  0.16009  0.7533900000000001  1.0000
  C   C17       1.0  0.8894700000000003  0.39946999999999994  0.59242  1.0000
  C   C18       1.0  0.35785000000000006  0.60313  0.9932100000000003  1.0000
  C   C19       1.0  0.68575  0.49348999999999993  0.9784300000000002  1.0000
  C   C20       1.0  0.9947800000000003  0.89618  0.52356  1.0000
  C   C21       1.0  0.9754800000000002  0.07379  0.57152  1.0000
  C   C22       1.0  0.26187000000000005  0.50413  0.35398000000000013  1.0000
  C   C23       1.0  0.92043  0.6554  0.36292  1.0000
  C   C24       1.0  0.20688000000000012  0.42087  0.31459  1.0000
  C   C25       1.0  0.9023400000000001  0.66546  0.26203  1.0000
  C   C26       1.0  0.3438900000000002  0.32738  0.26894  1.0000
  C   C27       1.0  0.72278  0.72532  0.22065000000000007  1.0000
  C   C28       1.0  0.5391500000000002  0.31865  0.25951  1.0000
  C   C29       1.0  0.5573800000000001  0.7732899999999999  0.28153000000000006  1.0000
  C   C30       1.0  0.5942099999999999  0.40115  0.30178000000000005  1.0000
  C   C31       1.0  0.5746100000000001  0.75841  0.3826700000000001  1.0000
  C   C32       1.0  0.45801999999999987  0.49237  0.3493700000000001  1.0000
  C   C33       1.0  0.7540500000000002  0.70214  0.42344  1.0000
  C   C34       1.0  0.2718  0.2372  0.23982  1.0000
  C   C35       1.0  0.7084200000000003  0.7318499999999999  0.11321  1.0000
  C   C36       1.0  0.69051  0.22108  0.20931000000000005  1.0000
  C   C37       1.0  0.35573000000000005  0.8398299999999999  0.24694000000000005  1.0000
  C   C38       1.0  0.11281999999999999  0.59942  0.4069900000000001  1.0000
  C   C39       1.0  0.6455100000000003  0.39685999999999994  0.00512  1.0000
  C   C40       1.0  0.31759  0.50648  0.019910000000000008  1.0000
  C   C41       1.0  0.00960000000000001  0.10328999999999999  0.4763100000000001  1.0000
  C   C42       1.0  0.02826999999999999  0.92581  0.42836000000000013  1.0000
  N   N1        1.0  0.5421999999999999  0.59741  0.9721800000000003  1.0000
  N   N2        1.0  0.9671300000000002  0.97024  0.59554  1.0000
  N   N3        1.0  0.46124  0.4025000000000001  0.02603  1.0000
  N   N4        1.0  0.03745999999999999  0.02911  0.40438000000000013  1.0000
  O   O1        1.0  0.7820499999999999  0.81528  0.68934  1.0000
  O   O2        1.0  0.16183000000000008  0.33079  0.9416000000000002  1.0000
  O   O3        1.0  0.75537  0.77721  0.84781  1.0000
  O   O4        1.0  0.45554000000000017  0.19796  0.9219300000000002  1.0000
  O   O5        1.0  0.3524000000000001  0.8201699999999998  0.8660400000000003  1.0000
  O   O6        1.0  0.7661800000000003  0.20674999999999988  0.7570900000000003  1.0000
  O   O7        1.0  0.14448000000000003  0.8132  0.7561200000000002  1.0000
  O   O8        1.0  0.67765  0.05126000000000001  0.76697  1.0000
  O   O9        1.0  0.85342  0.37043  0.5134900000000001  1.0000
  O   O10       1.0  0.22622999999999996  0.18102999999999997  0.30958000000000013  1.0000
  O   O11       1.0  0.84405  0.67104  0.0578  1.0000
  O   O12       1.0  0.24743  0.22295  0.15131  1.0000
  O   O13       1.0  0.5455  0.7988  0.07728000000000003  1.0000
  O   O14       1.0  0.6539100000000002  0.17965  0.1336  1.0000
  O   O15       1.0  0.23421999999999998  0.79361  0.24752000000000005  1.0000
  O   O16       1.0  0.85576  0.18507000000000004  0.24773000000000006  1.0000
  O   O17       1.0  0.32497000000000004  0.948  0.22924000000000003  1.0000
  O   O18       1.0  0.14862000000000006  0.62839  0.48605  1.0000
