data_image0
_chemical_formula_structural       Cd8H16C16O24
_chemical_formula_sum              "Cd8 H16 C16 O24"
_cell_length_a       3.66595
_cell_length_b       6.672010000000001
_cell_length_c       27.956180000000003
_cell_angle_alpha    91.98539
_cell_angle_beta     89.93942
_cell_angle_gamma    89.90192

_symmetry_space_group_name_H-M    'P 1'
_symmetry_Int_Tables_number       1

loop_
  _symmetry_equiv_pos_as_xyz
  'x,y,z'

loop_
  _atom_site_type_symbol
  _atom_site_label
  _atom_site_symmetry_multiplicity
  _atom_site_fract_x
  _atom_site_fract_y
  _atom_site_fract_z
  _atom_site_occupancy
  Cd  Cd1       1.0  0.07103  0.919  0.7772600000000002  1.0000
  Cd  Cd2       1.0  0.3248  0.4463499999999999  0.015210000000000003  1.0000
  Cd  Cd3       1.0  0.9221499999999998  0.9717199999999998  0.2530600000000001  1.0000
  Cd  Cd4       1.0  0.15623  0.53229  0.52576  1.0000
  Cd  Cd5       1.0  0.49722  0.5280299999999998  0.74728  1.0000
  Cd  Cd6       1.0  0.67346  0.9753199999999999  0.4776900000000001  1.0000
  Cd  Cd7       1.0  0.56395  0.5839599999999999  0.22290000000000004  1.0000
  Cd  Cd8       1.0  0.81016  0.05326000000000003  0.9865900000000002  1.0000
  H   H1        1.0  0.96236  0.55858  0.84083  1.0000
  H   H2        1.0  0.98395  0.40353999999999995  0.9167500000000002  1.0000
  H   H3        1.0  0.46181  0.23162999999999997  0.9193100000000002  1.0000
  H   H4        1.0  0.41622  0.7321200000000001  0.8454100000000001  1.0000
  H   H5        1.0  0.5590699999999997  0.4485699999999999  0.3392000000000001  1.0000
  H   H6        1.0  0.55697  0.5979999999999999  0.41737  1.0000
  H   H7        1.0  0.09657  0.6854899999999999  0.4552700000000001  1.0000
  H   H8        1.0  0.15712  0.27992  0.35066000000000014  1.0000
  H   H9        1.0  0.06456  0.049219999999999986  0.66129  1.0000
  H   H10       1.0  0.07951999999999998  0.9041499999999999  0.5812600000000002  1.0000
  H   H11       1.0  0.58965  0.7674899999999998  0.55558  1.0000
  H   H12       1.0  0.6635099999999998  0.21816999999999998  0.65069  1.0000
  H   H13       1.0  0.45709  0.9373099999999999  0.16009  1.0000
  H   H14       1.0  0.48335  0.09805999999999998  0.08467000000000002  1.0000
  H   H15       1.0  0.96038  0.26977999999999996  0.08040000000000003  1.0000
  H   H16       1.0  0.91714  0.7690799999999999  0.15689000000000006  1.0000
  C   C1        1.0  0.68129  0.27361  0.83082  1.0000
  C   C2        1.0  0.69872  0.4866599999999999  0.8533400000000002  1.0000
  C   C3        1.0  0.7188899999999998  0.4792899999999999  0.9071400000000001  1.0000
  C   C4        1.0  0.7207  0.6901199999999997  0.9308900000000001  1.0000
  C   C5        1.0  0.8475999999999998  0.72696  0.33383  1.0000
  C   C6        1.0  0.83244  0.51418  0.3519700000000001  1.0000
  C   C7        1.0  0.8292599999999998  0.52813  0.40647  1.0000
  C   C8        1.0  0.8287199999999999  0.3210499999999999  0.42871000000000004  1.0000
  C   C9        1.0  0.35184  0.7705199999999998  0.66521  1.0000
  C   C10       1.0  0.33839999999999987  0.98564  0.6482200000000001  1.0000
  C   C11       1.0  0.3389  0.9803  0.59368  1.0000
  C   C12       1.0  0.31398  0.18831999999999996  0.57326  1.0000
  C   C13       1.0  0.19577  0.22155  0.17234000000000005  1.0000
  C   C14       1.0  0.19904999999999995  0.013440000000000007  0.14797000000000005  1.0000
  C   C15       1.0  0.21775  0.023209999999999995  0.09414  1.0000
  C   C16       1.0  0.22474  0.81103  0.07049000000000001  1.0000
  O   O1        1.0  0.87329  0.14336999999999997  0.84704  1.0000
  O   O2        1.0  0.47389  0.24683999999999995  0.79335  1.0000
  O   O3        1.0  0.3903999999999999  0.58811  0.83842  1.0000
  O   O4        1.0  0.42351  0.3752399999999999  0.92473  1.0000
  O   O5        1.0  0.48237999999999986  0.7356799999999999  0.9625100000000002  1.0000
  O   O6        1.0  0.96932  0.8083299999999998  0.9189200000000002  1.0000
  O   O7        1.0  0.6080999999999998  0.85179  0.34541  1.0000
  O   O8        1.0  0.11471999999999999  0.7592899999999998  0.3051300000000001  1.0000
  O   O9        1.0  0.13505  0.4059900000000001  0.33395000000000014  1.0000
  O   O10       1.0  0.12265999999999998  0.64377  0.42157  1.0000
  O   O11       1.0  0.06494  0.28135  0.4606400000000001  1.0000
  O   O12       1.0  0.57692  0.20105  0.41670000000000007  1.0000
  O   O13       1.0  0.11332  0.6468899999999997  0.65319  1.0000
  O   O14       1.0  0.6174699999999999  0.7382699999999999  0.6940700000000002  1.0000
  O   O15       1.0  0.63511  0.09265000000000002  0.6675700000000002  1.0000
  O   O16       1.0  0.64771  0.8845099999999998  0.5759300000000003  1.0000
  O   O17       1.0  0.54705  0.23617  0.5416000000000002  1.0000
  O   O18       1.0  0.055529999999999996  0.30171999999999993  0.58644  1.0000
  O   O19       1.0  0.4378  0.3419  0.16047000000000006  1.0000
  O   O20       1.0  0.95026  0.26112  0.20421  1.0000
  O   O21       1.0  0.88819  0.9132100000000001  0.16213000000000005  1.0000
  O   O22       1.0  0.92334  0.12496999999999996  0.07567  1.0000
  O   O23       1.0  0.98514  0.7668499999999999  0.03869  1.0000
  O   O24       1.0  0.47227  0.69232  0.08192  1.0000
