data_image0
_chemical_formula_structural       Cd4H20C44O16
_chemical_formula_sum              "Cd4 H20 C44 O16"
_cell_length_a       9.43944
_cell_length_b       5.20461
_cell_length_c       19.8255
_cell_angle_alpha    90.48698
_cell_angle_beta     90.08721
_cell_angle_gamma    110.46297

_symmetry_space_group_name_H-M    'P 1'
_symmetry_Int_Tables_number       1

loop_
  _symmetry_equiv_pos_as_xyz
  'x,y,z'

loop_
  _atom_site_type_symbol
  _atom_site_label
  _atom_site_symmetry_multiplicity
  _atom_site_fract_x
  _atom_site_fract_y
  _atom_site_fract_z
  _atom_site_occupancy
  Cd  Cd1       1.0  0.7995599999999999  0.44339  0.29321  1.0000
  Cd  Cd2       1.0  0.20071  0.06252000000000002  0.7965700000000001  1.0000
  Cd  Cd3       1.0  0.20051999999999992  0.5566399999999998  0.70677  1.0000
  Cd  Cd4       1.0  0.79928  0.9374499999999999  0.20342  1.0000
  H   H1        1.0  0.19172999999999998  0.34962  0.9470600000000001  1.0000
  H   H2        1.0  0.46768  0.47558  0.20382  1.0000
  H   H3        1.0  0.25379  0.59569  0.159  1.0000
  H   H4        1.0  0.18146  0.9924999999999999  0.00214  1.0000
  H   H5        1.0  0.4021199999999999  0.87432  0.04524  1.0000
  H   H6        1.0  0.8081  0.15425  0.44980000000000003  1.0000
  H   H7        1.0  0.53456  0.022060000000000003  0.70478  1.0000
  H   H8        1.0  0.75062  0.9032699999999999  0.65967  1.0000
  H   H9        1.0  0.81804  0.50687  0.50513  1.0000
  H   H10       1.0  0.59756  0.61892  0.5491  1.0000
  H   H11       1.0  0.80827  0.65036  0.05293  1.0000
  H   H12       1.0  0.53233  0.5244099999999999  0.79618  1.0000
  H   H13       1.0  0.74621  0.40430000000000005  0.841  1.0000
  H   H14       1.0  0.81853  0.007480000000000002  0.9978600000000001  1.0000
  H   H15       1.0  0.59789  0.12568  0.95475  1.0000
  H   H16       1.0  0.19191  0.8457000000000001  0.55019  1.0000
  H   H17       1.0  0.46548  0.97797  0.29521  1.0000
  H   H18       1.0  0.24939999999999998  0.09669  0.34032  1.0000
  H   H19       1.0  0.18198999999999999  0.49307999999999996  0.49486  1.0000
  H   H20       1.0  0.4025  0.38108  0.45089  1.0000
  C   C1        1.0  0.98852  0.5037  0.07139  1.0000
  C   C2        1.0  0.09633  0.4034  0.04165  1.0000
  C   C3        1.0  0.10321  0.40646  0.97081  1.0000
  C   C4        1.0  0.9486999999999999  0.4823  0.14497  1.0000
  C   C5        1.0  0.45058999999999994  0.16921999999999998  0.12672000000000003  1.0000
  C   C6        1.0  0.40897  0.37444  0.15854000000000001  1.0000
  C   C7        1.0  0.28916  0.44437  0.13313  1.0000
  C   C8        1.0  0.20853  0.31  0.07592  1.0000
  C   C9        1.0  0.24715999999999996  0.09845  0.04546000000000001  1.0000
  C   C10       1.0  0.36879  0.030809999999999997  0.06984  1.0000
  C   C11       1.0  0.5758  0.08751  0.15295  1.0000
  C   C12       1.0  0.01393000000000002  0.99793  0.57159  1.0000
  C   C13       1.0  0.9063799999999999  0.09787  0.54279  1.0000
  C   C14       1.0  0.89636  0.0939  0.47185000000000005  1.0000
  C   C15       1.0  0.05399999999999999  0.008580000000000006  0.6455400000000001  1.0000
  C   C16       1.0  0.55132  0.32301  0.62861  1.0000
  C   C17       1.0  0.59393  0.12132999999999998  0.65999  1.0000
  C   C18       1.0  0.71497  0.0538  0.63476  1.0000
  C   C19       1.0  0.79463  0.19039999999999996  0.57782  1.0000
  C   C20       1.0  0.75451  0.39921  0.54838  1.0000
  C   C21       1.0  0.63199  0.46355999999999997  0.57259  1.0000
  C   C22       1.0  0.42479  0.39923  0.6548000000000002  1.0000
  C   C23       1.0  0.011469999999999984  0.49626999999999993  0.9286000000000001  1.0000
  C   C24       1.0  0.9036699999999999  0.5965799999999999  0.9583400000000001  1.0000
  C   C25       1.0  0.8967899999999999  0.59352  0.029190000000000004  1.0000
  C   C26       1.0  0.05128  0.51765  0.85502  1.0000
  C   C27       1.0  0.54942  0.8307699999999999  0.87327  1.0000
  C   C28       1.0  0.59104  0.62555  0.8414500000000001  1.0000
  C   C29       1.0  0.7108399999999999  0.55561  0.86686  1.0000
  C   C30       1.0  0.79146  0.68998  0.9240700000000001  1.0000
  C   C31       1.0  0.7528499999999999  0.9015199999999999  0.95454  1.0000
  C   C32       1.0  0.63122  0.96918  0.93016  1.0000
  C   C33       1.0  0.4242  0.91245  0.8470400000000001  1.0000
  C   C34       1.0  0.9860999999999999  0.002050000000000001  0.42841  1.0000
  C   C35       1.0  0.09365000000000001  0.9021  0.4572  1.0000
  C   C36       1.0  0.10367  0.90607  0.52815  1.0000
  C   C37       1.0  0.9460299999999999  0.9914399999999999  0.35446  1.0000
  C   C38       1.0  0.44877999999999996  0.6770799999999999  0.37139  1.0000
  C   C39       1.0  0.40611  0.8786799999999999  0.34001  1.0000
  C   C40       1.0  0.28506  0.9461599999999999  0.36524  1.0000
  C   C41       1.0  0.2054  0.80956  0.42217  1.0000
  C   C42       1.0  0.24553  0.60075  0.45161000000000007  1.0000
  C   C43       1.0  0.36808  0.53645  0.42741  1.0000
  C   C44       1.0  0.5753800000000001  0.60104  0.34521  1.0000
  O   O1        1.0  0.85491  0.59402  0.16590000000000002  1.0000
  O   O2        1.0  0.9957599999999999  0.33374  0.18321  1.0000
  O   O3        1.0  0.6397999999999999  0.9662  0.11445  1.0000
  O   O4        1.0  0.61641  0.14042999999999997  0.21569  1.0000
  O   O5        1.0  0.14691  0.89091  0.66292  1.0000
  O   O6        1.0  0.008490000000000004  0.15037  0.68699  1.0000
  O   O7        1.0  0.35748  0.5174799999999999  0.61685  1.0000
  O   O8        1.0  0.38575  0.35110999999999987  0.7173600000000001  1.0000
  O   O9        1.0  0.14505  0.4059  0.83409  1.0000
  O   O10       1.0  0.00422999999999999  0.66624  0.8167900000000001  1.0000
  O   O11       1.0  0.36019999999999996  0.0338  0.88554  1.0000
  O   O12       1.0  0.38355999999999996  0.85951  0.78431  1.0000
  O   O13       1.0  0.8531099999999999  0.10908999999999999  0.33708  1.0000
  O   O14       1.0  0.99157  0.84971  0.313  1.0000
  O   O15       1.0  0.64283  0.48315  0.38317  1.0000
  O   O16       1.0  0.61425  0.6488699999999998  0.28262  1.0000
