data_image0
_chemical_formula_structural       Cd3H12C36O16
_chemical_formula_sum              "Cd3 H12 C36 O16"
_cell_length_a       9.94176
_cell_length_b       10.506470000000002
_cell_length_c       13.480830000000001
_cell_angle_alpha    68.17659
_cell_angle_beta     68.91336
_cell_angle_gamma    77.65409

_space_group_name_H-M_alt    "P 1"
_space_group_IT_number       1

loop_
  _space_group_symop_operation_xyz
  'x, y, z'

loop_
  _atom_site_type_symbol
  _atom_site_label
  _atom_site_symmetry_multiplicity
  _atom_site_fract_x
  _atom_site_fract_y
  _atom_site_fract_z
  _atom_site_occupancy
  Cd  Cd1       1.0  0.011459999999999986  0.31725000000000003  0.75763  1.0000
  Cd  Cd2       1.0  0.9885399999999999  0.68275  0.24237  1.0000
  Cd  Cd3       1.0  0.0  0.0  0.0  1.0000
  H   H1        1.0  0.52863  0.2683899999999999  0.80144  1.0000
  H   H2        1.0  0.5634  0.10214000000000001  0.13629  1.0000
  H   H3        1.0  0.1511  0.13522  0.08403  1.0000
  H   H4        1.0  0.02188999999999993  0.75959  0.7814300000000002  1.0000
  H   H5        1.0  0.13858000000000004  0.74097  0.44695  1.0000
  H   H6        1.0  0.19364999999999993  0.10876999999999998  0.4990900000000001  1.0000
  H   H7        1.0  0.47135999999999995  0.73161  0.19856000000000001  1.0000
  H   H8        1.0  0.4365999999999999  0.8978599999999999  0.86371  1.0000
  H   H9        1.0  0.8489  0.8647799999999998  0.91598  1.0000
  H   H10       1.0  0.9781199999999999  0.24041  0.21857  1.0000
  H   H11       1.0  0.8614200000000001  0.25903  0.55305  1.0000
  H   H12       1.0  0.8063500000000001  0.89123  0.50091  1.0000
  C   C1        1.0  0.33086999999999994  0.20520999999999998  0.9349800000000003  1.0000
  C   C2        1.0  0.4792800000000001  0.22433999999999998  0.89169  1.0000
  C   C3        1.0  0.5628799999999998  0.1849699999999999  0.9647700000000001  1.0000
  C   C4        1.0  0.49746000000000007  0.13265999999999997  0.08063000000000001  1.0000
  C   C5        1.0  0.34837  0.11380999999999998  0.12428000000000002  1.0000
  C   C6        1.0  0.26584  0.14965  0.05025  1.0000
  C   C7        1.0  0.24008999999999991  0.24618999999999988  0.8581400000000002  1.0000
  C   C8        1.0  0.72441  0.19327999999999998  0.92201  1.0000
  C   C9        1.0  0.28414999999999996  0.05320999999999998  0.24068000000000003  1.0000
  C   C10       1.0  0.23208000000000004  0.9958199999999999  0.34227  1.0000
  C   C11       1.0  0.10270000000000003  0.94423  0.64797  1.0000
  C   C12       1.0  0.06295000000000003  0.80904  0.69106  1.0000
  C   C13       1.0  0.07757999999999998  0.73555  0.61843  1.0000
  C   C14       1.0  0.12957999999999997  0.79745  0.50267  1.0000
  C   C15       1.0  0.17517999999999992  0.93226  0.4584700000000001  1.0000
  C   C16       1.0  0.16177  0.004520000000000024  0.53263  1.0000
  C   C17       1.0  0.07523999999999996  0.027289999999999988  0.7250000000000001  1.0000
  C   C18       1.0  0.04103999999999999  0.5894399999999999  0.6663800000000001  1.0000
  C   C19       1.0  0.66912  0.7947899999999999  0.06502  1.0000
  C   C20       1.0  0.52072  0.77566  0.10831000000000002  1.0000
  C   C21       1.0  0.43711  0.8150299999999999  0.03523  1.0000
  C   C22       1.0  0.50254  0.8673399999999998  0.9193800000000001  1.0000
  C   C23       1.0  0.65162  0.8861899999999999  0.8757200000000002  1.0000
  C   C24       1.0  0.7341599999999998  0.85035  0.9497500000000002  1.0000
  C   C25       1.0  0.7599000000000001  0.7538  0.14186  1.0000
  C   C26       1.0  0.27559  0.8067199999999999  0.07799  1.0000
  C   C27       1.0  0.7158299999999997  0.9467799999999998  0.7593400000000002  1.0000
  C   C28       1.0  0.76792  0.0041899999999999715  0.6577200000000001  1.0000
  C   C29       1.0  0.8973000000000001  0.055770000000000014  0.35203  1.0000
  C   C30       1.0  0.9370599999999998  0.19094999999999998  0.30894  1.0000
  C   C31       1.0  0.9224200000000001  0.26444999999999996  0.38157  1.0000
  C   C32       1.0  0.8704100000000001  0.20254999999999998  0.49733  1.0000
  C   C33       1.0  0.82481  0.06774  0.54153  1.0000
  C   C34       1.0  0.8382299999999998  0.9954799999999998  0.46738000000000013  1.0000
  C   C35       1.0  0.92476  0.9727099999999999  0.2750000000000001  1.0000
  C   C36       1.0  0.9589899999999998  0.41054999999999997  0.3336200000000001  1.0000
  O   O1        1.0  0.10871999999999982  0.20769999999999997  0.9021500000000002  1.0000
  O   O2        1.0  0.28762  0.31755  0.75765  1.0000
  O   O3        1.0  0.7793500000000004  0.26119  0.8187200000000001  1.0000
  O   O4        1.0  0.79092  0.13168000000000005  0.99415  1.0000
  O   O5        1.0  0.08791999999999998  0.15548999999999993  0.6747400000000001  1.0000
  O   O6        1.0  0.04056  0.96295  0.8295700000000001  1.0000
  O   O7        1.0  0.9879200000000001  0.5373799999999997  0.7729800000000001  1.0000
  O   O8        1.0  0.06644999999999998  0.5195699999999999  0.6009200000000001  1.0000
  O   O9        1.0  0.89128  0.79229  0.09785  1.0000
  O   O10       1.0  0.7123800000000001  0.6824399999999999  0.24235000000000007  1.0000
  O   O11       1.0  0.22066000000000002  0.7388  0.18128000000000002  1.0000
  O   O12       1.0  0.20906999999999998  0.86832  0.005850000000000002  1.0000
  O   O13       1.0  0.91207  0.8444999999999999  0.32526  1.0000
  O   O14       1.0  0.9594400000000001  0.03704  0.17043  1.0000
  O   O15       1.0  0.012179999999999976  0.4626  0.22702000000000006  1.0000
  O   O16       1.0  0.93354  0.48043  0.39908  1.0000
