data_image0
_chemical_formula_structural       Tb2Zn2H12C30N4O20
_chemical_formula_sum              "Tb2 Zn2 H12 C30 N4 O20"
_cell_length_a       10.06828
_cell_length_b       11.120060000000002
_cell_length_c       9.88652
_cell_angle_alpha    83.99147
_cell_angle_beta     74.62651
_cell_angle_gamma    72.57306

_symmetry_space_group_name_H-M    'P 1'
_symmetry_Int_Tables_number       1

loop_
  _symmetry_equiv_pos_as_xyz
  'x,y,z'

loop_
  _atom_site_type_symbol
  _atom_site_label
  _atom_site_symmetry_multiplicity
  _atom_site_fract_x
  _atom_site_fract_y
  _atom_site_fract_z
  _atom_site_occupancy
  Tb  Tb1       1.0  0.17882999999999996  0.17154  0.04914  1.0000
  Tb  Tb2       1.0  0.8262099999999998  0.83204  0.95097  1.0000
  Zn  Zn1       1.0  0.25717000000000007  0.36038  0.61443  1.0000
  Zn  Zn2       1.0  0.74422  0.63953  0.3833  1.0000
  H   H1        1.0  0.48532999999999993  0.27092  0.35088  1.0000
  H   H2        1.0  0.71288  0.08959999999999999  0.28297  1.0000
  H   H3        1.0  0.80568  0.95263  0.473  1.0000
  H   H4        1.0  0.7785500000000001  0.27505  0.44256999999999996  1.0000
  H   H5        1.0  0.8194000000000001  0.18412  0.67826  1.0000
  H   H6        1.0  0.028739999999999998  0.21179000000000003  0.74971  1.0000
  H   H7        1.0  0.5159699999999998  0.7272  0.64641  1.0000
  H   H8        1.0  0.288  0.90799  0.71521  1.0000
  H   H9        1.0  0.19704  0.04766999999999999  0.52518  1.0000
  H   H10       1.0  0.2214  0.72492  0.55762  1.0000
  H   H11       1.0  0.18138000000000004  0.8166299999999999  0.32173  1.0000
  H   H12       1.0  0.97303  0.7883199999999999  0.24864  1.0000
  C   C1        1.0  0.6939699999999999  0.97111  0.75237  1.0000
  C   C2        1.0  0.6293800000000002  0.04885  0.639  1.0000
  C   C3        1.0  0.50015  0.14604  0.66556  1.0000
  C   C4        1.0  0.5295  0.20477  0.42794  1.0000
  C   C5        1.0  0.65483  0.10562  0.39221  1.0000
  C   C6        1.0  0.7058699999999999  0.0283  0.49854  1.0000
  C   C7        1.0  0.39665  0.16533  0.80648  1.0000
  C   C8        1.0  0.17977999999999997  0.43226  0.35842  1.0000
  C   C9        1.0  0.07672999999999999  0.35857  0.44045  1.0000
  C   C10       1.0  0.9630399999999999  0.34663  0.39167  1.0000
  C   C11       1.0  0.93393  0.40135  0.25288  1.0000
  C   C12       1.0  0.8689100000000001  0.28334  0.47778999999999994  1.0000
  C   C13       1.0  0.89048  0.23321999999999998  0.60793  1.0000
  C   C14       1.0  0.006070000000000017  0.24832999999999997  0.64941  1.0000
  C   C15       1.0  0.9501000000000001  0.01937  0.07348  1.0000
  C   C16       1.0  0.31037999999999993  0.03165  0.2465  1.0000
  C   C17       1.0  0.3742599999999999  0.95298  0.3596  1.0000
  C   C18       1.0  0.50319  0.85556  0.33251  1.0000
  C   C19       1.0  0.4723500000000001  0.7943899999999999  0.56974  1.0000
  C   C20       1.0  0.34686  0.89333  0.60597  1.0000
  C   C21       1.0  0.29689  0.97206  0.49995  1.0000
  C   C22       1.0  0.6070400000000002  0.8376199999999999  0.19158  1.0000
  C   C23       1.0  0.82036  0.56799  0.63967  1.0000
  C   C24       1.0  0.92399  0.64115  0.55767  1.0000
  C   C25       1.0  0.03734000000000004  0.65304  0.60697  1.0000
  C   C26       1.0  0.06582  0.59857  0.74594  1.0000
  C   C27       1.0  0.13142  0.71673  0.52162  1.0000
  C   C28       1.0  0.11024999999999997  0.76718  0.39141  1.0000
  C   C29       1.0  0.99514  0.7518399999999998  0.34918  1.0000
  C   C30       1.0  0.05614000000000004  0.9828199999999999  0.9300999999999999  1.0000
  N   N1        1.0  0.45431  0.22334  0.56215  1.0000
  N   N2        1.0  0.09626  0.30899  0.56696  1.0000
  N   N3        1.0  0.54821  0.77714  0.43548999999999993  1.0000
  N   N4        1.0  0.90492  0.69092  0.43109000000000003  1.0000
  O   O1        1.0  0.42530999999999997  0.09693  0.91071  1.0000
  O   O2        1.0  0.27374  0.24944999999999998  0.81522  1.0000
  O   O3        1.0  0.6997100000000003  0.85455  0.7699  1.0000
  O   O4        1.0  0.7521099999999998  0.02366  0.82031  1.0000
  O   O5        1.0  0.27946000000000004  0.43659  0.41668  1.0000
  O   O6        1.0  0.15857000000000004  0.48383  0.24547  1.0000
  O   O7        1.0  0.007329999999999998  0.34022  0.14244  1.0000
  O   O8        1.0  0.82694  0.49697  0.25184  1.0000
  O   O9        1.0  0.9671300000000002  0.10221  0.1402  1.0000
  O   O10       1.0  0.8531999999999998  0.9624099999999999  0.11253000000000002  1.0000
  O   O11       1.0  0.5802800000000001  0.9093599999999998  0.08901  1.0000
  O   O12       1.0  0.72835  0.7508299999999999  0.18098  1.0000
  O   O13       1.0  0.29996  0.14938  0.23345  1.0000
  O   O14       1.0  0.25700999999999996  0.97851  0.17435  1.0000
  O   O15       1.0  0.7211200000000001  0.56357  0.58072  1.0000
  O   O16       1.0  0.84068  0.51709  0.75309  1.0000
  O   O17       1.0  0.9927200000000003  0.661  0.8555299999999999  1.0000
  O   O18       1.0  0.17224  0.50262  0.7476  1.0000
  O   O19       1.0  0.04025  0.89765  0.8658599999999999  1.0000
  O   O20       1.0  0.15037000000000003  0.042379999999999994  0.8878799999999999  1.0000
