data_image0
_chemical_formula_structural       Cu8H16C36O28
_chemical_formula_sum              "Cu8 H16 C36 O28"
_cell_length_a       10.73315
_cell_length_b       11.9665
_cell_length_c       16.281100000000002
_cell_angle_alpha    89.92037
_cell_angle_beta     95.72726
_cell_angle_gamma    90.04104999999998

_space_group_name_H-M_alt    "P 1"
_space_group_IT_number       1

loop_
  _space_group_symop_operation_xyz
  'x, y, z'

loop_
  _atom_site_type_symbol
  _atom_site_label
  _atom_site_symmetry_multiplicity
  _atom_site_fract_x
  _atom_site_fract_y
  _atom_site_fract_z
  _atom_site_occupancy
  Cu  Cu1       1.0  0.02291  0.61975  0.64285  1.0000
  Cu  Cu2       1.0  0.52281  0.8809699999999999  0.14368  1.0000
  Cu  Cu3       1.0  0.35931  0.01762  0.0198  1.0000
  Cu  Cu4       1.0  0.97709  0.3802499999999999  0.35715  1.0000
  Cu  Cu5       1.0  0.4772  0.11902999999999998  0.85632  1.0000
  Cu  Cu6       1.0  0.6407  0.98238  0.9802100000000002  1.0000
  Cu  Cu7       1.0  0.8595699999999998  0.48214  0.51992  1.0000
  Cu  Cu8       1.0  0.14044  0.51786  0.48008  1.0000
  H   H1        1.0  0.5135799999999999  0.57842  0.5789  1.0000
  H   H2        1.0  0.98409  0.67673  0.4846000000000001  1.0000
  H   H3        1.0  0.01329  0.92129  0.07888000000000003  1.0000
  H   H4        1.0  0.98672  0.07871  0.92113  1.0000
  H   H5        1.0  0.33431  0.79885  0.7395500000000003  1.0000
  H   H6        1.0  0.26315  0.21233  0.24803000000000003  1.0000
  H   H7        1.0  0.23596999999999996  0.71185  0.25232  1.0000
  H   H8        1.0  0.015920000000000004  0.32327  0.5154  1.0000
  H   H9        1.0  0.7368599999999998  0.78767  0.75197  1.0000
  H   H10       1.0  0.51436  0.17658  0.013890000000000003  1.0000
  H   H11       1.0  0.48565  0.8234199999999999  0.98612  1.0000
  H   H12       1.0  0.7640399999999999  0.28815  0.74768  1.0000
  H   H13       1.0  0.16650000000000006  0.29906  0.7600100000000002  1.0000
  H   H14       1.0  0.6656899999999999  0.20115  0.26045  1.0000
  H   H15       1.0  0.8335  0.7009399999999999  0.23999  1.0000
  H   H16       1.0  0.48643  0.42158  0.4211  1.0000
  C   C1        1.0  0.7521799999999998  0.63769  0.62711  1.0000
  C   C2        1.0  0.41068999999999994  0.6801599999999999  0.6582  1.0000
  C   C3        1.0  0.36285999999999996  0.31964  0.33922000000000013  1.0000
  C   C4        1.0  0.25188  0.8620499999999999  0.12728  1.0000
  C   C5        1.0  0.35431  0.2409  0.27518  1.0000
  C   C6        1.0  0.8550099999999999  0.25951  0.7750100000000002  1.0000
  C   C7        1.0  0.9568199999999999  0.39518  0.68461  1.0000
  C   C8        1.0  0.9805799999999998  0.14108  0.8722600000000003  1.0000
  C   C9        1.0  0.5810099999999999  0.23585  0.28164  1.0000
  C   C10       1.0  0.54254  0.8956299999999999  0.81407  1.0000
  C   C11       1.0  0.91834  0.73536  0.21867000000000006  1.0000
  C   C12       1.0  0.9645  0.30385  0.74797  1.0000
  C   C13       1.0  0.46385999999999994  0.19645  0.24845  1.0000
  C   C14       1.0  0.63715  0.68035  0.6607800000000003  1.0000
  C   C15       1.0  0.28574000000000005  0.63422  0.6255800000000002  1.0000
  C   C16       1.0  0.71426  0.36577999999999994  0.3744300000000001  1.0000
  C   C17       1.0  0.08974999999999998  0.18068  0.84175  1.0000
  C   C18       1.0  0.6457  0.7591  0.72483  1.0000
  C   C19       1.0  0.21449999999999997  0.13431  0.8743300000000003  1.0000
  C   C20       1.0  0.13668  0.8191999999999999  0.16083  1.0000
  C   C21       1.0  0.08167000000000003  0.26464  0.7813300000000002  1.0000
  C   C22       1.0  0.14499999999999996  0.74049  0.22499  1.0000
  C   C23       1.0  0.7481299999999999  0.13795  0.8727200000000003  1.0000
  C   C24       1.0  0.48018999999999995  0.35928999999999994  0.3723  1.0000
  C   C25       1.0  0.51982  0.64071  0.62771  1.0000
  C   C26       1.0  0.01943  0.85891  0.12774  1.0000
  C   C27       1.0  0.04319000000000001  0.60482  0.3153900000000001  1.0000
  C   C28       1.0  0.7855  0.8656899999999998  0.12567  1.0000
  C   C29       1.0  0.53614  0.80355  0.75156  1.0000
  C   C30       1.0  0.9102599999999998  0.81932  0.15825000000000006  1.0000
  C   C31       1.0  0.45747  0.10436  0.18593  1.0000
  C   C32       1.0  0.5893199999999998  0.31984  0.3418  1.0000
  C   C33       1.0  0.86333  0.18078999999999998  0.83917  1.0000
  C   C34       1.0  0.03550999999999999  0.6961499999999999  0.25204  1.0000
  C   C35       1.0  0.41899  0.7641499999999999  0.7183700000000002  1.0000
  C   C36       1.0  0.24782  0.36231  0.3729  1.0000
  O   O1        1.0  0.4554299999999999  0.96876  0.80388  1.0000
  O   O2        1.0  0.6430899999999999  0.15535  0.82949  1.0000
  O   O3        1.0  0.3084  0.16758  0.8372700000000002  1.0000
  O   O4        1.0  0.86477  0.39366  0.62888  1.0000
  O   O5        1.0  0.80816  0.33215  0.3375400000000001  1.0000
  O   O6        1.0  0.73727  0.58708  0.55816  1.0000
  O   O7        1.0  0.35692  0.84465  0.17052  1.0000
  O   O8        1.0  0.49699999999999994  0.10942999999999999  0.9811700000000002  1.0000
  O   O9        1.0  0.23716  0.9128199999999999  0.058270000000000016  1.0000
  O   O10       1.0  0.99884  0.39056  0.48270000000000013  1.0000
  O   O11       1.0  0.19184  0.6678499999999999  0.66247  1.0000
  O   O12       1.0  0.63212  0.8936999999999999  0.87143  1.0000
  O   O13       1.0  0.28098999999999996  0.56623  0.5659800000000003  1.0000
  O   O14       1.0  0.9548499999999999  0.5326  0.30768  1.0000
  O   O15       1.0  0.26274  0.41292  0.44184  1.0000
  O   O16       1.0  0.14264999999999997  0.3447799999999999  0.32975  1.0000
  O   O17       1.0  0.54458  0.03124  0.19612000000000004  1.0000
  O   O18       1.0  0.71901  0.43377  0.43402  1.0000
  O   O19       1.0  0.85736  0.65522  0.6702500000000002  1.0000
  O   O20       1.0  0.7628499999999999  0.08718  0.94173  1.0000
  O   O21       1.0  0.78108  0.93384  0.06601  1.0000
  O   O22       1.0  0.36788999999999994  0.10629999999999999  0.12857  1.0000
  O   O23       1.0  0.21893  0.06616  0.93399  1.0000
  O   O24       1.0  0.0011700000000000302  0.60944  0.5173000000000002  1.0000
  O   O25       1.0  0.6916099999999998  0.83242  0.16273  1.0000
  O   O26       1.0  0.13524  0.60634  0.37112  1.0000
  O   O27       1.0  0.5030099999999998  0.89057  0.01883  1.0000
  O   O28       1.0  0.04515999999999997  0.4674  0.69232  1.0000
