data_image0
_chemical_formula_structural       U2H12C24Cl2O12
_chemical_formula_sum              "U2 H12 C24 Cl2 O12"
_cell_length_a       9.83897
_cell_length_b       10.00986
_cell_length_c       12.394720000000001
_cell_angle_alpha    78.41387
_cell_angle_beta     76.60254
_cell_angle_gamma    60.88895

_space_group_name_H-M_alt    "P 1"
_space_group_IT_number       1

loop_
  _space_group_symop_operation_xyz
  'x, y, z'

loop_
  _atom_site_type_symbol
  _atom_site_label
  _atom_site_symmetry_multiplicity
  _atom_site_fract_x
  _atom_site_fract_y
  _atom_site_fract_z
  _atom_site_occupancy
  U   U1        1.0  0.6648899999999999  0.9616400000000003  0.29663  1.0000
  U   U2        1.0  0.3351700000000001  0.038220000000000004  0.70334  1.0000
  H   H1        1.0  0.55511  0.3857  0.32436  1.0000
  H   H2        1.0  0.47181000000000006  0.35147  0.68318  1.0000
  H   H3        1.0  0.9321500000000001  0.77153  0.92391  1.0000
  H   H4        1.0  0.9137000000000001  0.44162  0.2016  1.0000
  H   H5        1.0  0.33999  0.35965  0.03326  1.0000
  H   H6        1.0  0.7329600000000001  0.39559  0.09517  1.0000
  H   H7        1.0  0.44498  0.61426  0.6755  1.0000
  H   H8        1.0  0.5282600000000002  0.6484799999999997  0.31666  1.0000
  H   H9        1.0  0.06791000000000001  0.22848999999999997  0.076  1.0000
  H   H10       1.0  0.08629999999999999  0.55849  0.7982799999999999  1.0000
  H   H11       1.0  0.66007  0.64018  0.96667  1.0000
  H   H12       1.0  0.2671500000000001  0.60425  0.90474  1.0000
  C   C1        1.0  0.5150299999999999  0.35276  0.50439  1.0000
  C   C2        1.0  0.5286  0.1974  0.50918  1.0000
  C   C3        1.0  0.5306699999999999  0.43645000000000006  0.40067  1.0000
  C   C4        1.0  0.4847500000000001  0.4169  0.60367  1.0000
  C   C5        1.0  0.8212399999999997  0.74315  0.14215  1.0000
  C   C6        1.0  0.9144700000000001  0.61764  0.06893  1.0000
  C   C7        1.0  0.96245  0.65251  0.95569  1.0000
  C   C8        1.0  0.95202  0.46525999999999995  0.11337999999999998  1.0000
  C   C9        1.0  0.54103  0.36455  0.0711  1.0000
  C   C10       1.0  0.5879399999999999  0.22126000000000004  0.14777  1.0000
  C   C11       1.0  0.40908000000000005  0.4214  0.01802  1.0000
  C   C12       1.0  0.63137  0.44297  0.05311  1.0000
  C   C13       1.0  0.48499000000000025  0.6472  0.49546  1.0000
  C   C14       1.0  0.47138  0.80258  0.49071  1.0000
  C   C15       1.0  0.46938  0.5635  0.59918  1.0000
  C   C16       1.0  0.5153099999999999  0.5830599999999999  0.39618  1.0000
  C   C17       1.0  0.17879999999999996  0.25681  0.8578100000000001  1.0000
  C   C18       1.0  0.08555  0.38242  0.93098  1.0000
  C   C19       1.0  0.03751999999999998  0.34756  0.04422  1.0000
  C   C20       1.0  0.047960000000000065  0.53482  0.88651  1.0000
  C   C21       1.0  0.45896000000000003  0.63537  0.92892  1.0000
  C   C22       1.0  0.41211999999999993  0.7786  0.85218  1.0000
  C   C23       1.0  0.59089  0.57852  0.98201  1.0000
  C   C24       1.0  0.3686199999999999  0.55696  0.94692  1.0000
  Cl  Cl1       1.0  0.88886  0.82843  0.40904  1.0000
  Cl  Cl2       1.0  0.11130000000000002  0.17150999999999997  0.59081  1.0000
  O   O1        1.0  0.71365  0.16651  0.19075  1.0000
  O   O2        1.0  0.50086  0.15157  0.17411  1.0000
  O   O3        1.0  0.54875  0.14494999999999997  0.41723  1.0000
  O   O4        1.0  0.7484000000000001  0.7169199999999998  0.23862  1.0000
  O   O5        1.0  0.81084  0.87724  0.1122  1.0000
  O   O6        1.0  0.5180800000000001  0.12049  0.60378  1.0000
  O   O7        1.0  0.2864300000000002  0.83333  0.80918  1.0000
  O   O8        1.0  0.49921999999999994  0.8482800000000001  0.8258  1.0000
  O   O9        1.0  0.45118  0.8549899999999999  0.58269  1.0000
  O   O10       1.0  0.2518  0.28283  0.76134  1.0000
  O   O11       1.0  0.18909000000000004  0.12276  0.88781  1.0000
  O   O12       1.0  0.48191  0.87955  0.39615  1.0000
