data_image0
_chemical_formula_structural       Co2H6C6O12
_chemical_formula_sum              "Co2 H6 C6 O12"
_cell_length_a       7.761
_cell_length_b       8.30106
_cell_length_c       8.17885
_cell_angle_alpha    64.62673
_cell_angle_beta     62.29110000000001
_cell_angle_gamma    60.25319

_space_group_name_H-M_alt    "P 1"
_space_group_IT_number       1

loop_
  _space_group_symop_operation_xyz
  'x, y, z'

loop_
  _atom_site_type_symbol
  _atom_site_label
  _atom_site_symmetry_multiplicity
  _atom_site_fract_x
  _atom_site_fract_y
  _atom_site_fract_z
  _atom_site_occupancy
  Co  Co1       1.0  9.999999999879143e-06  0.9999900000000002  2e-05  1.0000
  Co  Co2       1.0  0.49999999999999983  0.4999900000000002  0.50002  1.0000
  H   H1        1.0  0.35021999999999986  0.7629800000000002  0.7322100000000002  1.0000
  H   H2        1.0  0.6498  0.23701  0.26783  1.0000
  H   H3        1.0  0.8454499999999998  0.6572300000000002  0.15899000000000002  1.0000
  H   H4        1.0  0.16538999999999993  0.83505  0.3317  1.0000
  H   H5        1.0  0.15455999999999992  0.3427700000000002  0.84103  1.0000
  H   H6        1.0  0.8346499999999996  0.16494  0.66834  1.0000
  C   C1        1.0  0.20717000000000002  0.76046  0.73865  1.0000
  C   C2        1.0  0.7928599999999997  0.23953  0.26139  1.0000
  C   C3        1.0  0.7453599999999998  0.7552900000000002  0.25318  1.0000
  C   C4        1.0  0.2617799999999999  0.7372000000000002  0.23794  1.0000
  C   C5        1.0  0.25465999999999983  0.24470000000000008  0.74685  1.0000
  C   C6        1.0  0.73824  0.26278  0.7621100000000001  1.0000
  O   O1        1.0  0.7803999999999999  0.9044  0.21300000000000002  1.0000
  O   O2        1.0  0.41445  0.58519  0.27702  1.0000
  O   O3        1.0  0.5970900000000001  0.71739  0.39987  1.0000
  O   O4        1.0  0.22285999999999997  0.77341  0.08809  1.0000
  O   O5        1.0  0.21962000000000004  0.09559000000000001  0.78702  1.0000
  O   O6        1.0  0.58556  0.41479000000000005  0.72303  1.0000
  O   O7        1.0  0.4029200000000001  0.2826100000000001  0.60015  1.0000
  O   O8        1.0  0.7771499999999996  0.2265700000000001  0.91196  1.0000
  O   O9        1.0  0.02879999999999995  0.85717  0.83761  1.0000
  O   O10       1.0  0.21993000000000001  0.66428  0.64367  1.0000
  O   O11       1.0  0.7800900000000001  0.33571000000000006  0.35638  1.0000
  O   O12       1.0  0.9712299999999997  0.14282999999999998  0.16243  1.0000
