data_image0
_chemical_formula_structural       Zn6H6C24O18
_chemical_formula_sum              "Zn6 H6 C24 O18"
_cell_length_a       6.88855
_cell_length_b       15.24271
_cell_length_c       15.25073
_cell_angle_alpha    117.68447
_cell_angle_beta     98.63952999999998
_cell_angle_gamma    98.67083

_symmetry_space_group_name_H-M    'P 1'
_symmetry_Int_Tables_number       1

loop_
  _symmetry_equiv_pos_as_xyz
  'x,y,z'

loop_
  _atom_site_type_symbol
  _atom_site_label
  _atom_site_symmetry_multiplicity
  _atom_site_fract_x
  _atom_site_fract_y
  _atom_site_fract_z
  _atom_site_occupancy
  Zn  Zn1       1.0  0.51996  0.40897999999999995  0.7353599999999999  1.0000
  Zn  Zn2       1.0  0.7858699999999997  0.2652899999999999  0.6745  1.0000
  Zn  Zn3       1.0  0.11127999999999998  0.32611  0.59067  1.0000
  Zn  Zn4       1.0  0.48003999999999997  0.59103  0.26463  1.0000
  Zn  Zn5       1.0  0.21412999999999996  0.73471  0.3255  1.0000
  Zn  Zn6       1.0  0.8887299999999998  0.6738999999999999  0.40931999999999996  1.0000
  H   H1        1.0  0.18833  0.53264  0.55756  1.0000
  H   H2        1.0  0.63093  0.44248  0.97531  1.0000
  H   H3        1.0  0.6558399999999999  0.02525999999999999  0.46749  1.0000
  H   H4        1.0  0.81167  0.46736999999999995  0.44244  1.0000
  H   H5        1.0  0.36908  0.55752  0.02468  1.0000
  H   H6        1.0  0.3441699999999999  0.97474  0.53251  1.0000
  C   C1        1.0  0.7476299999999998  0.39106  0.5622  1.0000
  C   C2        1.0  0.6161899999999999  0.44674  0.5324  1.0000
  C   C3        1.0  0.4362899999999999  0.46504  0.56592  1.0000
  C   C4        1.0  0.32550999999999997  0.51827  0.53239  1.0000
  C   C5        1.0  0.1862899999999999  0.43827999999999995  0.8291499999999999  1.0000
  C   C6        1.0  0.08400999999999993  0.46784999999999993  0.9144599999999999  1.0000
  C   C7        1.0  0.8705399999999998  0.43422  0.89921  1.0000
  C   C8        1.0  0.79323  0.46756  0.98589  1.0000
  C   C9        1.0  0.35682999999999987  0.17092  0.60885  1.0000
  C   C10       1.0  0.16978  0.08537999999999996  0.55322  1.0000
  C   C11       1.0  0.9717800000000001  0.10095000000000004  0.53519  1.0000
  C   C12       1.0  0.80736  0.014440000000000005  0.4819  1.0000
  C   C13       1.0  0.2523799999999999  0.60894  0.4378  1.0000
  C   C14       1.0  0.3838199999999999  0.55326  0.46759  1.0000
  C   C15       1.0  0.56372  0.53497  0.43408  1.0000
  C   C16       1.0  0.6744899999999999  0.48173  0.46761  1.0000
  C   C17       1.0  0.8137199999999999  0.56172  0.17085  1.0000
  C   C18       1.0  0.9159899999999997  0.53215  0.08554  1.0000
  C   C19       1.0  0.12947  0.56579  0.10078  1.0000
  C   C20       1.0  0.20677  0.53244  0.01411  1.0000
  C   C21       1.0  0.6431699999999998  0.82909  0.39113999999999993  1.0000
  C   C22       1.0  0.83023  0.91462  0.44677999999999995  1.0000
  C   C23       1.0  0.028229999999999863  0.89906  0.4648  1.0000
  C   C24       1.0  0.19263999999999987  0.9855599999999998  0.5181  1.0000
  O   O1        1.0  0.6956299999999997  0.35862  0.62162  1.0000
  O   O2        1.0  0.9063299999999997  0.37779  0.52906  1.0000
  O   O3        1.0  0.3650399999999999  0.43477000000000005  0.62884  1.0000
  O   O4        1.0  0.07519999999999998  0.37949  0.73738  1.0000
  O   O5        1.0  0.37842999999999993  0.47092  0.84902  1.0000
  O   O6        1.0  0.7364799999999999  0.3712199999999999  0.8061899999999997  1.0000
  O   O7        1.0  0.3363  0.2626100000000001  0.6413  1.0000
  O   O8        1.0  0.52933  0.15148  0.62208  1.0000
  O   O9        1.0  0.93182  0.19433000000000003  0.56595  1.0000
  O   O10       1.0  0.30438  0.64139  0.37837  1.0000
  O   O11       1.0  0.09367000000000002  0.62222  0.47094  1.0000
  O   O12       1.0  0.6349699999999998  0.56523  0.37115  1.0000
  O   O13       1.0  0.9248099999999999  0.62051  0.26262  1.0000
  O   O14       1.0  0.6215699999999998  0.52909  0.15097  1.0000
  O   O15       1.0  0.2635299999999999  0.6287799999999999  0.19381  1.0000
  O   O16       1.0  0.6637099999999997  0.7373899999999995  0.3587  1.0000
  O   O17       1.0  0.4706799999999999  0.84852  0.37791  1.0000
  O   O18       1.0  0.06818999999999978  0.8056699999999996  0.4340499999999999  1.0000
