data_image0
_chemical_formula_structural       Mg2H20C36N4O8
_chemical_formula_sum              "Mg2 H20 C36 N4 O8"
_cell_length_a       8.55157
_cell_length_b       10.290310000000002
_cell_length_c       10.33692
_cell_angle_alpha    102.82072
_cell_angle_beta     77.94691
_cell_angle_gamma    78.00959

_space_group_name_H-M_alt    "P 1"
_space_group_IT_number       1

loop_
  _space_group_symop_operation_xyz
  'x, y, z'

loop_
  _atom_site_type_symbol
  _atom_site_label
  _atom_site_symmetry_multiplicity
  _atom_site_fract_x
  _atom_site_fract_y
  _atom_site_fract_z
  _atom_site_occupancy
  Mg  Mg1       1.0  0.74901  0.48088000000000003  0.51762  1.0000
  Mg  Mg2       1.0  0.25107  0.51916  0.48245  1.0000
  H   H1        1.0  0.06778999999999998  0.07652000000000003  0.5164400000000001  1.0000
  H   H2        1.0  0.29618  0.86813  0.47602000000000005  1.0000
  H   H3        1.0  0.6124  0.015670000000000017  0.19179000000000004  1.0000
  H   H4        1.0  0.37901  0.22529  0.23368  1.0000
  H   H5        1.0  0.50671  0.7259  0.47364  1.0000
  H   H6        1.0  0.4348  0.48043  0.9234700000000002  1.0000
  H   H7        1.0  0.20728000000000002  0.52397  0.13314000000000004  1.0000
  H   H8        1.0  0.8907900000000001  0.80564  0.9828  1.0000
  H   H9        1.0  0.1251999999999999  0.7633200000000002  0.7741200000000003  1.0000
  H   H10       1.0  0.9967600000000001  0.52525  0.27372  1.0000
  H   H11       1.0  0.93218  0.9235400000000001  0.48359  1.0000
  H   H12       1.0  0.70377  0.13189  0.52399  1.0000
  H   H13       1.0  0.3875599999999999  0.98432  0.8082000000000003  1.0000
  H   H14       1.0  0.6209800000000003  0.77473  0.76633  1.0000
  H   H15       1.0  0.49323  0.27419  0.52648  1.0000
  H   H16       1.0  0.56516  0.51958  0.07664  1.0000
  H   H17       1.0  0.79261  0.47598  0.86692  1.0000
  H   H18       1.0  0.10914999999999998  0.1943  0.01724  1.0000
  H   H19       1.0  0.87476  0.23668000000000003  0.22599000000000002  1.0000
  H   H20       1.0  0.0031600000000000165  0.47479000000000005  0.72639  1.0000
  C   C1        1.0  0.07653999999999998  0.29474000000000006  0.4095400000000001  1.0000
  C   C2        1.0  0.20848  0.16291000000000003  0.37642  1.0000
  C   C3        1.0  0.18631999999999999  0.060960000000000035  0.4434000000000001  1.0000
  C   C4        1.0  0.31656  0.94474  0.4214200000000001  1.0000
  C   C5        1.0  0.47198999999999997  0.92792  0.3308600000000001  1.0000
  C   C6        1.0  0.49238000000000004  0.029199999999999993  0.26171  1.0000
  C   C7        1.0  0.3625399999999999  0.1453  0.28452  1.0000
  C   C8        1.0  0.61586  0.80965  0.30941  1.0000
  C   C9        1.0  0.61491  0.71945  0.39330000000000004  1.0000
  C   C10       1.0  0.4271199999999999  0.58603  0.70618  1.0000
  C   C11       1.0  0.2948699999999999  0.6207400000000001  0.8375300000000001  1.0000
  C   C12       1.0  0.31648000000000004  0.55403  0.93942  1.0000
  C   C13       1.0  0.18655999999999998  0.57724  0.05575  1.0000
  C   C14       1.0  0.031219999999999994  0.66788  0.07182  1.0000
  C   C15       1.0  0.010979999999999943  0.73604  0.9699500000000001  1.0000
  C   C16       1.0  0.14110999999999999  0.71299  0.85439  1.0000
  C   C17       1.0  0.88747  0.68997  0.19005000000000002  1.0000
  C   C18       1.0  0.88858  0.6059199999999999  0.28011  1.0000
  C   C19       1.0  0.92349  0.7053  0.59051  1.0000
  C   C20       1.0  0.79151  0.83713  0.62361  1.0000
  C   C21       1.0  0.81365  0.9390900000000001  0.55664  1.0000
  C   C22       1.0  0.6834  0.05529000000000001  0.5786  1.0000
  C   C23       1.0  0.52796  0.07209999999999998  0.66917  1.0000
  C   C24       1.0  0.5075899999999997  0.9708100000000001  0.7383000000000001  1.0000
  C   C25       1.0  0.63744  0.85473  0.7155  1.0000
  C   C26       1.0  0.38407  0.19037000000000004  0.6906500000000001  1.0000
  C   C27       1.0  0.38502  0.2806  0.60679  1.0000
  C   C28       1.0  0.57281  0.41402  0.29388  1.0000
  C   C29       1.0  0.70513  0.3793  0.16258  1.0000
  C   C30       1.0  0.6834899999999999  0.44599  0.06068  1.0000
  C   C31       1.0  0.81338  0.42273  0.9443300000000001  1.0000
  C   C32       1.0  0.9687000000000001  0.33207000000000003  0.92824  1.0000
  C   C33       1.0  0.9889600000000001  0.26392  0.030120000000000008  1.0000
  C   C34       1.0  0.85887  0.28702  0.14572  1.0000
  C   C35       1.0  0.11245  0.31001  0.81001  1.0000
  C   C36       1.0  0.11133  0.39411  0.71999  1.0000
  N   N1        1.0  0.7516  0.79226  0.20737  1.0000
  N   N2        1.0  0.75175  0.61971  0.37952  1.0000
  N   N3        1.0  0.24833000000000002  0.20772999999999997  0.79267  1.0000
  N   N4        1.0  0.24816999999999995  0.38036  0.6206100000000001  1.0000
  O   O1        1.0  0.92753  0.29978  0.46891  1.0000
  O   O2        1.0  0.11952  0.39847  0.3787300000000001  1.0000
  O   O3        1.0  0.57489  0.52219  0.69991  1.0000
  O   O4        1.0  0.3853  0.61992  0.60373  1.0000
  O   O5        1.0  0.07247  0.70026  0.53116  1.0000
  O   O6        1.0  0.88048  0.60159  0.6213500000000001  1.0000
  O   O7        1.0  0.42504  0.47783  0.30011  1.0000
  O   O8        1.0  0.61458  0.3802  0.3963800000000001  1.0000
