data_image0
_chemical_formula_structural       Gd2H24C18S6O12
_chemical_formula_sum              "Gd2 H24 C18 S6 O12"
_cell_length_a       8.87008
_cell_length_b       10.64172
_cell_length_c       11.459310000000002
_cell_angle_alpha    73.83310999999999
_cell_angle_beta     68.6536
_cell_angle_gamma    80.41372

_symmetry_space_group_name_H-M    'P 1'
_symmetry_Int_Tables_number       1

loop_
  _symmetry_equiv_pos_as_xyz
  'x,y,z'

loop_
  _atom_site_type_symbol
  _atom_site_label
  _atom_site_symmetry_multiplicity
  _atom_site_fract_x
  _atom_site_fract_y
  _atom_site_fract_z
  _atom_site_occupancy
  Gd  Gd1       1.0  0.7324899999999999  0.47470999999999997  0.9995800000000001  1.0000
  Gd  Gd2       1.0  0.26751  0.5252799999999999  0.00042  1.0000
  H   H1        1.0  0.2189500000000001  0.7525199999999999  0.68891  1.0000
  H   H2        1.0  0.05823999999999992  0.8756699999999998  0.7274700000000001  1.0000
  H   H3        1.0  0.02924999999999997  0.5483  0.64087  1.0000
  H   H4        1.0  0.03902999999999994  0.61132  0.47851000000000005  1.0000
  H   H5        1.0  0.32448999999999995  0.59251  0.5802600000000001  1.0000
  H   H6        1.0  0.33962  0.64361  0.41673  1.0000
  H   H7        1.0  0.2735000000000002  0.3239599999999999  0.34891000000000005  1.0000
  H   H8        1.0  0.21163000000000004  0.48933  0.33102  1.0000
  H   H9        1.0  0.83915  0.06958999999999999  0.07263000000000001  1.0000
  H   H10       1.0  0.87245  0.8987  0.08113000000000001  1.0000
  H   H11       1.0  0.025539999999999913  0.18051999999999993  0.7431400000000002  1.0000
  H   H12       1.0  0.8409500000000001  0.19474999999999998  0.71337  1.0000
  H   H13       1.0  0.78105  0.24746999999999994  0.3111  1.0000
  H   H14       1.0  0.94177  0.12431999999999997  0.27253  1.0000
  H   H15       1.0  0.97075  0.4516899999999999  0.35913  1.0000
  H   H16       1.0  0.9609700000000001  0.38867  0.52149  1.0000
  H   H17       1.0  0.6755100000000004  0.40747999999999995  0.41975  1.0000
  H   H18       1.0  0.6603900000000004  0.35638999999999993  0.58327  1.0000
  H   H19       1.0  0.7265000000000001  0.6760399999999998  0.6510900000000001  1.0000
  H   H20       1.0  0.7883699999999999  0.51067  0.6689800000000001  1.0000
  H   H21       1.0  0.16086000000000014  0.9304099999999994  0.9273700000000001  1.0000
  H   H22       1.0  0.12755999999999992  0.10128999999999999  0.9188700000000001  1.0000
  H   H23       1.0  0.97447  0.8194799999999999  0.25686  1.0000
  H   H24       1.0  0.15905000000000002  0.80525  0.28663  1.0000
  C   C1        1.0  0.9983700000000002  0.6844399999999999  0.8347200000000001  1.0000
  C   C2        1.0  0.08820000000000003  0.77642  0.70893  1.0000
  C   C3        1.0  0.09021999999999998  0.61747  0.55089  1.0000
  C   C4        1.0  0.27262000000000003  0.5822499999999999  0.51009  1.0000
  C   C5        1.0  0.31021000000000004  0.41801  0.3492  1.0000
  C   C6        1.0  0.45960000000000006  0.45197999999999994  0.23303000000000001  1.0000
  C   C7        1.0  0.90868  0.99568  0.0194  1.0000
  C   C8        1.0  0.89391  0.17447999999999997  0.79083  1.0000
  C   C9        1.0  0.83099  0.2829499999999999  0.86287  1.0000
  C   C10       1.0  0.0016399999999999815  0.31556  0.16529000000000002  1.0000
  C   C11       1.0  0.9118  0.22357  0.29108000000000006  1.0000
  C   C12       1.0  0.9097899999999999  0.3825299999999999  0.44911000000000006  1.0000
  C   C13       1.0  0.72738  0.4177499999999997  0.4899100000000001  1.0000
  C   C14       1.0  0.6897900000000001  0.58199  0.6508  1.0000
  C   C15       1.0  0.5403999999999999  0.54802  0.76697  1.0000
  C   C16       1.0  0.09131999999999996  0.004320000000000024  0.9806  1.0000
  C   C17       1.0  0.10609000000000003  0.8255199999999999  0.20918000000000003  1.0000
  C   C18       1.0  0.16901000000000002  0.71705  0.13713  1.0000
  S   S1        1.0  0.8380400000000001  0.010689999999999965  0.8847000000000002  1.0000
  S   S2        1.0  0.31988  0.40926  0.50573  1.0000
  S   S3        1.0  0.029990000000000048  0.7850799999999999  0.57055  1.0000
  S   S4        1.0  0.16196000000000002  0.9892999999999997  0.11530000000000003  1.0000
  S   S5        1.0  0.68013  0.59074  0.49428  1.0000
  S   S6        1.0  0.9700200000000001  0.21491999999999994  0.4294500000000001  1.0000
  O   O1        1.0  0.9090800000000004  0.3868699999999999  0.81868  1.0000
  O   O2        1.0  0.70489  0.2724  0.96432  1.0000
  O   O3        1.0  0.59226  0.4791899999999999  0.2335  1.0000
  O   O4        1.0  0.8517000000000001  0.6629399999999999  0.8601300000000001  1.0000
  O   O5        1.0  0.07550000000000005  0.6332599999999999  0.91378  1.0000
  O   O6        1.0  0.44715  0.45038999999999996  0.12317  1.0000
  O   O7        1.0  0.09091999999999999  0.6131299999999998  0.18133000000000002  1.0000
  O   O8        1.0  0.29511  0.7276  0.03569  1.0000
  O   O9        1.0  0.4077399999999999  0.5207999999999999  0.7665000000000001  1.0000
  O   O10       1.0  0.1483000000000001  0.33706  0.13987  1.0000
  O   O11       1.0  0.9245  0.3667399999999999  0.08623000000000001  1.0000
  O   O12       1.0  0.5528499999999998  0.5496099999999999  0.87683  1.0000
