data_image0
_chemical_formula_structural       Mg4P2H2C8O24
_chemical_formula_sum              "Mg4 P2 H2 C8 O24"
_cell_length_a       7.77675
_cell_length_b       8.81343
_cell_length_c       10.67996
_cell_angle_alpha    85.21621
_cell_angle_beta     114.29756
_cell_angle_gamma    104.73584

_symmetry_space_group_name_H-M    'P 1'
_symmetry_Int_Tables_number       1

loop_
  _symmetry_equiv_pos_as_xyz
  'x,y,z'

loop_
  _atom_site_type_symbol
  _atom_site_label
  _atom_site_symmetry_multiplicity
  _atom_site_fract_x
  _atom_site_fract_y
  _atom_site_fract_z
  _atom_site_occupancy
  Mg  Mg1       1.0  0.27783  0.45157  0.9323199999999999  1.0000
  Mg  Mg2       1.0  0.22430000000000003  0.30415  0.58125  1.0000
  Mg  Mg3       1.0  0.74653  0.57656  0.07264  1.0000
  Mg  Mg4       1.0  0.8021999999999997  0.7096399999999998  0.42888  1.0000
  P   P1        1.0  0.4212099999999999  0.55493  0.7361499999999999  1.0000
  P   P2        1.0  0.60389  0.46286  0.26824999999999993  1.0000
  H   H1        1.0  0.30779  0.762  0.63489  1.0000
  H   H2        1.0  0.71827  0.25504  0.36809  1.0000
  C   C1        1.0  0.05360999999999987  0.6054199999999998  0.9974699999999999  1.0000
  C   C2        1.0  0.5444499999999999  0.8841199999999998  0.11789999999999999  1.0000
  C   C3        1.0  0.91815  0.03552  0.46568000000000004  1.0000
  C   C4        1.0  0.21717999999999996  0.57472  0.36897  1.0000
  C   C5        1.0  0.9687  0.42486  0.00389  1.0000
  C   C6        1.0  0.49189  0.13836  0.88811  1.0000
  C   C7        1.0  0.10853999999999996  0.97933  0.54357  1.0000
  C   C8        1.0  0.80203  0.43285  0.63458  1.0000
  O   O1        1.0  0.20895999999999992  0.4561899999999999  0.71414  1.0000
  O   O2        1.0  0.49752  0.44989  0.67507  1.0000
  O   O3        1.0  0.5240499999999999  0.5905199999999998  0.8916199999999999  1.0000
  O   O4        1.0  0.4153199999999999  0.7111599999999998  0.65059  1.0000
  O   O5        1.0  0.1918099999999999  0.64396  0.9577299999999999  1.0000
  O   O6        1.0  0.9774499999999999  0.6968099999999998  0.03202  1.0000
  O   O7        1.0  0.43329999999999996  0.9546199999999999  0.11232  1.0000
  O   O8        1.0  0.6621  0.81706  0.12534  1.0000
  O   O9        1.0  0.93584  0.18310999999999994  0.46717999999999993  1.0000
  O   O10       1.0  0.76348  0.9312599999999999  0.40723  1.0000
  O   O11       1.0  0.19037000000000004  0.44084  0.39927  1.0000
  O   O12       1.0  0.23463999999999996  0.7052999999999999  0.33702  1.0000
  O   O13       1.0  0.81697  0.56081  0.29206  1.0000
  O   O14       1.0  0.52846  0.56603  0.33198  1.0000
  O   O15       1.0  0.4996499999999999  0.43247999999999986  0.11212  1.0000
  O   O16       1.0  0.60822  0.30364  0.34994  1.0000
  O   O17       1.0  0.8312299999999999  0.38587  0.04413999999999999  1.0000
  O   O18       1.0  0.043479999999999776  0.33302  0.96848  1.0000
  O   O19       1.0  0.6030499999999998  0.06775  0.89366  1.0000
  O   O20       1.0  0.37429999999999997  0.20526  0.8808699999999999  1.0000
  O   O21       1.0  0.09064000000000001  0.83159  0.54381  1.0000
  O   O22       1.0  0.26417  0.08339  0.59984  1.0000
  O   O23       1.0  0.83413  0.56749  0.60723  1.0000
  O   O24       1.0  0.77953  0.30128  0.66348  1.0000
