data_image0
_chemical_formula_structural       Ca4H12C28N4O16
_chemical_formula_sum              "Ca4 H12 C28 N4 O16"
_cell_length_a       6.45325
_cell_length_b       11.26538
_cell_length_c       16.04948
_cell_angle_alpha    89.98288000000001
_cell_angle_beta     101.16873000000001
_cell_angle_gamma    89.94094000000001

_space_group_name_H-M_alt    "P 1"
_space_group_IT_number       1

loop_
  _space_group_symop_operation_xyz
  'x, y, z'

loop_
  _atom_site_type_symbol
  _atom_site_label
  _atom_site_symmetry_multiplicity
  _atom_site_fract_x
  _atom_site_fract_y
  _atom_site_fract_z
  _atom_site_occupancy
  Ca  Ca1       1.0  0.24262999999999993  0.9440099999999999  0.94614  1.0000
  Ca  Ca2       1.0  0.25745  0.44286  0.55358  1.0000
  Ca  Ca3       1.0  0.75738  0.055979999999999995  0.05386000000000001  1.0000
  Ca  Ca4       1.0  0.74257  0.55713  0.44642  1.0000
  H   H1        1.0  0.5360200000000002  0.7105199999999999  0.7690200000000003  1.0000
  H   H2        1.0  0.29043000000000013  0.77705  0.7741800000000002  1.0000
  H   H3        1.0  0.69519  0.62461  0.65285  1.0000
  H   H4        1.0  0.96493  0.21002999999999994  0.73156  1.0000
  H   H5        1.0  0.21067000000000005  0.27789  0.72666  1.0000
  H   H6        1.0  0.8059700000000001  0.12543  0.8481300000000003  1.0000
  H   H7        1.0  0.464  0.28947  0.23098  1.0000
  H   H8        1.0  0.70959  0.22294999999999998  0.22582  1.0000
  H   H9        1.0  0.3048199999999999  0.37537999999999994  0.34715  1.0000
  H   H10       1.0  0.035089999999999996  0.78996  0.26844  1.0000
  H   H11       1.0  0.78935  0.7221099999999999  0.27334  1.0000
  H   H12       1.0  0.19403999999999996  0.87457  0.15187  1.0000
  C   C1        1.0  0.005340000000000015  0.6934799999999999  0.70411  1.0000
  C   C2        1.0  0.82562  0.79756  0.82781  1.0000
  C   C3        1.0  0.70141  0.7264  0.76721  1.0000
  C   C4        1.0  0.12175000000000007  0.76164  0.76967  1.0000
  C   C5        1.0  0.78989  0.67672  0.70311  1.0000
  C   C6        1.0  0.10442999999999998  0.6321299999999999  0.63894  1.0000
  C   C7        1.0  0.7306099999999999  0.86567  0.89241  1.0000
  C   C8        1.0  0.49555  0.19375  0.79627  1.0000
  C   C9        1.0  0.67475  0.29639  0.67202  1.0000
  C   C10       1.0  0.79939  0.22594999999999998  0.73314  1.0000
  C   C11       1.0  0.37906  0.2619  0.73064  1.0000
  C   C12       1.0  0.7111100000000002  0.17694  0.7975000000000002  1.0000
  C   C13       1.0  0.39584  0.13256  0.86125  1.0000
  C   C14       1.0  0.76975  0.36361  0.60704  1.0000
  C   C15       1.0  0.99467  0.30651  0.29589  1.0000
  C   C16       1.0  0.1744  0.20243999999999998  0.17219  1.0000
  C   C17       1.0  0.29861  0.2736  0.23279000000000005  1.0000
  C   C18       1.0  0.87826  0.23836  0.23033  1.0000
  C   C19       1.0  0.21013  0.32327  0.29689  1.0000
  C   C20       1.0  0.89559  0.36786  0.36106  1.0000
  C   C21       1.0  0.26941000000000004  0.13432  0.10759000000000003  1.0000
  C   C22       1.0  0.50447  0.8062399999999998  0.20373  1.0000
  C   C23       1.0  0.32526999999999995  0.7036  0.32798  1.0000
  C   C24       1.0  0.20063  0.7740399999999998  0.26686  1.0000
  C   C25       1.0  0.62096  0.7380999999999999  0.26936  1.0000
  C   C26       1.0  0.2889  0.82305  0.20250000000000007  1.0000
  C   C27       1.0  0.60418  0.8674399999999999  0.13875  1.0000
  C   C28       1.0  0.23026  0.63639  0.39296  1.0000
  N   N1        1.0  0.03556000000000001  0.81351  0.82987  1.0000
  N   N2        1.0  0.46491999999999994  0.31296  0.67006  1.0000
  N   N3        1.0  0.96446  0.18649  0.17013  1.0000
  N   N4        1.0  0.5351  0.68704  0.32994  1.0000
  O   O1        1.0  0.86251  0.92693  0.94641  1.0000
  O   O2        1.0  0.5336400000000002  0.86048  0.8873700000000002  1.0000
  O   O3        1.0  0.29352  0.59605  0.65938  1.0000
  O   O4        1.0  0.98823  0.61221  0.56608  1.0000
  O   O5        1.0  0.63787  0.42435  0.5525000000000002  1.0000
  O   O6        1.0  0.9669  0.35831  0.61248  1.0000
  O   O7        1.0  0.20564000000000007  0.09847999999999998  0.84096  1.0000
  O   O8        1.0  0.512  0.11029999999999998  0.93373  1.0000
  O   O9        1.0  0.13751  0.07306  0.05359000000000001  1.0000
  O   O10       1.0  0.46638  0.13952  0.11263  1.0000
  O   O11       1.0  0.7065  0.40395  0.34062  1.0000
  O   O12       1.0  0.01178  0.38777999999999996  0.43392  1.0000
  O   O13       1.0  0.36215  0.5756499999999999  0.4475000000000001  1.0000
  O   O14       1.0  0.03311  0.6416799999999999  0.38752  1.0000
  O   O15       1.0  0.7943799999999999  0.90151  0.15904  1.0000
  O   O16       1.0  0.48801  0.8896999999999999  0.06627  1.0000
