data_image0
_chemical_formula_structural       Ag4H48C24N16
_chemical_formula_sum              "Ag4 H48 C24 N16"
_cell_length_a       9.07324
_cell_length_b       9.07325
_cell_length_c       9.07318
_cell_angle_alpha    89.95394999999999
_cell_angle_beta     89.95398
_cell_angle_gamma    89.95398

_symmetry_space_group_name_H-M    'P 1'
_symmetry_Int_Tables_number       1

loop_
  _symmetry_equiv_pos_as_xyz
  'x,y,z'

loop_
  _atom_site_type_symbol
  _atom_site_label
  _atom_site_symmetry_multiplicity
  _atom_site_fract_x
  _atom_site_fract_y
  _atom_site_fract_z
  _atom_site_occupancy
  Ag  Ag1       1.0  0.76428  0.23522999999999997  0.73477  1.0000
  Ag  Ag2       1.0  0.7347699999999998  0.7642699999999998  0.23522999999999997  1.0000
  Ag  Ag3       1.0  0.23523  0.73477  0.7642699999999998  1.0000
  Ag  Ag4       1.0  0.26542  0.26542  0.26542  1.0000
  H   H1        1.0  0.65775  0.8253099999999998  0.49872999999999995  1.0000
  H   H2        1.0  0.51435  0.8366899999999999  0.6354799999999999  1.0000
  H   H3        1.0  0.90962  0.88028  0.56928  1.0000
  H   H4        1.0  0.9492599999999999  0.9349799999999999  0.75471  1.0000
  H   H5        1.0  0.84311  0.17639999999999995  0.99785  1.0000
  H   H6        1.0  0.98636  0.16438  0.13471  1.0000
  H   H7        1.0  0.59141  0.121  0.06793  1.0000
  H   H8        1.0  0.55122  0.06559  0.2531  1.0000
  H   H9        1.0  0.34275  0.32479  0.0018  1.0000
  H   H10       1.0  0.4859899999999999  0.33661  0.86497  1.0000
  H   H11       1.0  0.09030999999999999  0.379  0.93136  1.0000
  H   H12       1.0  0.05043  0.43382  0.74597  1.0000
  H   H13       1.0  0.15798  0.6753599999999998  0.50216  1.0000
  H   H14       1.0  0.013909999999999999  0.66431  0.36622  1.0000
  H   H15       1.0  0.40959999999999996  0.61992  0.43042  1.0000
  H   H16       1.0  0.4484299999999999  0.56569  0.24474999999999997  1.0000
  H   H17       1.0  0.49873  0.6577499999999997  0.8253099999999998  1.0000
  H   H18       1.0  0.63548  0.51435  0.8366899999999999  1.0000
  H   H19       1.0  0.56927  0.9096199999999999  0.88027  1.0000
  H   H20       1.0  0.7547  0.94926  0.9349800000000001  1.0000
  H   H21       1.0  0.9978499999999999  0.8431099999999998  0.1764  1.0000
  H   H22       1.0  0.13471  0.9863499999999998  0.16437  1.0000
  H   H23       1.0  0.06793  0.59141  0.121  1.0000
  H   H24       1.0  0.2531  0.55121  0.06558  1.0000
  H   H25       1.0  0.0018099999999999998  0.34274  0.32478999999999997  1.0000
  H   H26       1.0  0.86498  0.48599  0.33660999999999996  1.0000
  H   H27       1.0  0.9313699999999999  0.0903  0.37899  1.0000
  H   H28       1.0  0.74598  0.050419999999999986  0.43381  1.0000
  H   H29       1.0  0.50216  0.15798  0.6753599999999997  1.0000
  H   H30       1.0  0.36621999999999993  0.01391  0.66431  1.0000
  H   H31       1.0  0.43043  0.4096  0.61992  1.0000
  H   H32       1.0  0.24475999999999998  0.44844  0.56569  1.0000
  H   H33       1.0  0.82531  0.49874  0.65775  1.0000
  H   H34       1.0  0.8366899999999999  0.63548  0.51435  1.0000
  H   H35       1.0  0.88027  0.56928  0.9096199999999999  1.0000
  H   H36       1.0  0.93498  0.7547099999999999  0.94926  1.0000
  H   H37       1.0  0.17639999999999995  0.9978599999999999  0.84311  1.0000
  H   H38       1.0  0.16437999999999994  0.13471  0.9863499999999998  1.0000
  H   H39       1.0  0.12100999999999999  0.06794  0.59141  1.0000
  H   H40       1.0  0.06559  0.2531  0.5512099999999998  1.0000
  H   H41       1.0  0.3247899999999999  0.0017999999999999997  0.3427399999999999  1.0000
  H   H42       1.0  0.33661  0.86497  0.4859899999999999  1.0000
  H   H43       1.0  0.3789899999999999  0.93137  0.09029  1.0000
  H   H44       1.0  0.43381  0.74598  0.05041  1.0000
  H   H45       1.0  0.6753599999999998  0.50215  0.15797999999999998  1.0000
  H   H46       1.0  0.66431  0.36621999999999993  0.013909999999999999  1.0000
  H   H47       1.0  0.61992  0.4304199999999999  0.4096  1.0000
  H   H48       1.0  0.5656999999999998  0.24476  0.44843999999999995  1.0000
  C   C1        1.0  0.631  0.8089799999999999  0.61663  1.0000
  C   C2        1.0  0.8798  0.86393  0.6854799999999998  1.0000
  C   C3        1.0  0.8698299999999998  0.19218  0.11576  1.0000
  C   C4        1.0  0.62093  0.13678  0.18425  1.0000
  C   C5        1.0  0.3695  0.30855  0.88394  1.0000
  C   C6        1.0  0.12023  0.36286  0.81515  1.0000
  C   C7        1.0  0.13057999999999995  0.69182  0.3844599999999999  1.0000
  C   C8        1.0  0.37921  0.63656  0.3144199999999999  1.0000
  C   C9        1.0  0.61664  0.6309999999999999  0.8089799999999999  1.0000
  C   C10       1.0  0.6854799999999998  0.8797999999999998  0.86393  1.0000
  C   C11       1.0  0.11576  0.86983  0.19218  1.0000
  C   C12       1.0  0.18424999999999994  0.62093  0.13678  1.0000
  C   C13       1.0  0.8839399999999998  0.36949  0.30855  1.0000
  C   C14       1.0  0.8151599999999998  0.12021999999999998  0.36285  1.0000
  C   C15       1.0  0.38446  0.13057999999999997  0.69182  1.0000
  C   C16       1.0  0.31443  0.37921  0.6365599999999999  1.0000
  C   C17       1.0  0.80898  0.61664  0.63099  1.0000
  C   C18       1.0  0.86393  0.68548  0.8797999999999998  1.0000
  C   C19       1.0  0.19218  0.11577  0.86983  1.0000
  C   C20       1.0  0.13679  0.18426  0.62093  1.0000
  C   C21       1.0  0.30855  0.88394  0.36948999999999993  1.0000
  C   C22       1.0  0.36285  0.8151499999999998  0.12022000000000001  1.0000
  C   C23       1.0  0.69182  0.38446  0.13058  1.0000
  C   C24       1.0  0.63657  0.31443  0.37921  1.0000
  N   N1        1.0  0.7242599999999998  0.9059899999999999  0.70786  1.0000
  N   N2        1.0  0.7764899999999998  0.09473  0.20671  1.0000
  N   N3        1.0  0.2756699999999999  0.4053199999999999  0.79266  1.0000
  N   N4        1.0  0.22353  0.5947  0.29275  1.0000
  N   N5        1.0  0.70786  0.7242599999999999  0.90599  1.0000
  N   N6        1.0  0.20670999999999995  0.77649  0.09473  1.0000
  N   N7        1.0  0.7926699999999998  0.27566  0.40531999999999996  1.0000
  N   N8        1.0  0.2927599999999999  0.22354  0.5947  1.0000
  N   N9        1.0  0.90599  0.7078599999999999  0.72426  1.0000
  N   N10       1.0  0.09473999999999999  0.20672  0.77649  1.0000
  N   N11       1.0  0.40532  0.7926599999999998  0.27566  1.0000
  N   N12       1.0  0.5947  0.29275  0.22354  1.0000
  N   N13       1.0  0.65147  0.6514699999999999  0.65146  1.0000
  N   N14       1.0  0.8493299999999999  0.34958999999999996  0.15096999999999997  1.0000
  N   N15       1.0  0.3495899999999999  0.15097  0.84933  1.0000
  N   N16       1.0  0.15097  0.84933  0.34958999999999996  1.0000
