data_image0
_chemical_formula_structural       Er4H12C36O24
_chemical_formula_sum              "Er4 H12 C36 O24"
_cell_length_a       10.28054
_cell_length_b       10.29111
_cell_length_c       14.30529
_cell_angle_alpha    89.92294999999999
_cell_angle_beta     90.03983
_cell_angle_gamma    90.19237

_symmetry_space_group_name_H-M    'P 1'
_symmetry_Int_Tables_number       1

loop_
  _symmetry_equiv_pos_as_xyz
  'x,y,z'

loop_
  _atom_site_type_symbol
  _atom_site_label
  _atom_site_symmetry_multiplicity
  _atom_site_fract_x
  _atom_site_fract_y
  _atom_site_fract_z
  _atom_site_occupancy
  Er  Er1       1.0  0.35906  0.64167  0.87581  1.0000
  Er  Er2       1.0  0.64091  0.35836  0.37579  1.0000
  Er  Er3       1.0  0.35824  0.3574  0.6270399999999998  1.0000
  Er  Er4       1.0  0.63936  0.64243  0.12512  1.0000
  H   H1        1.0  0.42019  0.04369  0.8610499999999998  1.0000
  H   H2        1.0  0.57857  0.95734  0.36068  1.0000
  H   H3        1.0  0.95701  0.42017000000000004  0.6117999999999998  1.0000
  H   H4        1.0  0.04177  0.58065  0.11161999999999997  1.0000
  H   H5        1.0  0.5798  0.04397  0.13986  1.0000
  H   H6        1.0  0.42004  0.95563  0.63963  1.0000
  H   H7        1.0  0.0416  0.42039  0.39029999999999987  1.0000
  H   H8        1.0  0.9590400000000001  0.5814200000000002  0.8899799999999998  1.0000
  H   H9        1.0  0.4995  0.40545  0.00052  1.0000
  H   H10       1.0  0.5001300000000001  0.59477  0.50015  1.0000
  H   H11       1.0  0.59598  0.50128  0.7516  1.0000
  H   H12       1.0  0.40391  0.49884  0.25045  1.0000
  C   C1        1.0  0.41224999999999995  0.30733  0.83858  1.0000
  C   C2        1.0  0.45438  0.09664000000000003  0.9221099999999998  1.0000
  C   C3        1.0  0.45516000000000006  0.23265  0.9220599999999999  1.0000
  C   C4        1.0  0.58734  0.69292  0.33801999999999993  1.0000
  C   C5        1.0  0.54447  0.90392  0.42162  1.0000
  C   C6        1.0  0.54417  0.76782  0.4214499999999999  1.0000
  C   C7        1.0  0.69132  0.41231  0.5903499999999998  1.0000
  C   C8        1.0  0.90428  0.45516  0.67264  1.0000
  C   C9        1.0  0.76817  0.45601  0.6728899999999999  1.0000
  C   C10       1.0  0.30608  0.58741  0.0883  1.0000
  C   C11       1.0  0.09495  0.5458500000000001  0.1724  1.0000
  C   C12       1.0  0.23113  0.54446  0.17199999999999993  1.0000
  C   C13       1.0  0.58755  0.30768  0.16257  1.0000
  C   C14       1.0  0.54492  0.09693000000000002  0.07904  1.0000
  C   C15       1.0  0.5443700000000001  0.23282  0.07914999999999997  1.0000
  C   C16       1.0  0.4124900000000001  0.6922  0.6624099999999998  1.0000
  C   C17       1.0  0.45458  0.903  0.5786899999999999  1.0000
  C   C18       1.0  0.45554  0.76711  0.57883  1.0000
  C   C19       1.0  0.30638  0.41006  0.4125999999999999  1.0000
  C   C20       1.0  0.09474000000000002  0.45497  0.32935  1.0000
  C   C21       1.0  0.231  0.45489000000000007  0.32942  1.0000
  C   C22       1.0  0.69386  0.59054  0.9126299999999998  1.0000
  C   C23       1.0  0.90541  0.54673  0.8293199999999997  1.0000
  C   C24       1.0  0.76924  0.54637  0.82973  1.0000
  C   C25       1.0  0.4996900000000001  0.8842200000000001  0.00139  1.0000
  C   C26       1.0  0.49934  0.02905  0.0006799999999999998  1.0000
  C   C27       1.0  0.49968000000000007  0.30004  0.00058  1.0000
  C   C28       1.0  0.49933  0.11622  0.50135  1.0000
  C   C29       1.0  0.49942  0.97125  0.5002099999999999  1.0000
  C   C30       1.0  0.49999  0.7002  0.50016  1.0000
  C   C31       1.0  0.11771  0.50024  0.75053  1.0000
  C   C32       1.0  0.97264  0.50075  0.75086  1.0000
  C   C33       1.0  0.7015  0.5012700000000001  0.75144  1.0000
  C   C34       1.0  0.88151  0.50064  0.25041  1.0000
  C   C35       1.0  0.02689  0.50081  0.25092  1.0000
  C   C36       1.0  0.29836  0.49946  0.25062  1.0000
  O   O1        1.0  0.41614  0.8263  0.9498499999999998  1.0000
  O   O2        1.0  0.39036  0.42857000000000006  0.8472499999999997  1.0000
  O   O3        1.0  0.40179  0.24693  0.7607799999999998  1.0000
  O   O4        1.0  0.58294  0.17408  0.44974999999999987  1.0000
  O   O5        1.0  0.60944  0.57177  0.3473799999999999  1.0000
  O   O6        1.0  0.59768  0.75281  0.25986  1.0000
  O   O7        1.0  0.17356  0.41553  0.69936  1.0000
  O   O8        1.0  0.57053  0.38969999999999994  0.6016699999999998  1.0000
  O   O9        1.0  0.74825  0.40222  0.51129  1.0000
  O   O10       1.0  0.8251600000000001  0.58483  0.19899  1.0000
  O   O11       1.0  0.42767  0.60952  0.09743  1.0000
  O   O12       1.0  0.24670000000000003  0.59783  0.01007  1.0000
  O   O13       1.0  0.58399  0.83008  0.054069999999999986  1.0000
  O   O14       1.0  0.60958  0.42892  0.15283999999999995  1.0000
  O   O15       1.0  0.59777  0.24777  0.24062999999999996  1.0000
  O   O16       1.0  0.41594  0.1705  0.5545  1.0000
  O   O17       1.0  0.39011000000000007  0.57108  0.65291  1.0000
  O   O18       1.0  0.40234000000000003  0.75201  0.74048  1.0000
  O   O19       1.0  0.8251200000000001  0.41550000000000004  0.30145  1.0000
  O   O20       1.0  0.42806000000000005  0.39019000000000004  0.4029199999999999  1.0000
  O   O21       1.0  0.24703  0.39608000000000004  0.4905499999999999  1.0000
  O   O22       1.0  0.17478  0.58479  0.80142  1.0000
  O   O23       1.0  0.57207  0.61  0.90292  1.0000
  O   O24       1.0  0.75317  0.6041200000000001  0.9906199999999997  1.0000
