data_image0
_chemical_formula_structural       Er2H12C12O18
_chemical_formula_sum              "Er2 H12 C12 O18"
_cell_length_a       5.99444
_cell_length_b       7.46499
_cell_length_c       13.222479999999997
_cell_angle_alpha    102.95402999999999
_cell_angle_beta     101.70651999999998
_cell_angle_gamma    90.8398

_space_group_name_H-M_alt    "P 1"
_space_group_IT_number       1

loop_
  _space_group_symop_operation_xyz
  'x, y, z'

loop_
  _atom_site_type_symbol
  _atom_site_label
  _atom_site_symmetry_multiplicity
  _atom_site_fract_x
  _atom_site_fract_y
  _atom_site_fract_z
  _atom_site_occupancy
  Er  Er1       1.0  0.97287  0.16808999999999996  0.31905999999999995  1.0000
  Er  Er2       1.0  0.020409999999999998  0.8132199999999998  0.67901  1.0000
  H   H1        1.0  0.6412899999999999  0.05111999999999984  0.9396799999999998  1.0000
  H   H2        1.0  0.35454  0.11374  0.042939999999999985  1.0000
  H   H3        1.0  0.49785999999999997  0.6730399999999999  0.4349899999999999  1.0000
  H   H4        1.0  0.5206  0.71294  0.26627999999999996  1.0000
  H   H5        1.0  0.49651999999999996  0.23807  0.56559  1.0000
  H   H6        1.0  0.45816  0.39446  0.73626  1.0000
  H   H7        1.0  0.8203399999999998  0.7785499999999995  0.9356399999999998  1.0000
  H   H8        1.0  0.20747  0.88576  0.10204  1.0000
  H   H9        1.0  0.7971199999999999  0.99374  0.515  1.0000
  H   H10       1.0  0.83663  0.7884399999999998  0.23734  1.0000
  H   H11       1.0  0.19688999999999998  0.4902399999999999  0.4883699999999999  1.0000
  H   H12       1.0  0.14156000000000005  0.49856000000000006  0.7616  1.0000
  C   C1        1.0  0.78426  0.06068999999999999  0.10264  1.0000
  C   C2        1.0  0.62968  0.9654299999999999  0.9971  1.0000
  C   C3        1.0  0.37824  0.9676099999999997  0.00925  1.0000
  C   C4        1.0  0.2207  0.91507  0.89909  1.0000
  C   C5        1.0  0.84537  0.61182  0.42843  1.0000
  C   C6        1.0  0.65527  0.7477699999999999  0.4333999999999999  1.0000
  C   C7        1.0  0.61479  0.8216699999999998  0.3314799999999999  1.0000
  C   C8        1.0  0.48369  0.99734  0.3344  1.0000
  C   C9        1.0  0.14482  0.1665  0.56601  1.0000
  C   C10       1.0  0.33745  0.30691  0.56619  1.0000
  C   C11       1.0  0.37188999999999994  0.45552999999999993  0.6717099999999999  1.0000
  C   C12       1.0  0.50802  0.63006  0.67091  1.0000
  O   O1        1.0  0.74591  0.22003999999999999  0.15096  1.0000
  O   O2        1.0  0.9528099999999999  0.97713  0.14559  1.0000
  O   O3        1.0  0.67785  0.78066  0.95974  1.0000
  O   O4        1.0  0.3507  0.8565099999999998  0.07967999999999999  1.0000
  O   O5        1.0  0.23535999999999999  0.015919999999999948  0.8344499999999999  1.0000
  O   O6        1.0  0.0757699999999999  0.7757199999999999  0.8692599999999998  1.0000
  O   O7        1.0  0.8237799999999998  0.47483999999999993  0.3513699999999999  1.0000
  O   O8        1.0  0.02109  0.65003  0.5059  1.0000
  O   O9        1.0  0.7109899999999999  0.89083  0.53087  1.0000
  O   O10       1.0  0.8320099999999999  0.8589999999999998  0.30822  1.0000
  O   O11       1.0  0.58821  0.13958999999999996  0.32798  1.0000
  O   O12       1.0  0.2741  0.9844899999999998  0.33996  1.0000
  O   O13       1.0  0.9687399999999999  0.14609999999999995  0.4897899999999999  1.0000
  O   O14       1.0  0.1690099999999999  0.08324999999999996  0.6390999999999999  1.0000
  O   O15       1.0  0.28804  0.37984  0.47285  1.0000
  O   O16       1.0  0.1519199999999999  0.5092799999999997  0.6910399999999998  1.0000
  O   O17       1.0  0.4009499999999998  0.7740199999999997  0.6701299999999998  1.0000
  O   O18       1.0  0.72054  0.6173199999999998  0.6714  1.0000
