data_image0
_chemical_formula_structural       K2Cu2H16C22S2N4Cl2O12
_chemical_formula_sum              "K2 Cu2 H16 C22 S2 N4 Cl2 O12"
_cell_length_a       7.41555
_cell_length_b       10.83704
_cell_length_c       11.54095
_cell_angle_alpha    55.34671999999999
_cell_angle_beta     78.88719
_cell_angle_gamma    83.62313000000002

_space_group_name_H-M_alt    "P 1"
_space_group_IT_number       1

loop_
  _space_group_symop_operation_xyz
  'x, y, z'

loop_
  _atom_site_type_symbol
  _atom_site_label
  _atom_site_symmetry_multiplicity
  _atom_site_fract_x
  _atom_site_fract_y
  _atom_site_fract_z
  _atom_site_occupancy
  K   K1        1.0  0.7363399999999999  0.9378199999999998  0.96968  1.0000
  K   K2        1.0  0.2639399999999999  0.06217  0.03049  1.0000
  Cu  Cu1       1.0  0.87764  0.78024  0.29558  1.0000
  Cu  Cu2       1.0  0.12272  0.21978  0.70442  1.0000
  H   H1        1.0  0.30767  0.5885500000000002  0.9066399999999999  1.0000
  H   H2        1.0  0.5708  0.4519599999999999  0.80162  1.0000
  H   H3        1.0  0.3928799999999999  0.9226400000000001  0.29058  1.0000
  H   H4        1.0  0.0036399999999999822  0.67091  0.66797  1.0000
  H   H5        1.0  0.9963199999999999  0.3289500000000001  0.3318499999999999  1.0000
  H   H6        1.0  0.62732  0.21613  0.52467  1.0000
  H   H7        1.0  0.3727  0.7837400000000001  0.47529999999999994  1.0000
  H   H8        1.0  0.82282  0.17166000000000017  0.6063399999999998  1.0000
  H   H9        1.0  0.6020300000000001  0.4610900000000001  0.3045699999999999  1.0000
  H   H10       1.0  0.42927  0.54814  0.19808  1.0000
  H   H11       1.0  0.17673999999999995  0.8280800000000003  0.3941  1.0000
  H   H12       1.0  0.45452  0.34583000000000014  0.29689999999999994  1.0000
  H   H13       1.0  0.69239  0.41138  0.09328  1.0000
  H   H14       1.0  0.5458700000000001  0.65431  0.70283  1.0000
  H   H15       1.0  0.6064100000000001  0.07758  0.70955  1.0000
  H   H16       1.0  0.39776  0.53923  0.69543  1.0000
  C   C1        1.0  0.82083  0.28562  0.008249999999999999  1.0000
  C   C2        1.0  0.66775  0.57234  0.57631  1.0000
  C   C3        1.0  0.84269  0.5550399999999999  0.87947  1.0000
  C   C4        1.0  0.0457  0.43607  0.23646999999999999  1.0000
  C   C5        1.0  0.32666999999999996  0.81608  0.37651  1.0000
  C   C6        1.0  0.9243999999999999  0.2894000000000001  0.88905  1.0000
  C   C7        1.0  0.005720000000000002  0.56876  0.23033  1.0000
  C   C8        1.0  0.9542599999999999  0.5638600000000002  0.76345  1.0000
  C   C9        1.0  0.15728  0.44494000000000006  0.12041  1.0000
  C   C10       1.0  0.77869  0.41746  0.0026199999999999995  1.0000
  C   C11       1.0  0.6729099999999999  0.1839500000000001  0.6235499999999999  1.0000
  C   C12       1.0  0.70206  0.4499800000000001  0.55792  1.0000
  C   C13       1.0  0.07571000000000003  0.7105199999999999  0.11092  1.0000
  C   C14       1.0  0.53843  0.5543  0.70225  1.0000
  C   C15       1.0  0.29743  0.5501600000000001  0.44181  1.0000
  C   C16       1.0  0.99446  0.43114000000000013  0.7696799999999998  1.0000
  C   C17       1.0  0.1792900000000001  0.71431  0.9917199999999999  1.0000
  C   C18       1.0  0.38535000000000014  0.6996100000000002  0.34307  1.0000
  C   C19       1.0  0.22131000000000003  0.5825  0.9972799999999999  1.0000
  C   C20       1.0  0.61429  0.30051000000000017  0.6568299999999998  1.0000
  C   C21       1.0  0.46153  0.44586  0.2975499999999999  1.0000
  C   C22       1.0  0.33202  0.42774  0.42347  1.0000
  S   S1        1.0  0.72177  0.11430000000000001  0.16149  1.0000
  S   S2        1.0  0.27843  0.88563  0.8385399999999998  1.0000
  N   N1        1.0  0.186  0.54102  0.55385  1.0000
  N   N2        1.0  0.8964100000000005  0.57796  0.3394199999999999  1.0000
  N   N3        1.0  0.10404999999999996  0.4219000000000001  0.66072  1.0000
  N   N4        1.0  0.81369  0.4590200000000001  0.4459699999999999  1.0000
  Cl  Cl1       1.0  0.23328000000000002  0.27902  0.13583  1.0000
  Cl  Cl2       1.0  0.76716  0.7209800000000001  0.86416  1.0000
  O   O1        1.0  0.40586999999999995  0.9299600000000001  0.8938699999999999  1.0000
  O   O2        1.0  0.36483999999999994  0.8559400000000001  0.73215  1.0000
  O   O3        1.0  0.9592  0.16973999999999997  0.88463  1.0000
  O   O4        1.0  0.25807000000000013  0.29868999999999996  0.51226  1.0000
  O   O5        1.0  0.7420700000000002  0.7012799999999999  0.48769999999999997  1.0000
  O   O6        1.0  0.49488  0.27009000000000016  0.7615299999999999  1.0000
  O   O7        1.0  0.11806000000000001  0.9952300000000001  0.7922899999999999  1.0000
  O   O8        1.0  0.50512  0.72985  0.23865999999999998  1.0000
  O   O9        1.0  0.88239  0.004939999999999991  0.20755  1.0000
  O   O10       1.0  0.59453  0.06965  0.10623999999999999  1.0000
  O   O11       1.0  0.63509  0.14386  0.26783  1.0000
  O   O12       1.0  0.0406  0.83031  0.11512  1.0000
