data_image0
_chemical_formula_structural       Er2H28C40N10O14
_chemical_formula_sum              "Er2 H28 C40 N10 O14"
_cell_length_a       9.85095
_cell_length_b       11.875350000000001
_cell_length_c       11.857819999999998
_cell_angle_alpha    65.25534
_cell_angle_beta     71.39407
_cell_angle_gamma    71.30748

_space_group_name_H-M_alt    "P 1"
_space_group_IT_number       1

loop_
  _space_group_symop_operation_xyz
  'x, y, z'

loop_
  _atom_site_type_symbol
  _atom_site_label
  _atom_site_symmetry_multiplicity
  _atom_site_fract_x
  _atom_site_fract_y
  _atom_site_fract_z
  _atom_site_occupancy
  Er  Er1       1.0  0.7534200000000001  0.059260000000000014  0.9369499999999998  1.0000
  Er  Er2       1.0  0.24939  0.9401  0.06227  1.0000
  H   H1        1.0  0.90085  0.88801  0.27391  1.0000
  H   H2        1.0  0.82396  0.92732  0.65998  1.0000
  H   H3        1.0  0.69959  0.79251  0.42871999999999993  1.0000
  H   H4        1.0  0.44778999999999997  0.80705  0.56118  1.0000
  H   H5        1.0  0.3872800000000001  0.8695599999999999  0.75191  1.0000
  H   H6        1.0  0.07774  0.79083  0.59398  1.0000
  H   H7        1.0  0.29257  0.79278  0.37771  1.0000
  H   H8        1.0  0.59915  0.72567  0.10942999999999999  1.0000
  H   H9        1.0  0.67469  0.33913999999999994  0.07145  1.0000
  H   H10       1.0  0.7981600000000001  0.5711  0.20578  1.0000
  H   H11       1.0  0.05006000000000001  0.43872  0.19216  1.0000
  H   H12       1.0  0.11129999999999998  0.24774  0.13069  1.0000
  H   H13       1.0  0.41915000000000013  0.40741  0.20951  1.0000
  H   H14       1.0  0.20575000000000002  0.62428  0.20907  1.0000
  H   H15       1.0  0.10135  0.11081000000000005  0.72492  1.0000
  H   H16       1.0  0.17827  0.07223000000000002  0.33819  1.0000
  H   H17       1.0  0.30172999999999994  0.20726000000000006  0.56989  1.0000
  H   H18       1.0  0.55362  0.19297  0.43763  1.0000
  H   H19       1.0  0.6147600000000001  0.12992000000000004  0.24724  1.0000
  H   H20       1.0  0.9234400000000003  0.20923  0.40513999999999994  1.0000
  H   H21       1.0  0.70919  0.20767999999999998  0.62158  1.0000
  H   H22       1.0  0.4030300000000001  0.27282  0.8900699999999999  1.0000
  H   H23       1.0  0.32715  0.65896  0.92923  1.0000
  H   H24       1.0  0.2032000000000001  0.4272  0.7947599999999999  1.0000
  H   H25       1.0  0.9516200000000009  0.5602  0.80797  1.0000
  H   H26       1.0  0.8909900000000001  0.75127  0.86903  1.0000
  H   H27       1.0  0.5820300000000002  0.59139  0.79065  1.0000
  H   H28       1.0  0.7961200000000003  0.3750200000000001  0.7907099999999999  1.0000
  C   C1        1.0  0.5663000000000001  0.94158  0.8287799999999999  1.0000
  C   C2        1.0  0.6028900000000001  0.9005099999999999  0.7174  1.0000
  C   C3        1.0  0.7438000000000003  0.89748  0.63943  1.0000
  C   C4        1.0  0.7809400000000001  0.85714  0.5356  1.0000
  C   C5        1.0  0.6722700000000001  0.8252199999999998  0.50803  1.0000
  C   C6        1.0  0.5307700000000001  0.8313000000000001  0.58418  1.0000
  C   C7        1.0  0.4960900000000001  0.8664599999999999  0.6902  1.0000
  C   C8        1.0  0.9319900000000003  0.8458499999999999  0.46121999999999996  1.0000
  C   C9        1.0  0.06454000000000003  0.8137999999999999  0.49905  1.0000
  C   C10       1.0  0.17460999999999996  0.8125400000000002  0.39003  1.0000
  C   C11       1.0  0.93259  0.16897  0.06045999999999999  1.0000
  C   C12       1.0  0.8955600000000004  0.28187  0.09915  1.0000
  C   C13       1.0  0.7545800000000003  0.3601  0.10127  1.0000
  C   C14       1.0  0.7171800000000002  0.46423  0.14118  1.0000
  C   C15       1.0  0.82578  0.49178  0.17318  1.0000
  C   C16       1.0  0.9673600000000001  0.4156599999999999  0.16763  1.0000
  C   C17       1.0  0.0023000000000000364  0.3093699999999999  0.13308  1.0000
  C   C18       1.0  0.56625  0.53911  0.15267  1.0000
  C   C19       1.0  0.43314000000000036  0.50201  0.1861  1.0000
  C   C20       1.0  0.3237999999999999  0.61128  0.18818  1.0000
  C   C21       1.0  0.43712000000000006  0.05825000000000001  0.16963  1.0000
  C   C22       1.0  0.39933  0.09889  0.28142  1.0000
  C   C23       1.0  0.25819  0.10204  0.35909  1.0000
  C   C24       1.0  0.22070999999999996  0.14251000000000003  0.46294  1.0000
  C   C25       1.0  0.32926000000000005  0.17448  0.49062  1.0000
  C   C26       1.0  0.47087000000000007  0.16837  0.41472  1.0000
  C   C27       1.0  0.5059100000000001  0.13295  0.30886  1.0000
  C   C28       1.0  0.06971999999999998  0.15389000000000003  0.5375  1.0000
  C   C29       1.0  0.9369500000000001  0.18625999999999995  0.49995  1.0000
  C   C30       1.0  0.8271700000000001  0.18762000000000004  0.60911  1.0000
  C   C31       1.0  0.06945999999999995  0.82968  0.9395000000000001  1.0000
  C   C32       1.0  0.10645000000000003  0.7165899999999998  0.9011199999999999  1.0000
  C   C33       1.0  0.24724  0.63812  0.8993  1.0000
  C   C34       1.0  0.28451  0.53399  0.85936  1.0000
  C   C35       1.0  0.17587999999999995  0.5065800000000001  0.82722  1.0000
  C   C36       1.0  0.034460000000000046  0.5829699999999998  0.83257  1.0000
  C   C37       1.0  0.99975  0.6893100000000001  0.8669799999999999  1.0000
  C   C38       1.0  0.4355000000000001  0.4592199999999999  0.84771  1.0000
  C   C39       1.0  0.5684  0.49665  0.81415  1.0000
  C   C40       1.0  0.6780700000000001  0.3876299999999999  0.81183  1.0000
  N   N1        1.0  0.11618999999999999  0.84357  0.28939  1.0000
  N   N2        1.0  0.96889  0.8624  0.33522  1.0000
  N   N3        1.0  0.383  0.71141  0.1562  1.0000
  N   N4        1.0  0.5302499999999999  0.66503  0.13597  1.0000
  N   N5        1.0  0.8859400000000001  0.15630999999999998  0.70961  1.0000
  N   N6        1.0  0.033180000000000015  0.1372  0.66354  1.0000
  N   N7        1.0  0.6192200000000001  0.28733  0.84368  1.0000
  N   N8        1.0  0.4718700000000001  0.33331999999999995  0.86421  1.0000
  N   N9        1.0  0.7516200000000003  0.82803  0.16834  1.0000
  N   N10       1.0  0.24879000000000004  0.17103999999999994  0.83051  1.0000
  O   O1        1.0  0.6464900000000001  0.0074800000000000075  0.8283299999999999  1.0000
  O   O2        1.0  0.45766000000000034  0.90837  0.9177900000000001  1.0000
  O   O3        1.0  0.8024800000000001  0.92113  0.15455  1.0000
  O   O4        1.0  0.85485  0.16769999999999996  0.99355  1.0000
  O   O5        1.0  0.03989999999999999  0.07995000000000001  0.09747999999999998  1.0000
  O   O6        1.0  0.7058599999999999  0.84007  0.07295  1.0000
  O   O7        1.0  0.3580400000000001  0.99194  0.16906  1.0000
  O   O8        1.0  0.54594  0.09200999999999998  0.08129  1.0000
  O   O9        1.0  0.19991  0.07673000000000003  0.8444499999999999  1.0000
  O   O10       1.0  0.14667999999999998  0.83036  0.00722  1.0000
  O   O11       1.0  0.9629000000000005  0.91917  0.9015699999999999  1.0000
  O   O12       1.0  0.2942  0.15988999999999998  0.92577  1.0000
  O   O13       1.0  0.7466999999999999  0.7330300000000001  0.26701  1.0000
  O   O14       1.0  0.25206000000000006  0.2662499999999999  0.73205  1.0000
