data_image0
_chemical_formula_structural       Ag2H16C24N8
_chemical_formula_sum              "Ag2 H16 C24 N8"
_cell_length_a       4.72209
_cell_length_b       11.47481
_cell_length_c       11.47481
_cell_angle_alpha    90.00381
_cell_angle_beta     90.00666
_cell_angle_gamma    89.99714

_symmetry_space_group_name_H-M    'P 1'
_symmetry_Int_Tables_number       1

loop_
  _symmetry_equiv_pos_as_xyz
  'x,y,z'

loop_
  _atom_site_type_symbol
  _atom_site_label
  _atom_site_symmetry_multiplicity
  _atom_site_fract_x
  _atom_site_fract_y
  _atom_site_fract_z
  _atom_site_occupancy
  Ag  Ag1       1.0  0.01662  0.50001  0.99997  1.0000
  Ag  Ag2       1.0  0.016610000000000003  0.9999900000000002  0.4999800000000001  1.0000
  H   H1        1.0  0.12266000000000002  0.7694100000000001  0.01343  1.0000
  H   H2        1.0  0.52058  0.8729200000000001  0.10559000000000002  1.0000
  H   H3        1.0  0.12251  0.23064  0.98651  1.0000
  H   H4        1.0  0.52046  0.12709000000000004  0.89443  1.0000
  H   H5        1.0  0.1225  0.98651  0.76939  1.0000
  H   H6        1.0  0.52048  0.89441  0.87294  1.0000
  H   H7        1.0  0.12255000000000002  0.013450000000000002  0.23058  1.0000
  H   H8        1.0  0.52049  0.10557  0.12708  1.0000
  H   H9        1.0  0.12249  0.26938  0.4865200000000001  1.0000
  H   H10       1.0  0.52044  0.37291  0.39444  1.0000
  H   H11       1.0  0.12256000000000002  0.73057  0.51346  1.0000
  H   H12       1.0  0.5205300000000002  0.6270500000000001  0.60559  1.0000
  H   H13       1.0  0.12266000000000002  0.48657  0.7306  1.0000
  H   H14       1.0  0.52058  0.39442  0.6271  1.0000
  H   H15       1.0  0.12252000000000002  0.51349  0.26936  1.0000
  H   H16       1.0  0.52046  0.60558  0.37293000000000004  1.0000
  C   C1        1.0  0.21769000000000002  0.73572  0.09288  1.0000
  C   C2        1.0  0.4385  0.79356  0.14482  1.0000
  C   C3        1.0  0.21762  0.26432000000000005  0.90709  1.0000
  C   C4        1.0  0.43842000000000003  0.20646  0.8551900000000001  1.0000
  C   C5        1.0  0.21762  0.9070800000000001  0.7357  1.0000
  C   C6        1.0  0.43846  0.8551800000000002  0.79356  1.0000
  C   C7        1.0  0.21763000000000002  0.09288  0.26429  1.0000
  C   C8        1.0  0.43844000000000005  0.1448  0.20645  1.0000
  C   C9        1.0  0.21760000000000002  0.23569  0.40710000000000013  1.0000
  C   C10       1.0  0.43841  0.29353  0.35519999999999996  1.0000
  C   C11       1.0  0.21765000000000004  0.76427  0.59289  1.0000
  C   C12       1.0  0.43849  0.70643  0.64481  1.0000
  C   C13       1.0  0.21770000000000003  0.40713  0.76429  1.0000
  C   C14       1.0  0.43849  0.35519  0.70646  1.0000
  C   C15       1.0  0.21761000000000003  0.59292  0.23569000000000004  1.0000
  C   C16       1.0  0.43843000000000004  0.64483  0.29356  1.0000
  C   C17       1.0  0.56336  0.74794  0.24796000000000004  1.0000
  C   C18       1.0  0.79867  0.80039  0.30042  1.0000
  C   C19       1.0  0.56333  0.25205000000000005  0.75207  1.0000
  C   C20       1.0  0.79861  0.19958000000000004  0.69961  1.0000
  C   C21       1.0  0.56338  0.7520600000000001  0.74794  1.0000
  C   C22       1.0  0.79872  0.69961  0.8004  1.0000
  C   C23       1.0  0.5632800000000001  0.24793000000000007  0.25207  1.0000
  C   C24       1.0  0.79855  0.3004  0.19961000000000004  1.0000
  N   N1        1.0  0.10451  0.63413  0.13408  1.0000
  N   N2        1.0  0.9946900000000001  0.8456900000000002  0.34571  1.0000
  N   N3        1.0  0.1045  0.36593  0.8658700000000001  1.0000
  N   N4        1.0  0.9946100000000001  0.15428000000000003  0.6543  1.0000
  N   N5        1.0  0.10446000000000001  0.86586  0.6341  1.0000
  N   N6        1.0  0.9947600000000001  0.6543300000000001  0.84568  1.0000
  N   N7        1.0  0.10443  0.1341  0.36587000000000003  1.0000
  N   N8        1.0  0.9945500000000002  0.34569000000000005  0.15432  1.0000
