data_image0
_chemical_formula_structural       Li8H12C32N4O16
_chemical_formula_sum              "Li8 H12 C32 N4 O16"
_cell_length_a       9.69306
_cell_length_b       11.84854
_cell_length_c       12.43791
_cell_angle_alpha    73.45535
_cell_angle_beta     67.49797
_cell_angle_gamma    76.82323

_space_group_name_H-M_alt    "P 1"
_space_group_IT_number       1

loop_
  _space_group_symop_operation_xyz
  'x, y, z'

loop_
  _atom_site_type_symbol
  _atom_site_label
  _atom_site_symmetry_multiplicity
  _atom_site_fract_x
  _atom_site_fract_y
  _atom_site_fract_z
  _atom_site_occupancy
  Li  Li1       1.0  0.52365  0.39085  0.06372  1.0000
  Li  Li2       1.0  0.53825  0.07433999999999999  0.38157000000000013  1.0000
  Li  Li3       1.0  0.2502699999999999  0.08737  0.51603  1.0000
  Li  Li4       1.0  0.55588  0.31204  0.31106  1.0000
  Li  Li5       1.0  0.47636  0.60915  0.93628  1.0000
  Li  Li6       1.0  0.4617599999999998  0.9256600000000001  0.61843  1.0000
  Li  Li7       1.0  0.7497399999999999  0.9126300000000003  0.48397000000000007  1.0000
  Li  Li8       1.0  0.4441299999999999  0.6879600000000001  0.68894  1.0000
  H   H1        1.0  0.09885999999999996  0.09529000000000001  0.34578000000000003  1.0000
  H   H2        1.0  0.8369700000000001  0.3360700000000001  0.14105  1.0000
  H   H3        1.0  0.2611500000000001  0.4186  0.10654000000000001  1.0000
  H   H4        1.0  0.5759399999999999  0.6018900000000001  0.35828000000000004  1.0000
  H   H5        1.0  0.53448  0.77689  0.01422  1.0000
  H   H6        1.0  0.5343699999999998  0.9845000000000002  0.24385  1.0000
  H   H7        1.0  0.9011499999999996  0.9047200000000002  0.65421  1.0000
  H   H8        1.0  0.16303999999999988  0.66393  0.8589400000000001  1.0000
  H   H9        1.0  0.73886  0.5814100000000001  0.89346  1.0000
  H   H10       1.0  0.42407000000000006  0.39811000000000013  0.64172  1.0000
  H   H11       1.0  0.46553  0.22310999999999998  0.9857700000000001  1.0000
  H   H12       1.0  0.46564  0.015500000000000002  0.75615  1.0000
  C   C1        1.0  0.3376299999999999  0.22118000000000004  0.26315  1.0000
  C   C2        1.0  0.83209  0.12863000000000005  0.31528  1.0000
  C   C3        1.0  0.19872999999999996  0.25194  0.22964  1.0000
  C   C4        1.0  0.08618999999999997  0.17735000000000006  0.28120000000000006  1.0000
  C   C5        1.0  0.9544499999999999  0.20768000000000006  0.25123  1.0000
  C   C6        1.0  0.9379700000000002  0.31078  0.16525  1.0000
  C   C7        1.0  0.05190999999999997  0.38501  0.11140000000000001  1.0000
  C   C8        1.0  0.17879  0.35677  0.14662  1.0000
  C   C9        1.0  0.5585699999999999  0.8005200000000002  0.43397  1.0000
  C   C10       1.0  0.56388  0.55566  0.1632  1.0000
  C   C11       1.0  0.5564499999999999  0.7935000000000002  0.31619  1.0000
  C   C12       1.0  0.56462  0.6830999999999999  0.29228  1.0000
  C   C13       1.0  0.55756  0.6760900000000001  0.18350000000000002  1.0000
  C   C14       1.0  0.54072  0.7798400000000001  0.09872  1.0000
  C   C15       1.0  0.53241  0.89083  0.12239  1.0000
  C   C16       1.0  0.5424999999999999  0.89667  0.22980000000000006  1.0000
  C   C17       1.0  0.6623799999999999  0.77882  0.7368500000000001  1.0000
  C   C18       1.0  0.16791999999999993  0.8713800000000003  0.6847200000000001  1.0000
  C   C19       1.0  0.8012799999999998  0.74807  0.7703600000000002  1.0000
  C   C20       1.0  0.9138200000000001  0.82265  0.7188  1.0000
  C   C21       1.0  0.045559999999999996  0.79232  0.74877  1.0000
  C   C22       1.0  0.06203999999999988  0.6892200000000003  0.8347500000000001  1.0000
  C   C23       1.0  0.9480999999999998  0.6149899999999999  0.8886  1.0000
  C   C24       1.0  0.8212199999999997  0.64323  0.8533800000000002  1.0000
  C   C25       1.0  0.44144  0.19948000000000005  0.56602  1.0000
  C   C26       1.0  0.4361300000000001  0.44434000000000023  0.83679  1.0000
  C   C27       1.0  0.44355999999999995  0.20651  0.68381  1.0000
  C   C28       1.0  0.43539  0.31690000000000007  0.70772  1.0000
  C   C29       1.0  0.44245  0.3239100000000001  0.81649  1.0000
  C   C30       1.0  0.45929  0.22017000000000003  0.90127  1.0000
  C   C31       1.0  0.46760000000000007  0.10917000000000007  0.8776  1.0000
  C   C32       1.0  0.45750999999999986  0.10333999999999996  0.7702000000000001  1.0000
  N   N1        1.0  0.05009999999999998  0.4922000000000001  0.023690000000000003  1.0000
  N   N2        1.0  0.51174  0.002699999999999999  0.04611000000000001  1.0000
  N   N3        1.0  0.9499100000000001  0.5078000000000003  0.97631  1.0000
  N   N4        1.0  0.4882700000000001  0.9973100000000001  0.95389  1.0000
  O   O1        1.0  0.34554  0.13163  0.34846  1.0000
  O   O2        1.0  0.44426  0.28497  0.20694000000000007  1.0000
  O   O3        1.0  0.7033899999999998  0.16633000000000003  0.30171  1.0000
  O   O4        1.0  0.8626799999999999  0.029379999999999986  0.3803500000000001  1.0000
  O   O5        1.0  0.57071  0.9042300000000001  0.4448200000000001  1.0000
  O   O6        1.0  0.52653  0.54962  0.07595000000000002  1.0000
  O   O7        1.0  0.6040899999999996  0.46541  0.23273  1.0000
  O   O8        1.0  0.5486099999999998  0.70925  0.51657  1.0000
  O   O9        1.0  0.65447  0.8683800000000002  0.65154  1.0000
  O   O10       1.0  0.5557499999999999  0.71503  0.7930500000000003  1.0000
  O   O11       1.0  0.29662  0.8336800000000002  0.69828  1.0000
  O   O12       1.0  0.13732999999999998  0.97062  0.61964  1.0000
  O   O13       1.0  0.4293  0.09577000000000001  0.55517  1.0000
  O   O14       1.0  0.47347999999999996  0.45038  0.92405  1.0000
  O   O15       1.0  0.39591999999999977  0.5345900000000002  0.7672700000000001  1.0000
  O   O16       1.0  0.4514  0.29075000000000006  0.48342000000000007  1.0000
