data_image0
_chemical_formula_structural       Cu2H20C16N12
_chemical_formula_sum              "Cu2 H20 C16 N12"
_cell_length_a       9.30321
_cell_length_b       11.184549999999998
_cell_length_c       9.644210000000001
_cell_angle_alpha    117.93132
_cell_angle_beta     102.19366
_cell_angle_gamma    102.71325000000002

_space_group_name_H-M_alt    "P 1"
_space_group_IT_number       1

loop_
  _space_group_symop_operation_xyz
  'x, y, z'

loop_
  _atom_site_type_symbol
  _atom_site_label
  _atom_site_symmetry_multiplicity
  _atom_site_fract_x
  _atom_site_fract_y
  _atom_site_fract_z
  _atom_site_occupancy
  Cu  Cu1       1.0  0.07296999999999998  0.11115  0.05058999999999999  1.0000
  Cu  Cu2       1.0  0.33108999999999983  0.9259799999999998  0.9230799999999998  1.0000
  H   H1        1.0  0.69924  0.6481799999999999  0.8189899999999998  1.0000
  H   H2        1.0  0.23144  0.59129  0.80676  1.0000
  H   H3        1.0  0.4413  0.3053899999999999  0.88909  1.0000
  H   H4        1.0  0.2934199999999999  0.3704899999999998  0.7132999999999998  1.0000
  H   H5        1.0  0.46582  0.36619  0.66657  1.0000
  H   H6        1.0  0.8363599999999999  0.40321999999999997  0.4429799999999999  1.0000
  H   H7        1.0  0.2436  0.30766999999999994  0.43403999999999987  1.0000
  H   H8        1.0  0.06379  0.94347  0.60227  1.0000
  H   H9        1.0  0.030249999999999926  0.16612999999999992  0.7903999999999998  1.0000
  H   H10       1.0  0.99093  0.20589  0.62158  1.0000
  H   H11       1.0  0.35741  0.43791  0.23735999999999993  1.0000
  H   H12       1.0  0.66408  0.21355999999999997  0.09243999999999997  1.0000
  H   H13       1.0  0.64895  0.63242  0.09528999999999997  1.0000
  H   H14       1.0  0.7739999999999999  0.4857499999999999  0.21262999999999996  1.0000
  H   H15       1.0  0.68244  0.5931899999999999  0.3321899999999999  1.0000
  H   H16       1.0  0.05660999999999999  0.6443199999999999  0.58573  1.0000
  H   H17       1.0  0.7542099999999999  0.8642599999999999  0.7405999999999998  1.0000
  H   H18       1.0  0.99693  0.029519999999999953  0.33839999999999987  1.0000
  H   H19       1.0  0.02850999999999999  0.8031899999999998  0.15198  1.0000
  H   H20       1.0  0.06091000000000001  0.7646  0.32118999999999986  1.0000
  C   C1        1.0  0.5940299999999998  0.6717499999999997  0.8315699999999998  1.0000
  C   C2        1.0  0.35408999999999996  0.6441999999999999  0.8295999999999998  1.0000
  C   C3        1.0  0.4901799999999998  0.4149699999999999  0.9150299999999998  1.0000
  C   C4        1.0  0.42283999999999994  0.42486999999999986  0.7668499999999998  1.0000
  C   C5        1.0  0.92432  0.36245  0.40142  1.0000
  C   C6        1.0  0.13002  0.31633  0.39848  1.0000
  C   C7        1.0  0.03620000000000002  0.01144000000000002  0.55703  1.0000
  C   C8        1.0  0.018489999999999972  0.13490999999999995  0.66193  1.0000
  C   C9        1.0  0.40178  0.35066999999999987  0.18854999999999994  1.0000
  C   C10       1.0  0.55658  0.23319999999999996  0.10713999999999997  1.0000
  C   C11       1.0  0.59835  0.5219  0.06596  1.0000
  C   C12       1.0  0.66005  0.50019  0.20671999999999993  1.0000
  C   C13       1.0  0.009729999999999944  0.72482  0.6549999999999998  1.0000
  C   C14       1.0  0.8573499999999998  0.8356299999999998  0.7319499999999998  1.0000
  C   C15       1.0  0.021219999999999958  0.9607199999999999  0.3838499999999999  1.0000
  C   C16       1.0  0.03708999999999991  0.83585  0.2797199999999999  1.0000
  N   N1        1.0  0.5781499999999999  0.7968299999999998  0.8706299999999998  1.0000
  N   N2        1.0  0.42495999999999995  0.7788599999999998  0.8696699999999998  1.0000
  N   N3        1.0  0.45675999999999994  0.5729699999999999  0.8046999999999997  1.0000
  N   N4        1.0  0.90343  0.28619999999999995  0.23786999999999994  1.0000
  N   N5        1.0  0.03897999999999997  0.25527999999999995  0.23592999999999995  1.0000
  N   N6        1.0  0.06383999999999998  0.38503  0.50819  1.0000
  N   N7        1.0  0.32183999999999996  0.21197  0.12543999999999994  1.0000
  N   N8        1.0  0.42056  0.137  0.07314  1.0000
  N   N9        1.0  0.54968  0.36895999999999995  0.18107999999999994  1.0000
  N   N10       1.0  0.10209000000000001  0.85112  0.80061  1.0000
  N   N11       1.0  0.0019  0.92373  0.85123  1.0000
  N   N12       1.0  0.8557799999999999  0.7096499999999998  0.6068999999999998  1.0000
