data_image0
_chemical_formula_structural       Cd3H8C24O20
_chemical_formula_sum              "Cd3 H8 C24 O20"
_cell_length_a       9.45227
_cell_length_b       10.37649
_cell_length_c       11.356589999999999
_cell_angle_alpha    64.22585
_cell_angle_beta     72.42046999999998
_cell_angle_gamma    84.03969

_space_group_name_H-M_alt    "P 1"
_space_group_IT_number       1

loop_
  _space_group_symop_operation_xyz
  'x, y, z'

loop_
  _atom_site_type_symbol
  _atom_site_label
  _atom_site_symmetry_multiplicity
  _atom_site_fract_x
  _atom_site_fract_y
  _atom_site_fract_z
  _atom_site_occupancy
  Cd  Cd1       1.0  0.0037700000000000108  0.35033  0.18119  1.0000
  Cd  Cd2       1.0  0.99622  0.64967  0.81881  1.0000
  Cd  Cd3       1.0  0.0  0.0  0.5  1.0000
  H   H1        1.0  0.18277  0.16965  0.63079  1.0000
  H   H2        1.0  0.45008  0.08531999999999995  0.68957  1.0000
  H   H3        1.0  0.2613400000000001  0.8635499999999999  0.84943  1.0000
  H   H4        1.0  0.27257000000000003  0.10557000000000001  0.89473  1.0000
  H   H5        1.0  0.81722  0.83035  0.36921  1.0000
  H   H6        1.0  0.5499099999999999  0.91468  0.31043  1.0000
  H   H7        1.0  0.73865  0.13643999999999998  0.15057  1.0000
  H   H8        1.0  0.72742  0.89443  0.10527000000000002  1.0000
  C   C1        1.0  0.08510000000000001  0.05602  0.17637  1.0000
  C   C2        1.0  0.06447000000000001  0.63686  0.09295  1.0000
  C   C3        1.0  0.1127600000000001  0.78252  0.05776  1.0000
  C   C4        1.0  0.22795000000000004  0.2794799999999999  0.32702  1.0000
  C   C5        1.0  0.32258  0.21766  0.42079  1.0000
  C   C6        1.0  0.69944  0.14813999999999997  0.4331  1.0000
  C   C7        1.0  0.5346700000000001  0.15102000000000002  0.46778999999999993  1.0000
  C   C8        1.0  0.29223  0.17281  0.56179  1.0000
  C   C9        1.0  0.42692  0.12825  0.59184  1.0000
  C   C10       1.0  0.12455000000000001  0.9718199999999999  0.09466  1.0000
  C   C11       1.0  0.20659999999999992  0.8822399999999999  0.9391700000000001  1.0000
  C   C12       1.0  0.21328  0.00404000000000006  0.9628599999999999  1.0000
  C   C13       1.0  0.9148900000000001  0.94398  0.82362  1.0000
  C   C14       1.0  0.93552  0.3631400000000001  0.90705  1.0000
  C   C15       1.0  0.8872300000000003  0.21747  0.94224  1.0000
  C   C16       1.0  0.77204  0.72051  0.67298  1.0000
  C   C17       1.0  0.6774100000000001  0.7823399999999999  0.57921  1.0000
  C   C18       1.0  0.30055  0.85186  0.56689  1.0000
  C   C19       1.0  0.46532  0.84898  0.53221  1.0000
  C   C20       1.0  0.7077600000000001  0.82718  0.43821000000000004  1.0000
  C   C21       1.0  0.57307  0.8717499999999999  0.40816  1.0000
  C   C22       1.0  0.87544  0.028179999999999945  0.90534  1.0000
  C   C23       1.0  0.79339  0.11775999999999999  0.060829999999999995  1.0000
  C   C24       1.0  0.78671  0.99595  0.03714  1.0000
  O   O1        1.0  0.007480000000000005  0.9910400000000003  0.29967  1.0000
  O   O2        1.0  0.13149  0.18621  0.11204  1.0000
  O   O3        1.0  0.9905600000000001  0.55842  0.21417000000000003  1.0000
  O   O4        1.0  0.76989  0.23685  0.31618  1.0000
  O   O5        1.0  0.7486299999999999  0.05625  0.5294  1.0000
  O   O6        1.0  0.4705  0.20723999999999998  0.36319  1.0000
  O   O7        1.0  0.06305000000000005  0.8361799999999998  0.15363  1.0000
  O   O8        1.0  0.09009999999999997  0.23573  0.37828  1.0000
  O   O9        1.0  0.10495000000000008  0.59386  0.9975299999999999  1.0000
  O   O10       1.0  0.28466  0.36966000000000004  0.20879999999999999  1.0000
  O   O11       1.0  0.9925100000000001  0.008959999999999985  0.70033  1.0000
  O   O12       1.0  0.8685  0.81379  0.8879499999999999  1.0000
  O   O13       1.0  0.009430000000000003  0.44156999999999996  0.78583  1.0000
  O   O14       1.0  0.23010999999999995  0.76315  0.68382  1.0000
  O   O15       1.0  0.25137000000000015  0.9437499999999999  0.47059  1.0000
  O   O16       1.0  0.5294899999999999  0.79276  0.63681  1.0000
  O   O17       1.0  0.9369400000000001  0.16381999999999988  0.8463700000000001  1.0000
  O   O18       1.0  0.90989  0.7642599999999999  0.62172  1.0000
  O   O19       1.0  0.89504  0.40613999999999995  0.00246  1.0000
  O   O20       1.0  0.71533  0.6303400000000001  0.7912  1.0000
