data_image0
_chemical_formula_structural       U8H8C40O32
_chemical_formula_sum              "U8 H8 C40 O32"
_cell_length_a       7.65489
_cell_length_b       11.717919999999998
_cell_length_c       12.48282
_cell_angle_alpha    89.9817
_cell_angle_beta     90.51645000000002
_cell_angle_gamma    90.09509

_space_group_name_H-M_alt    "P 1"
_space_group_IT_number       1

loop_
  _space_group_symop_operation_xyz
  'x, y, z'

loop_
  _atom_site_type_symbol
  _atom_site_label
  _atom_site_symmetry_multiplicity
  _atom_site_fract_x
  _atom_site_fract_y
  _atom_site_fract_z
  _atom_site_occupancy
  U   U1        1.0  0.49085  0.1451  0.24831999999999996  1.0000
  U   U2        1.0  0.9921000000000002  0.35702  0.25662  1.0000
  U   U3        1.0  0.01122  0.1416  0.75536  1.0000
  U   U4        1.0  0.51085  0.35777  0.74856  1.0000
  U   U5        1.0  0.51635  0.8585400000000001  0.7559499999999999  1.0000
  U   U6        1.0  0.008790000000000003  0.64176  0.74796  1.0000
  U   U7        1.0  0.98365  0.8570700000000001  0.24821  1.0000
  U   U8        1.0  0.48776  0.64297  0.2564  1.0000
  H   H1        1.0  0.7870400000000002  0.9013  0.39715  1.0000
  H   H2        1.0  0.29218  0.60409  0.10842999999999998  1.0000
  H   H3        1.0  0.70586  0.8942  0.60897  1.0000
  H   H4        1.0  0.21124  0.59928  0.89687  1.0000
  H   H5        1.0  0.20882  0.10389  0.6087399999999998  1.0000
  H   H6        1.0  0.71376  0.40329000000000004  0.9003699999999998  1.0000
  H   H7        1.0  0.28765  0.09889000000000003  0.39763  1.0000
  H   H8        1.0  0.79402  0.39703  0.10893999999999998  1.0000
  C   C1        1.0  0.8250100000000002  0.09789  0.31846  1.0000
  C   C2        1.0  0.00981  0.24893000000000004  0.51283  1.0000
  C   C3        1.0  0.00974  0.12514  0.4916399999999999  1.0000
  C   C4        1.0  0.9184  0.06227  0.4112199999999999  1.0000
  C   C5        1.0  0.9102900000000003  0.9394800000000001  0.42393  1.0000
  C   C6        1.0  0.32199  0.40345000000000003  0.17928  1.0000
  C   C7        1.0  0.51951  0.25489  0.99263  1.0000
  C   C8        1.0  0.50843  0.37865000000000004  0.010159999999999997  1.0000
  C   C9        1.0  0.41459  0.44218  0.08723  1.0000
  C   C10       1.0  0.40887  0.56393  0.07508  1.0000
  C   C11       1.0  0.68056  0.09637  0.6801199999999998  1.0000
  C   C12       1.0  0.47661  0.24508  0.4938499999999999  1.0000
  C   C13       1.0  0.4933  0.12204000000000001  0.51005  1.0000
  C   C14       1.0  0.58852  0.05893  0.58722  1.0000
  C   C15       1.0  0.5916700000000001  0.93639  0.57276  1.0000
  C   C16       1.0  0.17161000000000007  0.40045  0.8199199999999999  1.0000
  C   C17       1.0  0.98736  0.25225  0.01032  1.0000
  C   C18       1.0  0.99145  0.37502  0.99132  1.0000
  C   C19       1.0  0.07824  0.43906  0.91179  1.0000
  C   C20       1.0  0.0881  0.56146  0.9247  1.0000
  C   C21       1.0  0.18145000000000006  0.90108  0.68031  1.0000
  C   C22       1.0  0.9743  0.7536800000000001  0.49323  1.0000
  C   C23       1.0  0.9916  0.8770200000000001  0.50967  1.0000
  C   C24       1.0  0.08777  0.93955  0.58649  1.0000
  C   C25       1.0  0.09491  0.06297  0.573  1.0000
  C   C26       1.0  0.6708  0.59948  0.8200599999999999  1.0000
  C   C27       1.0  0.48207  0.74797  0.009769999999999997  1.0000
  C   C28       1.0  0.48763  0.6258600000000001  0.9898899999999999  1.0000
  C   C29       1.0  0.5764100000000001  0.56228  0.91183  1.0000
  C   C30       1.0  0.58891  0.43989  0.9260999999999998  1.0000
  C   C31       1.0  0.32088  0.9024800000000001  0.31932  1.0000
  C   C32       1.0  0.51018  0.75069  0.51072  1.0000
  C   C33       1.0  0.5084  0.87448  0.49076  1.0000
  C   C34       1.0  0.41701  0.93795  0.40967  1.0000
  C   C35       1.0  0.40965  0.06025000000000001  0.42455999999999994  1.0000
  C   C36       1.0  0.81885  0.5979  0.17685  1.0000
  C   C37       1.0  0.01983  0.74576  0.9922799999999999  1.0000
  C   C38       1.0  0.00903  0.6225200000000001  0.00962  1.0000
  C   C39       1.0  0.91645  0.55903  0.08742999999999997  1.0000
  C   C40       1.0  0.91189  0.4373400000000001  0.07619  1.0000
  O   O1        1.0  0.76218  0.02392  0.24904999999999994  1.0000
  O   O2        1.0  0.99863  0.32544000000000006  0.43696  1.0000
  O   O3        1.0  0.02295000000000001  0.27946  0.6107  1.0000
  O   O4        1.0  0.7804000000000002  0.20811000000000004  0.30072  1.0000
  O   O5        1.0  0.26421  0.4779400000000001  0.25038  1.0000
  O   O6        1.0  0.51208  0.18216000000000004  0.071  1.0000
  O   O7        1.0  0.54717  0.22295  0.8945899999999999  1.0000
  O   O8        1.0  0.27931  0.29514000000000007  0.19905  1.0000
  O   O9        1.0  0.74646  0.0187  0.74862  1.0000
  O   O10       1.0  0.47829  0.31824  0.57201  1.0000
  O   O11       1.0  0.45532  0.2799  0.39753999999999995  1.0000
  O   O12       1.0  0.71548  0.20547000000000007  0.7029899999999999  1.0000
  O   O13       1.0  0.22136  0.47515  0.7472  1.0000
  O   O14       1.0  0.993  0.17958000000000002  0.93239  1.0000
  O   O15       1.0  0.96947  0.21934  0.10878  1.0000
  O   O16       1.0  0.22348000000000007  0.29373  0.80445  1.0000
  O   O17       1.0  0.24741  0.9788100000000001  0.74807  1.0000
  O   O18       1.0  0.9743  0.68064  0.57076  1.0000
  O   O19       1.0  0.94918  0.7190200000000001  0.39674  1.0000
  O   O20       1.0  0.2162  0.7929200000000001  0.70194  1.0000
  O   O21       1.0  0.7214800000000002  0.52626  0.7478499999999999  1.0000
  O   O22       1.0  0.48212  0.82245  0.9314899999999999  1.0000
  O   O23       1.0  0.46755  0.78097  0.10773999999999999  1.0000
  O   O24       1.0  0.72127  0.70697  0.8047399999999998  1.0000
  O   O25       1.0  0.26071  0.97652  0.24993  1.0000
  O   O26       1.0  0.49803  0.67505  0.43415999999999993  1.0000
  O   O27       1.0  0.52619  0.72044  0.61046  1.0000
  O   O28       1.0  0.27111  0.7934600000000002  0.3026  1.0000
  O   O29       1.0  0.75847  0.52489  0.24692999999999998  1.0000
  O   O30       1.0  0.02034  0.81717  0.07313  1.0000
  O   O31       1.0  0.041540000000000014  0.78122  0.89587  1.0000
  O   O32       1.0  0.7744  0.70781  0.19289999999999996  1.0000
