data_image0
_chemical_formula_structural       CaH20C34O8
_chemical_formula_sum              "Ca1 H20 C34 O8"
_cell_length_a       4.71954
_cell_length_b       10.85377
_cell_length_c       14.913829999999999
_cell_angle_alpha    81.98482999999999
_cell_angle_beta     79.07472
_cell_angle_gamma    85.35732

_symmetry_space_group_name_H-M    'P 1'
_symmetry_Int_Tables_number       1

loop_
  _symmetry_equiv_pos_as_xyz
  'x,y,z'

loop_
  _atom_site_type_symbol
  _atom_site_label
  _atom_site_symmetry_multiplicity
  _atom_site_fract_x
  _atom_site_fract_y
  _atom_site_fract_z
  _atom_site_occupancy
  Ca  Ca1       1.0  0.0  0.0  0.0  1.0000
  H   H1        1.0  0.91385  0.72826  0.48839  1.0000
  H   H2        1.0  0.57011  0.51779  0.6404  1.0000
  H   H3        1.0  0.6906699999999999  0.6167900000000001  0.76858  1.0000
  H   H4        1.0  0.8640400000000003  0.79054  0.61845  1.0000
  H   H5        1.0  0.6235200000000001  0.28159  0.57491  1.0000
  H   H6        1.0  0.7909599999999998  0.16738  0.71659  1.0000
  H   H7        1.0  0.019820000000000025  0.30381  0.8832  1.0000
  H   H8        1.0  0.8646  0.42531  0.74308  1.0000
  H   H9        1.0  0.6247399999999995  0.79608  0.94319  1.0000
  H   H10       1.0  0.9854600000000002  0.88733  0.74827  1.0000
  H   H11       1.0  0.08615999999999999  0.27174  0.51161  1.0000
  H   H12       1.0  0.42990000000000006  0.4822  0.35960000000000003  1.0000
  H   H13       1.0  0.30934  0.3832  0.23142  1.0000
  H   H14       1.0  0.13597000000000004  0.20945999999999998  0.38154999999999994  1.0000
  H   H15       1.0  0.37648999999999994  0.7184100000000001  0.42509  1.0000
  H   H16       1.0  0.20904000000000006  0.8326199999999999  0.2834  1.0000
  H   H17       1.0  0.98019  0.6961899999999999  0.1168  1.0000
  H   H18       1.0  0.1354  0.57469  0.25692  1.0000
  H   H19       1.0  0.37526999999999994  0.20391999999999996  0.05681  1.0000
  H   H20       1.0  0.014540000000000004  0.11267  0.25172  1.0000
  C   C1        1.0  0.9446700000000001  0.6273  0.49584  1.0000
  C   C2        1.0  0.09360999999999996  0.56681  0.5638800000000002  1.0000
  C   C3        1.0  0.14357999999999999  0.43494  0.56903  1.0000
  C   C4        1.0  0.19586000000000003  0.63959  0.62609  1.0000
  C   C5        1.0  0.4438899999999999  0.59954  0.66267  1.0000
  C   C6        1.0  0.52316  0.65841  0.73144  1.0000
  C   C7        1.0  0.34787000000000007  0.7602399999999999  0.76384  1.0000
  C   C8        1.0  0.036420000000000056  0.7491  0.65356  1.0000
  C   C9        1.0  0.39592000000000005  0.81347  0.84522  1.0000
  C   C10       1.0  0.2374  0.35963000000000006  0.65025  1.0000
  C   C11       1.0  0.4952700000000001  0.2873699999999999  0.64275  1.0000
  C   C12       1.0  0.59479  0.22752  0.72139  1.0000
  C   C13       1.0  0.41680999999999996  0.23350999999999994  0.80845  1.0000
  C   C14       1.0  0.1497299999999999  0.29997  0.81531  1.0000
  C   C15       1.0  0.05645000000000004  0.36292  0.73673  1.0000
  C   C16       1.0  0.5082900000000001  0.16771999999999995  0.89309  1.0000
  C   C17       1.0  0.11329000000000002  0.80743  0.72262  1.0000
  C   C18       1.0  0.055340000000000035  0.37269  0.50416  1.0000
  C   C19       1.0  0.90639  0.43318999999999996  0.43612  1.0000
  C   C20       1.0  0.85643  0.56506  0.43097  1.0000
  C   C21       1.0  0.8041500000000001  0.3604099999999999  0.37391  1.0000
  C   C22       1.0  0.55612  0.4004599999999999  0.3373300000000001  1.0000
  C   C23       1.0  0.47685  0.34159  0.26856  1.0000
  C   C24       1.0  0.65213  0.23975  0.23616  1.0000
  C   C25       1.0  0.96358  0.25089  0.34643  1.0000
  C   C26       1.0  0.60409  0.18653  0.15476999999999996  1.0000
  C   C27       1.0  0.7626099999999998  0.64037  0.34975  1.0000
  C   C28       1.0  0.5047399999999997  0.7126299999999998  0.35725  1.0000
  C   C29       1.0  0.40521999999999997  0.77248  0.2786  1.0000
  C   C30       1.0  0.5832000000000002  0.7664799999999999  0.19155  1.0000
  C   C31       1.0  0.85027  0.7000299999999998  0.18468  1.0000
  C   C32       1.0  0.94355  0.6370799999999999  0.26326  1.0000
  C   C33       1.0  0.49171  0.8322699999999998  0.10691  1.0000
  C   C34       1.0  0.88671  0.19257  0.27738  1.0000
  O   O1        1.0  0.75615  0.11307  0.88796  1.0000
  O   O2        1.0  0.31788999999999995  0.16721999999999995  0.96907  1.0000
  O   O3        1.0  0.2367  0.9014399999999998  0.8756700000000001  1.0000
  O   O4        1.0  0.6116400000000001  0.7583  0.88352  1.0000
  O   O5        1.0  0.24386000000000008  0.88693  0.11203  1.0000
  O   O6        1.0  0.68211  0.83278  0.03093  1.0000
  O   O7        1.0  0.7633100000000002  0.09855999999999998  0.12433  1.0000
  O   O8        1.0  0.38836999999999994  0.24170000000000003  0.11648  1.0000
