data_image0
_chemical_formula_structural       Cu4H6C18O14
_chemical_formula_sum              "Cu4 H6 C18 O14"
_cell_length_a       4.63393
_cell_length_b       10.002449999999998
_cell_length_c       12.10197
_cell_angle_alpha    92.01293
_cell_angle_beta     85.29433000000002
_cell_angle_gamma    88.16458999999999

_space_group_name_H-M_alt    "P 1"
_space_group_IT_number       1

loop_
  _space_group_symop_operation_xyz
  'x, y, z'

loop_
  _atom_site_type_symbol
  _atom_site_label
  _atom_site_symmetry_multiplicity
  _atom_site_fract_x
  _atom_site_fract_y
  _atom_site_fract_z
  _atom_site_occupancy
  Cu  Cu1       1.0  0.57026  0.22872999999999996  0.71983  1.0000
  Cu  Cu2       1.0  0.14165  0.44309  0.61487  1.0000
  Cu  Cu3       1.0  0.029690000000000005  0.76667  0.23757000000000003  1.0000
  Cu  Cu4       1.0  0.62499  0.55713  0.12381  1.0000
  H   H1        1.0  0.4768999999999999  0.78538  0.7149300000000001  1.0000
  H   H2        1.0  0.03533  0.52145  0.8827400000000001  1.0000
  H   H3        1.0  0.12202999999999997  0.9491500000000002  0.91159  1.0000
  H   H4        1.0  0.96785  0.20629999999999998  0.21997  1.0000
  H   H5        1.0  0.53472  0.47436  0.37549  1.0000
  H   H6        1.0  0.61215  0.04894  0.42097  1.0000
  C   C1        1.0  0.7872500000000001  0.88082  0.8126899999999999  1.0000
  C   C2        1.0  0.64672  0.77064  0.77033  1.0000
  C   C3        1.0  0.74698  0.64041  0.79235  1.0000
  C   C4        1.0  0.9711600000000001  0.62193  0.86103  1.0000
  C   C5        1.0  0.11101000000000001  0.73319  0.90385  1.0000
  C   C6        1.0  0.013840000000000024  0.86279  0.8798  1.0000
  C   C7        1.0  0.6936700000000001  0.01624  0.78422  1.0000
  C   C8        1.0  0.60206  0.52482  0.74425  1.0000
  C   C9        1.0  0.3355  0.71445  0.98429  1.0000
  C   C10       1.0  0.28016  0.11471000000000003  0.31985  1.0000
  C   C11       1.0  0.13813999999999999  0.22359  0.27448  1.0000
  C   C12       1.0  0.24255000000000002  0.35295  0.29127  1.0000
  C   C13       1.0  0.4735  0.37294  0.35582  1.0000
  C   C14       1.0  0.61597  0.26327  0.40073000000000003  1.0000
  C   C15       1.0  0.5119  0.13392  0.38365000000000005  1.0000
  C   C16       1.0  0.1749699999999999  0.9800499999999999  0.29815  1.0000
  C   C17       1.0  0.09024  0.4680599999999999  0.24648  1.0000
  C   C18       1.0  0.82135  0.28835  0.48673  1.0000
  O   O1        1.0  0.4823299999999999  0.03274  0.72277  1.0000
  O   O2        1.0  0.8210000000000001  0.1209  0.81679  1.0000
  O   O3        1.0  0.7207999999999999  0.40734999999999993  0.75035  1.0000
  O   O4        1.0  0.31910999999999995  0.27791  0.61762  1.0000
  O   O5        1.0  0.37570000000000003  0.55393  0.6949  1.0000
  O   O6        1.0  0.39746  0.58959  0.00472  1.0000
  O   O7        1.0  0.44433  0.81377  0.02784  1.0000
  O   O8        1.0  0.95897  0.96685  0.23833  1.0000
  O   O9        1.0  0.29337  0.8740000000000002  0.33359  1.0000
  O   O10       1.0  0.19346  0.58476  0.25937  1.0000
  O   O11       1.0  0.68137  0.72471  0.18436  1.0000
  O   O12       1.0  0.87014  0.43990999999999997  0.19352999999999998  1.0000
  O   O13       1.0  0.8997599999999999  0.41159  0.49909000000000003  1.0000
  O   O14       1.0  0.90288  0.19424  0.54495  1.0000
