data_image0
_chemical_formula_structural       In6H8C40O36
_chemical_formula_sum              "In6 H8 C40 O36"
_cell_length_a       7.19415
_cell_length_b       13.89213
_cell_length_c       17.63412
_cell_angle_alpha    90.0
_cell_angle_beta     99.87193
_cell_angle_gamma    90.0

_symmetry_space_group_name_H-M    'P 1'
_symmetry_Int_Tables_number       1

loop_
  _symmetry_equiv_pos_as_xyz
  'x,y,z'

loop_
  _atom_site_type_symbol
  _atom_site_label
  _atom_site_symmetry_multiplicity
  _atom_site_fract_x
  _atom_site_fract_y
  _atom_site_fract_z
  _atom_site_occupancy
  In  In1       1.0  0.47086000000000017  0.10082000000000003  0.45234  1.0000
  In  In2       1.0  0.52915  0.60082  0.04766  1.0000
  In  In3       1.0  0.52915  0.89918  0.54766  1.0000
  In  In4       1.0  0.4708600000000001  0.39918  0.95233  1.0000
  In  In5       1.0  0.0  0.0  0.5  1.0000
  In  In6       1.0  0.0  0.5  0.0  1.0000
  H   H1        1.0  0.22243999999999997  0.23303  0.77491  1.0000
  H   H2        1.0  0.5194600000000001  0.20629000000000006  0.7266299999999999  1.0000
  H   H3        1.0  0.77757  0.7330300000000002  0.72509  1.0000
  H   H4        1.0  0.48055000000000003  0.70629  0.77336  1.0000
  H   H5        1.0  0.77757  0.7669800000000001  0.22509  1.0000
  H   H6        1.0  0.48054000000000013  0.7937100000000001  0.27336  1.0000
  H   H7        1.0  0.22243999999999997  0.26698  0.27490999999999993  1.0000
  H   H8        1.0  0.5194600000000003  0.29371  0.22663  1.0000
  C   C1        1.0  0.77653  0.17048  0.6866099999999999  1.0000
  C   C2        1.0  0.9772900000000001  0.17717000000000002  0.69922  1.0000
  C   C3        1.0  0.06919  0.22739  0.76378  1.0000
  C   C4        1.0  0.96539  0.27205  0.8141  1.0000
  C   C5        1.0  0.76515  0.26503  0.79997  1.0000
  C   C6        1.0  0.6726700000000002  0.21284  0.7373599999999999  1.0000
  C   C7        1.0  0.67126  0.11943  0.61741  1.0000
  C   C8        1.0  0.08472  0.13044  0.64225  1.0000
  C   C9        1.0  0.06425000000000004  0.33171  0.88019  1.0000
  C   C10       1.0  0.6490600000000001  0.31111  0.85185  1.0000
  C   C11       1.0  0.22348000000000012  0.67048  0.81338  1.0000
  C   C12       1.0  0.022719999999999997  0.67717  0.80077  1.0000
  C   C13       1.0  0.93081  0.7274  0.73622  1.0000
  C   C14       1.0  0.03460999999999996  0.77205  0.68589  1.0000
  C   C15       1.0  0.23486000000000012  0.76503  0.70002  1.0000
  C   C16       1.0  0.32734000000000013  0.7128400000000003  0.76263  1.0000
  C   C17       1.0  0.32875000000000004  0.61943  0.88259  1.0000
  C   C18       1.0  0.9152800000000002  0.63044  0.85775  1.0000
  C   C19       1.0  0.93576  0.8317100000000002  0.6198  1.0000
  C   C20       1.0  0.35095  0.81111  0.64815  1.0000
  C   C21       1.0  0.22348000000000007  0.82952  0.31339  1.0000
  C   C22       1.0  0.022719999999999997  0.82283  0.30077  1.0000
  C   C23       1.0  0.93081  0.77261  0.23622  1.0000
  C   C24       1.0  0.03461  0.72795  0.18589  1.0000
  C   C25       1.0  0.23486000000000007  0.73497  0.20002  1.0000
  C   C26       1.0  0.32734000000000013  0.7871600000000002  0.26263  1.0000
  C   C27       1.0  0.3287500000000001  0.88058  0.38259  1.0000
  C   C28       1.0  0.9152800000000002  0.8695600000000001  0.35775  1.0000
  C   C29       1.0  0.93576  0.6682900000000003  0.11981  1.0000
  C   C30       1.0  0.35095  0.68889  0.14815  1.0000
  C   C31       1.0  0.77653  0.32952  0.18661  1.0000
  C   C32       1.0  0.9772800000000003  0.32283  0.19923  1.0000
  C   C33       1.0  0.06919000000000003  0.27261  0.26378  1.0000
  C   C34       1.0  0.96539  0.22795  0.3141  1.0000
  C   C35       1.0  0.7651500000000004  0.23497  0.29997  1.0000
  C   C36       1.0  0.6726700000000002  0.28716  0.23735999999999996  1.0000
  C   C37       1.0  0.67125  0.38057000000000013  0.11740999999999999  1.0000
  C   C38       1.0  0.08472000000000002  0.36956  0.14225  1.0000
  C   C39       1.0  0.06425000000000003  0.16829  0.38019  1.0000
  C   C40       1.0  0.6490600000000001  0.18889  0.35185  1.0000
  O   O1        1.0  0.571  0.16911000000000004  0.56644  1.0000
  O   O2        1.0  0.69514  0.02849000000000001  0.62127  1.0000
  O   O3        1.0  0.9918899999999999  0.12527  0.57288  1.0000
  O   O4        1.0  0.24696999999999994  0.09967  0.66666  1.0000
  O   O5        1.0  0.2291  0.30495  0.91087  1.0000
  O   O6        1.0  0.9725899999999998  0.40451  0.89748  1.0000
  O   O7        1.0  0.6662  0.28099  0.9209799999999999  1.0000
  O   O8        1.0  0.53214  0.3766  0.82613  1.0000
  O   O9        1.0  0.6916200000000002  0.99112  0.48155999999999993  1.0000
  O   O10       1.0  0.429  0.66911  0.93355  1.0000
  O   O11       1.0  0.30486  0.52849  0.87872  1.0000
  O   O12       1.0  0.00811999999999996  0.62527  0.92711  1.0000
  O   O13       1.0  0.7530400000000003  0.59967  0.83333  1.0000
  O   O14       1.0  0.77091  0.80495  0.58912  1.0000
  O   O15       1.0  0.027419999999999996  0.9045200000000002  0.60251  1.0000
  O   O16       1.0  0.33381  0.7809900000000002  0.57901  1.0000
  O   O17       1.0  0.4678700000000001  0.87661  0.67386  1.0000
  O   O18       1.0  0.3083900000000001  0.49111  0.01844  1.0000
  O   O19       1.0  0.429  0.8308900000000001  0.43355  1.0000
  O   O20       1.0  0.30486  0.9715200000000003  0.37872  1.0000
  O   O21       1.0  0.00811999999999999  0.87474  0.42711  1.0000
  O   O22       1.0  0.7530400000000002  0.90033  0.33334  1.0000
  O   O23       1.0  0.77091  0.69506  0.08912  1.0000
  O   O24       1.0  0.02742  0.59549  0.10251  1.0000
  O   O25       1.0  0.33381  0.7190200000000001  0.07901  1.0000
  O   O26       1.0  0.4678700000000001  0.6234  0.17387  1.0000
  O   O27       1.0  0.3083900000000001  0.00889  0.51844  1.0000
  O   O28       1.0  0.571  0.33089  0.06645  1.0000
  O   O29       1.0  0.69514  0.47152000000000005  0.12126999999999999  1.0000
  O   O30       1.0  0.9918800000000001  0.37473  0.07289  1.0000
  O   O31       1.0  0.24696000000000004  0.40033  0.16666  1.0000
  O   O32       1.0  0.2291  0.19505  0.41088  1.0000
  O   O33       1.0  0.97259  0.09549  0.39747999999999994  1.0000
  O   O34       1.0  0.6661900000000001  0.21901000000000007  0.42099  1.0000
  O   O35       1.0  0.53214  0.12340000000000002  0.32613  1.0000
  O   O36       1.0  0.6916200000000001  0.50889  0.9815499999999999  1.0000
