data_image0
_chemical_formula_structural       Gd4H16C48O24
_chemical_formula_sum              "Gd4 H16 C48 O24"
_cell_length_a       8.73638
_cell_length_b       9.33977
_cell_length_c       18.41298
_cell_angle_alpha    89.99013
_cell_angle_beta     89.97962
_cell_angle_gamma    108.45392

_symmetry_space_group_name_H-M    'P 1'
_symmetry_Int_Tables_number       1

loop_
  _symmetry_equiv_pos_as_xyz
  'x,y,z'

loop_
  _atom_site_type_symbol
  _atom_site_label
  _atom_site_symmetry_multiplicity
  _atom_site_fract_x
  _atom_site_fract_y
  _atom_site_fract_z
  _atom_site_occupancy
  Gd  Gd1       1.0  0.20409  0.4897  0.55161  1.0000
  Gd  Gd2       1.0  0.79557  0.00986  0.05237999999999999  1.0000
  Gd  Gd3       1.0  0.20442999999999995  0.99015  0.94763  1.0000
  Gd  Gd4       1.0  0.7959100000000002  0.5103  0.44839  1.0000
  H   H1        1.0  0.22570000000000004  0.45431000000000005  0.06721  1.0000
  H   H2        1.0  0.22548999999999997  0.95338  0.43293  1.0000
  H   H3        1.0  0.56029  0.56703  0.71491  1.0000
  H   H4        1.0  0.56043  0.06821  0.7850699999999998  1.0000
  H   H5        1.0  0.74086  0.15891  0.67722  1.0000
  H   H6        1.0  0.7743  0.54569  0.93279  1.0000
  H   H7        1.0  0.43971  0.43297  0.28508999999999995  1.0000
  H   H8        1.0  0.25931  0.3419  0.17735999999999996  1.0000
  H   H9        1.0  0.91589  0.02673  0.31393  1.0000
  H   H10       1.0  0.08411999999999999  0.9732699999999999  0.68607  1.0000
  H   H11       1.0  0.7406899999999998  0.6581  0.8226399999999998  1.0000
  H   H12       1.0  0.91495  0.52677  0.186  1.0000
  H   H13       1.0  0.25914  0.8411  0.3227899999999999  1.0000
  H   H14       1.0  0.4395800000000001  0.9317900000000001  0.21493999999999994  1.0000
  H   H15       1.0  0.08504999999999999  0.47322999999999993  0.814  1.0000
  H   H16       1.0  0.77451  0.04662  0.56707  1.0000
  C   C1        1.0  0.27619  0.28446  0.3601299999999999  1.0000
  C   C2        1.0  0.028560000000000023  0.87656  0.8246  1.0000
  C   C3        1.0  0.22410000000000002  0.2949  0.23107999999999998  1.0000
  C   C4        1.0  0.38588  0.84922  0.07774  1.0000
  C   C5        1.0  0.67675  0.15536  0.79068  1.0000
  C   C6        1.0  0.029019999999999976  0.37698  0.6751599999999999  1.0000
  C   C7        1.0  0.72381  0.71554  0.63988  1.0000
  C   C8        1.0  0.93985  0.61463  0.02163  1.0000
  C   C9        1.0  0.12919  0.47786999999999996  0.03735  1.0000
  C   C10       1.0  0.2236  0.79418  0.26908  1.0000
  C   C11       1.0  0.67624  0.65474  0.7092099999999999  1.0000
  C   C12       1.0  0.27556  0.78446  0.13994999999999996  1.0000
  C   C13       1.0  0.06975  0.09178  0.43948999999999994  1.0000
  C   C14       1.0  0.92423  0.32059  0.73955  1.0000
  C   C15       1.0  0.9235299999999999  0.82  0.76039  1.0000
  C   C16       1.0  0.88898  0.75017  0.03327999999999999  1.0000
  C   C17       1.0  0.9706800000000001  0.88214  0.69156  1.0000
  C   C18       1.0  0.32376  0.34526  0.29079  1.0000
  C   C19       1.0  0.12627  0.67025  0.13061  1.0000
  C   C20       1.0  0.8729  0.83009  0.63064  1.0000
  C   C21       1.0  0.87077  0.02262  0.5371999999999999  1.0000
  C   C22       1.0  0.06015000000000003  0.38537  0.9783699999999999  1.0000
  C   C23       1.0  0.07647  0.18  0.23961999999999997  1.0000
  C   C24       1.0  0.9715099999999999  0.38221  0.80844  1.0000
  C   C25       1.0  0.9401899999999999  0.11468  0.47808  1.0000
  C   C26       1.0  0.7759000000000001  0.7051  0.7689299999999998  1.0000
  C   C27       1.0  0.87373  0.32975  0.8693899999999999  1.0000
  C   C28       1.0  0.0693  0.59216  0.06045  1.0000
  C   C29       1.0  0.87081  0.52213  0.9626499999999998  1.0000
  C   C30       1.0  0.61412  0.15078  0.9222599999999999  1.0000
  C   C31       1.0  0.9714399999999999  0.12345000000000002  0.1754  1.0000
  C   C32       1.0  0.07577000000000006  0.67942  0.26045  1.0000
  C   C33       1.0  0.97098  0.62302  0.32484  1.0000
  C   C34       1.0  0.12923  0.9773800000000001  0.46280999999999994  1.0000
  C   C35       1.0  0.9307  0.40784  0.93955  1.0000
  C   C36       1.0  0.7764000000000001  0.20582  0.73092  1.0000
  C   C37       1.0  0.12711  0.16991  0.36937  1.0000
  C   C38       1.0  0.72444  0.21554  0.86006  1.0000
  C   C39       1.0  0.029330000000000005  0.11786  0.30845  1.0000
  C   C40       1.0  0.11102  0.24984  0.9667199999999999  1.0000
  C   C41       1.0  0.05981000000000001  0.88533  0.52192  1.0000
  C   C42       1.0  0.61345  0.65076  0.57775  1.0000
  C   C43       1.0  0.88924  0.24997999999999998  0.46573  1.0000
  C   C44       1.0  0.32325  0.84465  0.20931999999999995  1.0000
  C   C45       1.0  0.028499999999999998  0.6178  0.19155999999999998  1.0000
  C   C46       1.0  0.93025  0.90822  0.5605099999999998  1.0000
  C   C47       1.0  0.38655  0.34924  0.42225  1.0000
  C   C48       1.0  0.11076000000000005  0.75002  0.53427  1.0000
  O   O1        1.0  0.25741  0.25504  0.9712799999999999  1.0000
  O   O2        1.0  0.67334  0.65044  0.51424  1.0000
  O   O3        1.0  0.25726  0.75545  0.5301  1.0000
  O   O4        1.0  0.46445  0.5957  0.5925599999999999  1.0000
  O   O5        1.0  0.32584  0.85036  0.014429999999999998  1.0000
  O   O6        1.0  0.9992800000000001  0.62069  0.54522  1.0000
  O   O7        1.0  0.16125999999999996  0.48635999999999996  0.6803299999999998  1.0000
  O   O8        1.0  0.9994999999999998  0.12063999999999998  0.9559699999999999  1.0000
  O   O9        1.0  0.74274  0.24455  0.46989999999999993  1.0000
  O   O10       1.0  0.5352  0.90296  0.09196  1.0000
  O   O11       1.0  0.8389  0.014559999999999998  0.18144  1.0000
  O   O12       1.0  0.83874  0.51364  0.31968  1.0000
  O   O13       1.0  0.53555  0.4043  0.4074399999999999  1.0000
  O   O14       1.0  0.0004999999999999612  0.87937  0.044029999999999986  1.0000
  O   O15       1.0  0.015490000000000002  0.18537  0.11305999999999998  1.0000
  O   O16       1.0  0.4648  0.09705  0.9080399999999998  1.0000
  O   O17       1.0  0.32666  0.34956  0.48575999999999997  1.0000
  O   O18       1.0  0.98451  0.81463  0.8869399999999998  1.0000
  O   O19       1.0  0.0007199999999999929  0.37931  0.45477999999999996  1.0000
  O   O20       1.0  0.67416  0.14964  0.9855699999999998  1.0000
  O   O21       1.0  0.1611  0.98544  0.81856  1.0000
  O   O22       1.0  0.74259  0.74496  0.028719999999999992  1.0000
  O   O23       1.0  0.01534000000000001  0.6861  0.38684  1.0000
  O   O24       1.0  0.9846600000000001  0.3139  0.61316  1.0000
