data_image0
_chemical_formula_structural       Fe4H16C32O20
_chemical_formula_sum              "Fe4 H16 C32 O20"
_cell_length_a       12.23577
_cell_length_b       12.37989
_cell_length_c       12.39692
_cell_angle_alpha    75.8993
_cell_angle_beta     60.4328
_cell_angle_gamma    60.39073

_symmetry_space_group_name_H-M    'P 1'
_symmetry_Int_Tables_number       1

loop_
  _symmetry_equiv_pos_as_xyz
  'x,y,z'

loop_
  _atom_site_type_symbol
  _atom_site_label
  _atom_site_symmetry_multiplicity
  _atom_site_fract_x
  _atom_site_fract_y
  _atom_site_fract_z
  _atom_site_occupancy
  Fe  Fe1       1.0  0.31129000000000007  0.37762  0.9999799999999999  1.0000
  Fe  Fe2       1.0  0.6888999999999998  0.62209  4e-05  1.0000
  Fe  Fe3       1.0  0.4382  0.50003  0.12349  1.0000
  Fe  Fe4       1.0  0.06174000000000011  0.50004  0.8766999999999999  1.0000
  H   H1        1.0  0.60559  0.44293  0.69191  1.0000
  H   H2        1.0  0.74027  0.55705  0.30799  1.0000
  H   H3        1.0  0.7980900000000001  0.19231  0.05712  1.0000
  H   H4        1.0  0.04743999999999997  0.80768  0.94264  1.0000
  H   H5        1.0  0.14466999999999997  0.80775  0.05723  1.0000
  H   H6        1.0  0.00989000000000011  0.19231  0.9427499999999999  1.0000
  H   H7        1.0  0.95166  0.44311999999999996  0.30794  1.0000
  H   H8        1.0  0.70267  0.55716  0.69194  1.0000
  H   H9        1.0  0.06149999999999999  0.56346  0.06282  1.0000
  H   H10       1.0  0.68715  0.43648  0.9372  1.0000
  H   H11       1.0  0.37535999999999997  0.56346  0.93735  1.0000
  H   H12       1.0  0.8761099999999999  0.43637  0.06281  1.0000
  H   H13       1.0  0.3695800000000001  0.49982  0.5  1.0000
  H   H14       1.0  0.61939  0.99994  0.9999599999999998  1.0000
  H   H15       1.0  0.38059000000000004  0.9999699999999999  0.0002  1.0000
  H   H16       1.0  0.13050999999999996  0.50016  0.50005  1.0000
  C   C1        1.0  0.36874000000000007  0.44879  0.7275  1.0000
  C   C2        1.0  0.47567000000000004  0.47241  0.60859  1.0000
  C   C3        1.0  0.59213  0.4696  0.6073899999999999  1.0000
  C   C4        1.0  0.5447900000000001  0.55137  0.27268  1.0000
  C   C5        1.0  0.5567  0.52732  0.39149  1.0000
  C   C6        1.0  0.6692200000000001  0.53015  0.3925299999999999  1.0000
  C   C7        1.0  0.5670400000000001  0.22769  0.05127999999999999  1.0000
  C   C8        1.0  0.6979500000000001  0.10875999999999998  0.02739  1.0000
  C   C9        1.0  0.81156  0.10763  0.03027  1.0000
  C   C10       1.0  0.8459700000000001  0.7722899999999999  0.94876  1.0000
  C   C11       1.0  0.8340499999999996  0.8913299999999998  0.97251  1.0000
  C   C12       1.0  0.9494499999999999  0.8923999999999999  0.9695799999999999  1.0000
  C   C13       1.0  0.38180000000000014  0.7722599999999998  0.051189999999999986  1.0000
  C   C14       1.0  0.27458  0.8912599999999999  0.02755  1.0000
  C   C15       1.0  0.15810000000000007  0.8923999999999999  0.03042  1.0000
  C   C16       1.0  0.20534  0.22766  0.94867  1.0000
  C   C17       1.0  0.19337  0.10869  0.9726699999999998  1.0000
  C   C18       1.0  0.08089999999999996  0.10761  0.96974  1.0000
  C   C19       1.0  0.18248000000000006  0.4488  0.2725  1.0000
  C   C20       1.0  0.05187999999999996  0.47273999999999994  0.39136  1.0000
  C   C21       1.0  0.93829  0.46985999999999994  0.3925199999999999  1.0000
  C   C22       1.0  0.90399  0.55123  0.7274299999999999  1.0000
  C   C23       1.0  0.9159500000000002  0.52756  0.6084899999999999  1.0000
  C   C24       1.0  0.8006399999999999  0.53035  0.6074  1.0000
  C   C25       1.0  0.4583800000000001  0.4998099999999999  0.50003  1.0000
  C   C26       1.0  0.68961  0.49993999999999994  0.49997  1.0000
  C   C27       1.0  0.70815  2e-05  2.9999999999999997e-05  1.0000
  C   C28       1.0  0.9395  0.0  2e-05  1.0000
  C   C29       1.0  0.29175  0.0  0.00019  1.0000
  C   C30       1.0  0.06052000000000005  0.99999  0.9999899999999999  1.0000
  C   C31       1.0  0.041770000000000036  0.50011  0.49994999999999995  1.0000
  C   C32       1.0  0.8105600000000001  0.49997  0.49997  1.0000
  O   O1        1.0  0.4078900000000002  0.3903599999999999  0.81197  1.0000
  O   O2        1.0  0.2467000000000002  0.4906399999999999  0.7355099999999999  1.0000
  O   O3        1.0  0.61013  0.6097  0.18820999999999996  1.0000
  O   O4        1.0  0.47254000000000007  0.50957  0.26462  1.0000
  O   O5        1.0  0.54646  0.31171  0.11124  1.0000
  O   O6        1.0  0.48774000000000006  0.23619999999999994  0.00807  1.0000
  O   O7        1.0  0.96942  0.68827  0.8887999999999998  1.0000
  O   O8        1.0  0.73218  0.76349  0.99191  1.0000
  O   O9        1.0  0.34246000000000004  0.68824  0.11118999999999998  1.0000
  O   O10       1.0  0.50434  0.7636199999999999  0.00799  1.0000
  O   O11       1.0  0.14177000000000003  0.31167  0.8887999999999998  1.0000
  O   O12       1.0  0.2761100000000001  0.23635  0.99178  1.0000
  O   O13       1.0  0.20164  0.39037999999999995  0.18807  1.0000
  O   O14       1.0  0.26271  0.49062  0.26451  1.0000
  O   O15       1.0  0.7803400000000003  0.60952  0.8119499999999997  1.0000
  O   O16       1.0  0.01800000000000004  0.50938  0.73547  1.0000
  O   O17       1.0  0.12600000000000014  0.5003999999999998  0.99847  1.0000
  O   O18       1.0  0.62417  0.49997  0.00115  1.0000
  O   O19       1.0  0.3744300000000001  0.50003  0.00127  1.0000
  O   O20       1.0  0.8757599999999998  0.4996999999999999  0.99877  1.0000
