data_image0
_chemical_formula_structural       Zn4H12C32O16
_chemical_formula_sum              "Zn4 H12 C32 O16"
_cell_length_a       8.00789
_cell_length_b       10.43777
_cell_length_c       12.65765
_cell_angle_alpha    90.41629
_cell_angle_beta     89.58846999999999
_cell_angle_gamma    106.88759999999999

_symmetry_space_group_name_H-M    'P 1'
_symmetry_Int_Tables_number       1

loop_
  _symmetry_equiv_pos_as_xyz
  'x,y,z'

loop_
  _atom_site_type_symbol
  _atom_site_label
  _atom_site_symmetry_multiplicity
  _atom_site_fract_x
  _atom_site_fract_y
  _atom_site_fract_z
  _atom_site_occupancy
  Zn  Zn1       1.0  0.4956200000000001  0.19218  0.7637000000000002  1.0000
  Zn  Zn2       1.0  0.16902999999999999  0.12655  0.9454200000000003  1.0000
  Zn  Zn3       1.0  0.50438  0.8078199999999999  0.2363  1.0000
  Zn  Zn4       1.0  0.83098  0.8734499999999998  0.05458  1.0000
  H   H1        1.0  0.9896700000000003  0.10093000000000002  0.66206  1.0000
  H   H2        1.0  0.8747100000000002  0.05537  0.4776400000000001  1.0000
  H   H3        1.0  0.57824  0.59712  0.74467  1.0000
  H   H4        1.0  0.42500000000000004  0.75603  0.5962  1.0000
  H   H5        1.0  0.78292  0.47853  0.99463  1.0000
  H   H6        1.0  0.4217600000000002  0.40288000000000007  0.25533  1.0000
  H   H7        1.0  0.77671  0.23703  0.99506  1.0000
  H   H8        1.0  0.21709  0.52146  0.00537  1.0000
  H   H9        1.0  0.575  0.24397  0.4038000000000001  1.0000
  H   H10       1.0  0.22329  0.76297  0.004940000000000002  1.0000
  H   H11       1.0  0.01034000000000002  0.89906  0.33794  1.0000
  H   H12       1.0  0.12528999999999993  0.9446199999999999  0.52236  1.0000
  C   C1        1.0  0.1343500000000001  0.97354  0.35336000000000006  1.0000
  C   C2        1.0  0.14236  0.02462  0.16228  1.0000
  C   C3        1.0  0.29716  0.59124  0.94893  1.0000
  C   C4        1.0  0.61281  0.85403  0.71483  1.0000
  C   C5        1.0  0.22531  0.04821  0.26852  1.0000
  C   C6        1.0  0.7028400000000001  0.40876  0.05107  1.0000
  C   C7        1.0  0.49824  0.36558  0.19798  1.0000
  C   C8        1.0  0.40596999999999994  0.8155299999999999  0.8759  1.0000
  C   C9        1.0  0.59403  0.18446  0.12410000000000003  1.0000
  C   C10       1.0  0.58796  0.8667900000000001  0.41570000000000007  1.0000
  C   C11       1.0  0.30143  0.72531  0.9487600000000003  1.0000
  C   C12       1.0  0.35434  0.09916  0.47386  1.0000
  C   C13       1.0  0.50177  0.63442  0.8020200000000002  1.0000
  C   C14       1.0  0.6985700000000002  0.27468  0.051240000000000015  1.0000
  C   C15       1.0  0.60217  0.45479  0.12519  1.0000
  C   C16       1.0  0.45082  0.16928  0.38849  1.0000
  C   C17       1.0  0.54919  0.83071  0.6115100000000001  1.0000
  C   C18       1.0  0.38719  0.14597  0.28517  1.0000
  C   C19       1.0  0.8028  0.0005299999999999998  0.54429  1.0000
  C   C20       1.0  0.5086100000000002  0.77017  0.80117  1.0000
  C   C21       1.0  0.86565  0.02646  0.64664  1.0000
  C   C22       1.0  0.60424  0.04415  0.12229000000000001  1.0000
  C   C23       1.0  0.41204  0.13320999999999997  0.5843  1.0000
  C   C24       1.0  0.64567  0.90084  0.52614  1.0000
  C   C25       1.0  0.85764  0.9753800000000001  0.8377200000000002  1.0000
  C   C26       1.0  0.39575999999999995  0.9558499999999999  0.87771  1.0000
  C   C27       1.0  0.38988000000000006  0.40063000000000004  0.87014  1.0000
  C   C28       1.0  0.39783  0.54521  0.87481  1.0000
  C   C29       1.0  0.49139999999999995  0.22983  0.19883000000000006  1.0000
  C   C30       1.0  0.7746900000000003  0.9517900000000001  0.73148  1.0000
  C   C31       1.0  0.19721  0.99947  0.45571000000000006  1.0000
  C   C32       1.0  0.61012  0.59936  0.12986  1.0000
  O   O1        1.0  0.3017600000000002  0.09109  0.6601000000000001  1.0000
  O   O2        1.0  0.04090999999999999  0.90749  0.14266000000000004  1.0000
  O   O3        1.0  0.95909  0.09251  0.8573400000000002  1.0000
  O   O4        1.0  0.27382  0.31951  0.92572  1.0000
  O   O5        1.0  0.8249000000000002  0.87552  0.89999  1.0000
  O   O6        1.0  0.69824  0.90891  0.33990000000000004  1.0000
  O   O7        1.0  0.5673900000000002  0.20620000000000002  0.6050800000000001  1.0000
  O   O8        1.0  0.43261  0.79379  0.39492000000000005  1.0000
  O   O9        1.0  0.53217  0.05104  0.85195  1.0000
  O   O10       1.0  0.75022  0.028330000000000004  0.09499  1.0000
  O   O11       1.0  0.4678300000000002  0.9489600000000001  0.14805  1.0000
  O   O12       1.0  0.24977999999999992  0.97166  0.90501  1.0000
  O   O13       1.0  0.72618  0.68049  0.07428  1.0000
  O   O14       1.0  0.50085  0.36966  0.8091  1.0000
  O   O15       1.0  0.17510000000000006  0.12448000000000001  0.10001  1.0000
  O   O16       1.0  0.49915000000000015  0.63034  0.1909  1.0000
