data_image0
_chemical_formula_structural       La4H16C24O24
_chemical_formula_sum              "La4 H16 C24 O24"
_cell_length_a       8.22306
_cell_length_b       12.151900000000001
_cell_length_c       13.56632
_cell_angle_alpha    65.32745
_cell_angle_beta     91.54317
_cell_angle_gamma    82.05542

_space_group_name_H-M_alt    "P 1"
_space_group_IT_number       1

loop_
  _space_group_symop_operation_xyz
  'x, y, z'

loop_
  _atom_site_type_symbol
  _atom_site_label
  _atom_site_symmetry_multiplicity
  _atom_site_fract_x
  _atom_site_fract_y
  _atom_site_fract_z
  _atom_site_occupancy
  La  La1       1.0  0.04209999999999999  0.63425  0.70317  1.0000
  La  La2       1.0  0.5263600000000003  0.6456999999999999  0.7425000000000002  1.0000
  La  La3       1.0  0.9578900000000004  0.36575  0.29684  1.0000
  La  La4       1.0  0.47364  0.35429  0.25751  1.0000
  H   H1        1.0  0.27294  0.2883899999999999  0.8582199999999999  1.0000
  H   H2        1.0  0.39538  0.23853999999999995  0.98299  1.0000
  H   H3        1.0  0.04261999999999998  0.39164000000000004  0.9252199999999999  1.0000
  H   H4        1.0  0.09262000000000001  0.23544  0.01062  1.0000
  H   H5        1.0  0.70657  0.05403000000000001  0.63858  1.0000
  H   H6        1.0  0.9010000000000001  0.96804  0.63892  1.0000
  H   H7        1.0  0.61084  0.048970000000000014  0.46066  1.0000
  H   H8        1.0  0.8011299999999999  0.96094  0.46455  1.0000
  H   H9        1.0  0.7270900000000002  0.7116  0.1418  1.0000
  H   H10       1.0  0.6045999999999999  0.7614700000000001  0.01704  1.0000
  H   H11       1.0  0.95737  0.60836  0.0748  1.0000
  H   H12       1.0  0.9073699999999999  0.76455  0.98938  1.0000
  H   H13       1.0  0.29347  0.94596  0.36141  1.0000
  H   H14       1.0  0.09902000000000002  0.03195  0.36105  1.0000
  H   H15       1.0  0.38915  0.95105  0.53933  1.0000
  H   H16       1.0  0.19883  0.03907999999999999  0.53542  1.0000
  C   C1        1.0  0.37494999999999995  0.42754000000000003  0.87869  1.0000
  C   C2        1.0  0.29976  0.31184999999999996  0.92662  1.0000
  C   C3        1.0  0.14246  0.3219  0.9817799999999999  1.0000
  C   C4        1.0  0.16434  0.35235  0.07852  1.0000
  C   C5        1.0  0.85846  0.4539400000000002  0.6758499999999998  1.0000
  C   C6        1.0  0.76614  0.40341999999999995  0.61806  1.0000
  C   C7        1.0  0.6918099999999999  0.37932000000000005  0.55261  1.0000
  C   C8        1.0  0.6219000000000002  0.36394999999999994  0.46118  1.0000
  C   C9        1.0  0.69712  0.86869  0.6647800000000001  1.0000
  C   C10       1.0  0.76853  0.98557  0.61318  1.0000
  C   C11       1.0  0.74204  0.03167  0.48899  1.0000
  C   C12       1.0  0.81147  0.14656  0.42601  1.0000
  C   C13       1.0  0.6250500000000002  0.57247  0.12132  1.0000
  C   C14       1.0  0.70024  0.68816  0.0734  1.0000
  C   C15       1.0  0.8575300000000005  0.67809  0.01823  1.0000
  C   C16       1.0  0.83566  0.64765  0.92148  1.0000
  C   C17       1.0  0.14152  0.54606  0.32416  1.0000
  C   C18       1.0  0.23387000000000002  0.59659  0.38191  1.0000
  C   C19       1.0  0.30824  0.6207200000000002  0.44738  1.0000
  C   C20       1.0  0.3780900000000002  0.63604  0.53883  1.0000
  C   C21       1.0  0.30286  0.13132000000000002  0.33518999999999993  1.0000
  C   C22       1.0  0.23148  0.014430000000000007  0.38679  1.0000
  C   C23       1.0  0.25796  0.96834  0.51099  1.0000
  C   C24       1.0  0.18853000000000003  0.85344  0.57398  1.0000
  O   O1        1.0  0.27858  0.53389  0.84086  1.0000
  O   O2        1.0  0.5279000000000001  0.42211  0.87007  1.0000
  O   O3        1.0  0.7786300000000003  0.5234300000000001  0.71494  1.0000
  O   O4        1.0  0.014799999999999975  0.43824  0.68003  1.0000
  O   O5        1.0  0.76984  0.7715300000000002  0.6557  1.0000
  O   O6        1.0  0.5642799999999999  0.8664300000000003  0.70958  1.0000
  O   O7        1.0  0.30287  0.37682  0.09987999999999998  1.0000
  O   O8        1.0  0.04016  0.3514  0.13338  1.0000
  O   O9        1.0  0.75482  0.21271  0.32443  1.0000
  O   O10       1.0  0.9247700000000002  0.17832000000000006  0.46868  1.0000
  O   O11       1.0  0.51121  0.29915  0.46939  1.0000
  O   O12       1.0  0.68179  0.42269  0.37006999999999995  1.0000
  O   O13       1.0  0.72142  0.46611  0.15916  1.0000
  O   O14       1.0  0.4721  0.5779  0.12994  1.0000
  O   O15       1.0  0.22137  0.47658  0.28506  1.0000
  O   O16       1.0  0.9851700000000001  0.5617499999999999  0.31998  1.0000
  O   O17       1.0  0.23014  0.22845999999999997  0.34429  1.0000
  O   O18       1.0  0.4357  0.13357  0.29039  1.0000
  O   O19       1.0  0.69712  0.62319  0.90011  1.0000
  O   O20       1.0  0.9598499999999999  0.6486  0.86663  1.0000
  O   O21       1.0  0.24517999999999995  0.78729  0.67555  1.0000
  O   O22       1.0  0.07523  0.82168  0.5313  1.0000
  O   O23       1.0  0.48878  0.70085  0.5306  1.0000
  O   O24       1.0  0.3182100000000001  0.57731  0.62995  1.0000
