data_image0
_chemical_formula_structural       Mg6H36C24O24
_chemical_formula_sum              "Mg6 H36 C24 O24"
_cell_length_a       8.41995
_cell_length_b       8.42031
_cell_length_c       21.14772
_cell_angle_alpha    95.95830000000001
_cell_angle_beta     96.93343
_cell_angle_gamma    119.28838000000002

_symmetry_space_group_name_H-M    'P 1'
_symmetry_Int_Tables_number       1

loop_
  _symmetry_equiv_pos_as_xyz
  'x,y,z'

loop_
  _atom_site_type_symbol
  _atom_site_label
  _atom_site_symmetry_multiplicity
  _atom_site_fract_x
  _atom_site_fract_y
  _atom_site_fract_z
  _atom_site_occupancy
  Mg  Mg1       1.0  0.30369  0.29288  0.66373  1.0000
  Mg  Mg2       1.0  0.69448  0.67835  0.33065  1.0000
  Mg  Mg3       1.0  0.1256  0.61711  0.16542  1.0000
  Mg  Mg4       1.0  0.39122  0.87476  0.8365300000000001  1.0000
  Mg  Mg5       1.0  0.7536100000000001  0.25597000000000003  0.49774000000000007  1.0000
  Mg  Mg6       1.0  0.99846  0.01605  0.00198  1.0000
  H   H1        1.0  0.78253  0.7225  0.60798  1.0000
  H   H2        1.0  0.90712  0.6126  0.58268  1.0000
  H   H3        1.0  0.73503  0.61005  0.52585  1.0000
  H   H4        1.0  0.42011  0.61774  0.58794  1.0000
  H   H5        1.0  0.29589999999999994  0.73795  0.59159  1.0000
  H   H6        1.0  0.34415  0.64859  0.65969  1.0000
  H   H7        1.0  0.017750000000000023  0.1811  0.73659  1.0000
  H   H8        1.0  0.94287  0.30061  0.78951  1.0000
  H   H9        1.0  0.9599600000000001  0.34092  0.70951  1.0000
  H   H10       1.0  0.2556800000000001  0.19653000000000004  0.39571000000000006  1.0000
  H   H11       1.0  0.3897300000000001  0.08834  0.41535000000000005  1.0000
  H   H12       1.0  0.40127  0.25660000000000005  0.47301000000000004  1.0000
  H   H13       1.0  0.3731  0.57106  0.41270999999999997  1.0000
  H   H14       1.0  0.26435000000000003  0.7085  0.41067999999999993  1.0000
  H   H15       1.0  0.34912  0.65704  0.34252  1.0000
  H   H16       1.0  0.82499  0.9942099999999999  0.26349  1.0000
  H   H17       1.0  0.70227  0.07146  0.21187  1.0000
  H   H18       1.0  0.67555  0.06223000000000003  0.29317  1.0000
  H   H19       1.0  0.62177  0.05546000000000001  0.10830000000000001  1.0000
  H   H20       1.0  0.73449  0.9299  0.08428  1.0000
  H   H21       1.0  0.66293  0.02966  0.02741  1.0000
  H   H22       1.0  0.71943  0.4246500000000001  0.08423  1.0000
  H   H23       1.0  0.60107  0.55272  0.08051  1.0000
  H   H24       1.0  0.75717  0.58275  0.15273  1.0000
  H   H25       1.0  0.30423999999999995  0.9961  0.24603  1.0000
  H   H26       1.0  0.20314  0.10414  0.29177  1.0000
  H   H27       1.0  0.11143000000000002  0.0021800000000000035  0.20805  1.0000
  H   H28       1.0  0.9534299999999999  0.3856599999999999  0.8887399999999999  1.0000
  H   H29       1.0  0.07772000000000004  0.27141000000000004  0.9123300000000001  1.0000
  H   H30       1.0  0.99061  0.35238  0.9704899999999999  1.0000
  H   H31       1.0  0.5861700000000001  0.28352999999999995  0.9145399999999999  1.0000
  H   H32       1.0  0.45370000000000005  0.39622000000000007  0.9144200000000001  1.0000
  H   H33       1.0  0.42219000000000007  0.23344999999999994  0.84563  1.0000
  H   H34       1.0  0.98808  0.68612  0.75102  1.0000
  H   H35       1.0  0.88526  0.80168  0.71048  1.0000
  H   H36       1.0  0.9958599999999999  0.88371  0.79337  1.0000
  C   C1        1.0  0.63016  0.42451  0.592  1.0000
  C   C2        1.0  0.7721400000000002  0.60467  0.57693  1.0000
  C   C3        1.0  0.13371999999999998  0.44129  0.57972  1.0000
  C   C4        1.0  0.30699999999999994  0.62442  0.6066  1.0000
  C   C5        1.0  0.22178  0.47117  0.77293  1.0000
  C   C6        1.0  0.02401000000000003  0.31309  0.7519  1.0000
  C   C7        1.0  0.55987  0.35393  0.39786  1.0000
  C   C8        1.0  0.38801  0.21897  0.42039  1.0000
  C   C9        1.0  0.56594  0.85794  0.42091  1.0000
  C   C10       1.0  0.37442  0.69147  0.39587  1.0000
  C   C11       1.0  0.52514  0.8024199999999999  0.22923999999999997  1.0000
  C   C12       1.0  0.69393  0.99274  0.25021  1.0000
  C   C13       1.0  0.91186  0.21864  0.09864  1.0000
  C   C14       1.0  0.71971  0.050890000000000005  0.07934  1.0000
  C   C15       1.0  0.89322  0.70104  0.07542  1.0000
  C   C16       1.0  0.73006  0.5588599999999998  0.09937  1.0000
  C   C17       1.0  0.040450000000000014  0.80507  0.2714  1.0000
  C   C18       1.0  0.17372000000000015  0.98739  0.25419  1.0000
  C   C19       1.0  0.79012  0.10102000000000001  0.90385  1.0000
  C   C20       1.0  0.9603699999999998  0.29069  0.91892  1.0000
  C   C21       1.0  0.30697  0.10723000000000005  0.92419  1.0000
  C   C22       1.0  0.44911  0.26772  0.89895  1.0000
  C   C23       1.0  0.18549  0.9477  0.72782  1.0000
  C   C24       1.0  0.0022100000000000305  0.82072  0.74596  1.0000
  O   O1        1.0  0.52803  0.43119  0.63064  1.0000
  O   O2        1.0  0.61526  0.27361  0.56575  1.0000
  O   O3        1.0  0.11338  0.29372  0.59789  1.0000
  O   O4        1.0  0.012100000000000019  0.44134999999999996  0.53757  1.0000
  O   O5        1.0  0.2549799999999999  0.6050299999999998  0.8169699999999999  1.0000
  O   O6        1.0  0.34682  0.4689499999999999  0.74461  1.0000
  O   O7        1.0  0.54637  0.42866  0.34936  1.0000
  O   O8        1.0  0.71525  0.38389  0.42808999999999997  1.0000
  O   O9        1.0  0.70683  0.8532399999999999  0.40609  1.0000
  O   O10       1.0  0.5813  0.9983200000000001  0.45617  1.0000
  O   O11       1.0  0.39362  0.7894  0.18778  1.0000
  O   O12       1.0  0.51329  0.66659  0.25419  1.0000
  O   O13       1.0  0.9384  0.35488  0.13982  1.0000
  O   O14       1.0  0.04270999999999999  0.21728  0.07369  1.0000
  O   O15       1.0  0.056220000000000034  0.73377  0.09804  1.0000
  O   O16       1.0  0.8607000000000001  0.78195  0.03225  1.0000
  O   O17       1.0  0.94636  0.80718  0.31437  1.0000
  O   O18       1.0  0.02097000000000005  0.65557  0.24172  1.0000
  O   O19       1.0  0.65578  0.06857999999999999  0.85965  1.0000
  O   O20       1.0  0.7868899999999999  0.97869  0.93559  1.0000
  O   O21       1.0  0.27913  0.94499  0.90563  1.0000
  O   O22       1.0  0.21706  0.14076999999999998  0.96287  1.0000
  O   O23       1.0  0.18559000000000003  0.04948000000000003  0.68718  1.0000
  O   O24       1.0  0.33224  0.9527399999999999  0.75458  1.0000
