data_image0
_chemical_formula_structural       Ni2H8C12O8
_chemical_formula_sum              "Ni2 H8 C12 O8"
_cell_length_a       5.79741
_cell_length_b       7.32074
_cell_length_c       10.61023
_cell_angle_alpha    106.06577
_cell_angle_beta     107.56712
_cell_angle_gamma    89.52587000000001

_space_group_name_H-M_alt    "P 1"
_space_group_IT_number       1

loop_
  _space_group_symop_operation_xyz
  'x, y, z'

loop_
  _atom_site_type_symbol
  _atom_site_label
  _atom_site_symmetry_multiplicity
  _atom_site_fract_x
  _atom_site_fract_y
  _atom_site_fract_z
  _atom_site_occupancy
  Ni  Ni1       1.0  0.50771  0.9950899999999997  0.4963  1.0000
  Ni  Ni2       1.0  0.007120000000000032  0.5055499999999998  0.50391  1.0000
  H   H1        1.0  0.32608  0.99072  0.19446  1.0000
  H   H2        1.0  0.83493  0.13535999999999995  0.07596  1.0000
  H   H3        1.0  0.1457  0.52451  0.81879  1.0000
  H   H4        1.0  0.76138  0.36387999999999987  0.9114099999999999  1.0000
  H   H5        1.0  0.66815  0.010520000000000014  0.80437  1.0000
  H   H6        1.0  0.16270999999999994  0.8733299999999998  0.93193  1.0000
  H   H7        1.0  0.85237  0.48098999999999986  0.18377  1.0000
  H   H8        1.0  0.23428999999999994  0.63236  0.08494  1.0000
  C   C1        1.0  0.1451  0.18647  0.32159  1.0000
  C   C2        1.0  0.16727  0.07032  0.18907  1.0000
  C   C3        1.0  0.9909599999999997  0.05521  0.06902  1.0000
  C   C4        1.0  0.83778  0.32019999999999993  0.68169  1.0000
  C   C5        1.0  0.99017  0.44149  0.8171  1.0000
  C   C6        1.0  0.92694  0.4497899999999999  0.93049  1.0000
  C   C7        1.0  0.86541  0.8158399999999998  0.68439  1.0000
  C   C8        1.0  0.83153  0.9346399999999998  0.8138099999999999  1.0000
  C   C9        1.0  0.0036399999999999107  0.9513999999999999  0.9358599999999999  1.0000
  C   C10       1.0  0.1676  0.68306  0.3174  1.0000
  C   C11       1.0  0.008660000000000003  0.56123  0.18367  1.0000
  C   C12       1.0  0.06829999999999999  0.5490599999999998  0.06857  1.0000
  O   O1        1.0  0.30406  0.18361  0.43574  1.0000
  O   O2        1.0  0.97338  0.29554  0.32133  1.0000
  O   O3        1.0  0.88012  0.32266999999999996  0.57007  1.0000
  O   O4        1.0  0.66777  0.20728999999999995  0.67722  1.0000
  O   O5        1.0  0.7075299999999999  0.80773  0.56693  1.0000
  O   O6        1.0  0.048580000000000005  0.71645  0.68974  1.0000
  O   O7        1.0  0.12946999999999997  0.6877499999999998  0.4313699999999999  1.0000
  O   O8        1.0  0.34209  0.7888399999999997  0.31812  1.0000
