data_image0
_chemical_formula_structural       Ce4H16C20O32
_chemical_formula_sum              "Ce4 H16 C20 O32"
_cell_length_a       6.08045
_cell_length_b       7.63197
_cell_length_c       22.38944
_cell_angle_alpha    89.92106999999999
_cell_angle_beta     88.70527
_cell_angle_gamma    89.96806000000001

_space_group_name_H-M_alt    "P 1"
_space_group_IT_number       1

loop_
  _space_group_symop_operation_xyz
  'x, y, z'

loop_
  _atom_site_type_symbol
  _atom_site_label
  _atom_site_symmetry_multiplicity
  _atom_site_fract_x
  _atom_site_fract_y
  _atom_site_fract_z
  _atom_site_occupancy
  Ce  Ce1       1.0  0.53454  0.50042  0.85687  1.0000
  Ce  Ce2       1.0  0.46458  0.00217  0.64243  1.0000
  Ce  Ce3       1.0  0.46125  0.49674  0.14242  1.0000
  Ce  Ce4       1.0  0.5365100000000002  0.99696  0.35687  1.0000
  H   H1        1.0  0.4520500000000001  0.09251  0.88857  1.0000
  H   H2        1.0  0.31931  0.24401  0.7422700000000001  1.0000
  H   H3        1.0  0.10166999999999998  0.04033  0.8759500000000002  1.0000
  H   H4        1.0  0.02893  0.96299  0.77655  1.0000
  H   H5        1.0  0.53805  0.59209  0.61399  1.0000
  H   H6        1.0  0.6797400000000001  0.7445  0.7575700000000001  1.0000
  H   H7        1.0  0.89226  0.54324  0.62333  1.0000
  H   H8        1.0  0.9694400000000001  0.46493  0.72249  1.0000
  H   H9        1.0  0.5408499999999999  0.91515  0.11336000000000003  1.0000
  H   H10       1.0  0.68052  0.75496  0.25702  1.0000
  H   H11       1.0  0.8946100000000002  0.95916  0.12339000000000003  1.0000
  H   H12       1.0  0.97161  0.03409  0.22238000000000002  1.0000
  H   H13       1.0  0.46064000000000005  0.41211  0.38503000000000004  1.0000
  H   H14       1.0  0.31978000000000006  0.2547  0.24208  1.0000
  H   H15       1.0  0.10554000000000002  0.45778  0.37619  1.0000
  H   H16       1.0  0.030780000000000005  0.53554  0.2768900000000001  1.0000
  C   C1        1.0  0.041629999999999986  0.30111  0.8424900000000001  1.0000
  C   C2        1.0  0.17586  0.13012  0.8428100000000001  1.0000
  C   C3        1.0  0.18572000000000002  0.03248  0.7824  1.0000
  C   C4        1.0  0.37023000000000006  0.8954400000000002  0.78674  1.0000
  C   C5        1.0  0.54809  0.40207  0.00074  1.0000
  C   C6        1.0  0.95322  0.80293  0.6572300000000001  1.0000
  C   C7        1.0  0.8195  0.6324300000000002  0.6568200000000001  1.0000
  C   C8        1.0  0.8118600000000002  0.53368  0.7171  1.0000
  C   C9        1.0  0.6283899999999999  0.3959000000000001  0.7129  1.0000
  C   C10       1.0  0.43822999999999995  0.9065200000000002  0.4989900000000001  1.0000
  C   C11       1.0  0.9519  0.69829  0.15659000000000003  1.0000
  C   C12       1.0  0.8196700000000002  0.8696600000000001  0.15653  1.0000
  C   C13       1.0  0.8131300000000001  0.96672  0.21699000000000002  1.0000
  C   C14       1.0  0.62965  0.10442  0.21296  1.0000
  C   C15       1.0  0.4279400000000001  0.58202  0.9992100000000002  1.0000
  C   C16       1.0  0.046180000000000006  0.19772  0.34244  1.0000
  C   C17       1.0  0.17932  0.3683  0.34291000000000005  1.0000
  C   C18       1.0  0.18794  0.46628  0.28249  1.0000
  C   C19       1.0  0.37136  0.6037  0.28666  1.0000
  C   C20       1.0  0.5637000000000001  0.08413  0.50022  1.0000
  O   O1        1.0  0.8355  0.2909100000000001  0.8366700000000001  1.0000
  O   O2        1.0  0.14823  0.44223  0.84936  1.0000
  O   O3        1.0  0.39546999999999993  0.17685  0.8601000000000001  1.0000
  O   O4        1.0  0.22040999999999997  0.14204  0.7311100000000003  1.0000
  O   O5        1.0  0.36704000000000003  0.79179  0.8304500000000001  1.0000
  O   O6        1.0  0.5212700000000001  0.8989  0.7458100000000001  1.0000
  O   O7        1.0  0.6300500000000002  0.3482  0.95155  1.0000
  O   O8        1.0  0.55462  0.32531  0.05097000000000001  1.0000
  O   O9        1.0  0.15857000000000002  0.79226  0.6633500000000001  1.0000
  O   O10       1.0  0.8457599999999998  0.94411  0.65037  1.0000
  O   O11       1.0  0.60037  0.68092  0.63972  1.0000
  O   O12       1.0  0.7784200000000002  0.64195  0.7686400000000002  1.0000
  O   O13       1.0  0.63228  0.29187  0.6694200000000001  1.0000
  O   O14       1.0  0.47741000000000006  0.39909  0.75383  1.0000
  O   O15       1.0  0.36036  0.85072  0.54848  1.0000
  O   O16       1.0  0.4241100000000001  0.83248  0.4485500000000001  1.0000
  O   O17       1.0  0.15717  0.70743  0.16353  1.0000
  O   O18       1.0  0.8441700000000002  0.55793  0.1484  1.0000
  O   O19       1.0  0.59958  0.82475  0.13935  1.0000
  O   O20       1.0  0.77877  0.85737  0.26829  1.0000
  O   O21       1.0  0.63268  0.20856  0.16938  1.0000
  O   O22       1.0  0.47835000000000005  0.10073  0.25386000000000003  1.0000
  O   O23       1.0  0.34559  0.63662  0.04825  1.0000
  O   O24       1.0  0.4229500000000001  0.65914  0.9490300000000002  1.0000
  O   O25       1.0  0.84045  0.20796  0.33645  1.0000
  O   O26       1.0  0.15422000000000005  0.05668  0.349  1.0000
  O   O27       1.0  0.39827000000000007  0.32023  0.36049  1.0000
  O   O28       1.0  0.22125  0.35748  0.23102000000000006  1.0000
  O   O29       1.0  0.36756000000000005  0.70742  0.33035  1.0000
  O   O30       1.0  0.52214  0.60058  0.24566000000000002  1.0000
  O   O31       1.0  0.65319  0.13393  0.4514300000000001  1.0000
  O   O32       1.0  0.5657000000000001  0.16491  0.54971  1.0000
