data_image0
_chemical_formula_structural       Zn2H32C52N4O8
_chemical_formula_sum              "Zn2 H32 C52 N4 O8"
_cell_length_a       4.68079
_cell_length_b       15.18454
_cell_length_c       19.53653
_cell_angle_alpha    98.91282
_cell_angle_beta     89.76489999999998
_cell_angle_gamma    99.27842

_space_group_name_H-M_alt    "P 1"
_space_group_IT_number       1

loop_
  _space_group_symop_operation_xyz
  'x, y, z'

loop_
  _atom_site_type_symbol
  _atom_site_label
  _atom_site_symmetry_multiplicity
  _atom_site_fract_x
  _atom_site_fract_y
  _atom_site_fract_z
  _atom_site_occupancy
  Zn  Zn1       1.0  0.5909100000000002  0.99878  0.74897  1.0000
  Zn  Zn2       1.0  0.40909  0.0012099999999999986  0.25103  1.0000
  H   H1        1.0  0.31444000000000016  0.6472300000000002  0.6735  1.0000
  H   H2        1.0  0.07741000000000012  0.8242800000000002  0.63076  1.0000
  H   H3        1.0  0.22789  0.70048  0.54314  1.0000
  H   H4        1.0  0.46314  0.52154  0.58804  1.0000
  H   H5        1.0  0.03008999999999999  0.89827  0.79712  1.0000
  H   H6        1.0  0.70475  0.08391  0.89398  1.0000
  H   H7        1.0  0.45505  0.09561000000000003  0.00669  1.0000
  H   H8        1.0  0.75436  0.89658  0.9061800000000001  1.0000
  H   H9        1.0  0.67497  0.35139  0.8252100000000001  1.0000
  H   H10       1.0  0.25538000000000005  0.17524000000000006  0.86713  1.0000
  H   H11       1.0  0.53071  0.29872  0.9549800000000002  1.0000
  H   H12       1.0  0.9472200000000001  0.47656  0.91196  1.0000
  H   H13       1.0  0.13881000000000002  0.10075000000000005  0.7027500000000001  1.0000
  H   H14       1.0  0.6158500000000001  0.9143400000000003  0.60408  1.0000
  H   H15       1.0  0.35401  0.90358  0.49204  1.0000
  H   H16       1.0  0.86427  0.10328  0.59461  1.0000
  H   H17       1.0  0.6855600000000002  0.3527700000000001  0.32650000000000007  1.0000
  H   H18       1.0  0.9225800000000001  0.17571  0.36924  1.0000
  H   H19       1.0  0.7721100000000001  0.2995100000000001  0.45686  1.0000
  H   H20       1.0  0.53686  0.47846  0.41196000000000005  1.0000
  H   H21       1.0  0.96991  0.10173  0.20288  1.0000
  H   H22       1.0  0.29524000000000017  0.9160900000000003  0.10602000000000002  1.0000
  H   H23       1.0  0.5449500000000002  0.90439  0.99332  1.0000
  H   H24       1.0  0.24564  0.10341  0.09382  1.0000
  H   H25       1.0  0.32503  0.64861  0.17479  1.0000
  H   H26       1.0  0.74462  0.82475  0.13287  1.0000
  H   H27       1.0  0.46929  0.70127  0.045020000000000004  1.0000
  H   H28       1.0  0.052769999999999956  0.52344  0.08805  1.0000
  H   H29       1.0  0.86119  0.89924  0.29726  1.0000
  H   H30       1.0  0.38414  0.08566000000000003  0.39592000000000005  1.0000
  H   H31       1.0  0.64598  0.09642  0.50796  1.0000
  H   H32       1.0  0.13573000000000013  0.8967100000000002  0.40539  1.0000
  C   C1        1.0  0.59664  0.8205  0.70212  1.0000
  C   C2        1.0  0.68564  0.7441200000000001  0.6544100000000002  1.0000
  C   C3        1.0  0.5041800000000001  0.6589900000000002  0.64206  1.0000
  C   C4        1.0  0.94712  0.75784  0.62022  1.0000
  C   C5        1.0  0.03925000000000004  0.68807  0.5747800000000001  1.0000
  C   C6        1.0  0.59638  0.58797  0.5973600000000001  1.0000
  C   C7        1.0  0.8606600000000001  0.60185  0.56346  1.0000
  C   C8        1.0  0.9565299999999999  0.5305000000000002  0.51929  1.0000
  C   C9        1.0  0.11306000000000008  0.9405  0.84517  1.0000
  C   C10       1.0  0.50061  0.04098  0.90026  1.0000
  C   C11       1.0  0.35547000000000006  0.046930000000000034  0.9635300000000001  1.0000
  C   C12       1.0  0.9560000000000002  0.9430300000000003  0.90609  1.0000
  C   C13       1.0  0.0793100000000001  0.9973500000000002  0.96779  1.0000
  C   C14       1.0  0.7801  0.1787  0.79603  1.0000
  C   C15       1.0  0.9464099999999999  0.2550100000000001  0.8439700000000001  1.0000
  C   C16       1.0  0.8517699999999999  0.33981  0.85658  1.0000
  C   C17       1.0  0.19279  0.2415  0.87807  1.0000
  C   C18       1.0  0.35525  0.31128  0.92373  1.0000
  C   C19       1.0  0.01442000000000005  0.41061  0.90184  1.0000
  C   C20       1.0  0.26388  0.3971500000000001  0.9356600000000002  1.0000
  C   C21       1.0  0.42915  0.46888  0.98046  1.0000
  C   C22       1.0  0.1761  0.05842  0.6545  1.0000
  C   C23       1.0  0.4566100000000001  0.9574400000000002  0.5984  1.0000
  C   C24       1.0  0.3056800000000002  0.9521800000000002  0.5354600000000002  1.0000
  C   C25       1.0  0.01665000000000002  0.05651000000000002  0.59402  1.0000
  C   C26       1.0  0.08218999999999999  0.0022899999999999887  0.53197  1.0000
  C   C27       1.0  0.40335  0.1795  0.29788  1.0000
  C   C28       1.0  0.31436  0.25588  0.34559  1.0000
  C   C29       1.0  0.49582000000000004  0.34101  0.35794000000000004  1.0000
  C   C30       1.0  0.05287999999999998  0.24215  0.3797800000000001  1.0000
  C   C31       1.0  0.96075  0.31193  0.42523000000000005  1.0000
  C   C32       1.0  0.40362000000000003  0.41202  0.40264  1.0000
  C   C33       1.0  0.13934000000000007  0.3981400000000001  0.43654  1.0000
  C   C34       1.0  0.043469999999999995  0.4695  0.48072000000000004  1.0000
  C   C35       1.0  0.8869400000000001  0.05949  0.15483000000000002  1.0000
  C   C36       1.0  0.4993900000000001  0.9590100000000003  0.09974  1.0000
  C   C37       1.0  0.6445200000000001  0.9530700000000002  0.03647  1.0000
  C   C38       1.0  0.044  0.05697  0.09391000000000002  1.0000
  C   C39       1.0  0.92068  0.00265  0.03222  1.0000
  C   C40       1.0  0.21988999999999992  0.8212899999999999  0.20397  1.0000
  C   C41       1.0  0.05359000000000002  0.74498  0.15604  1.0000
  C   C42       1.0  0.14823  0.66018  0.14342000000000002  1.0000
  C   C43       1.0  0.8072100000000001  0.7585000000000002  0.12194000000000002  1.0000
  C   C44       1.0  0.64475  0.68871  0.07627  1.0000
  C   C45       1.0  0.98557  0.58939  0.09816  1.0000
  C   C46       1.0  0.73612  0.60285  0.06435  1.0000
  C   C47       1.0  0.57084  0.53112  0.01954  1.0000
  C   C48       1.0  0.8239  0.94157  0.3455  1.0000
  C   C49       1.0  0.5433900000000002  0.04256000000000003  0.40160000000000007  1.0000
  C   C50       1.0  0.69432  0.047820000000000015  0.46454  1.0000
  C   C51       1.0  0.98335  0.94349  0.40599000000000013  1.0000
  C   C52       1.0  0.9178100000000002  0.9977000000000003  0.46804  1.0000
  N   N1        1.0  0.3768800000000001  0.9898800000000001  0.8418400000000001  1.0000
  N   N2        1.0  0.38713000000000003  0.008480000000000026  0.65708  1.0000
  N   N3        1.0  0.62311  0.010120000000000006  0.15816000000000002  1.0000
  N   N4        1.0  0.6128700000000001  0.99152  0.34293  1.0000
  O   O1        1.0  0.7824400000000001  0.8968600000000002  0.70827  1.0000
  O   O2        1.0  0.35960000000000003  0.81239  0.73212  1.0000
  O   O3        1.0  0.8840300000000001  0.10216000000000001  0.79099  1.0000
  O   O4        1.0  0.5558100000000001  0.18736  0.76501  1.0000
  O   O5        1.0  0.21755000000000002  0.10314  0.29173  1.0000
  O   O6        1.0  0.6404  0.1876  0.26788  1.0000
  O   O7        1.0  0.11596000000000013  0.8978400000000001  0.20901  1.0000
  O   O8        1.0  0.44418000000000024  0.8126400000000003  0.235  1.0000
