data_image0
_chemical_formula_structural       Zn10H12C40O36
_chemical_formula_sum              "Zn10 H12 C40 O36"
_cell_length_a       7.19043
_cell_length_b       14.82426
_cell_length_c       16.64708
_cell_angle_alpha    89.98564
_cell_angle_beta     90.00918
_cell_angle_gamma    97.27604

_symmetry_space_group_name_H-M    'P 1'
_symmetry_Int_Tables_number       1

loop_
  _symmetry_equiv_pos_as_xyz
  'x,y,z'

loop_
  _atom_site_type_symbol
  _atom_site_label
  _atom_site_symmetry_multiplicity
  _atom_site_fract_x
  _atom_site_fract_y
  _atom_site_fract_z
  _atom_site_occupancy
  Zn  Zn1       1.0  0.3008899999999999  0.8303400000000002  0.9943699999999999  1.0000
  Zn  Zn2       1.0  0.31087  0.02012  0.8791  1.0000
  Zn  Zn3       1.0  0.19628999999999994  0.66938  0.4946499999999999  1.0000
  Zn  Zn4       1.0  0.18757  0.4797  0.37912  1.0000
  Zn  Zn5       1.0  0.69912  0.16965  0.00563  1.0000
  Zn  Zn6       1.0  0.68914  0.97988  0.1209  1.0000
  Zn  Zn7       1.0  0.8037199999999999  0.33062000000000014  0.50536  1.0000
  Zn  Zn8       1.0  0.8124399999999998  0.52029  0.6208799999999998  1.0000
  Zn  Zn9       1.0  0.0  0.0  0.0  1.0000
  Zn  Zn10      1.0  0.5000099999999998  0.5  0.5  1.0000
  H   H1        1.0  0.08982000000000005  0.8358600000000003  0.70851  1.0000
  H   H2        1.0  0.3993299999999999  0.76269  0.7269199999999998  1.0000
  H   H3        1.0  0.33693  0.99555  0.03633  1.0000
  H   H4        1.0  0.4099900000000001  0.6640700000000003  0.20853  1.0000
  H   H5        1.0  0.10042999999999999  0.73731  0.22677  1.0000
  H   H6        1.0  0.16176999999999994  0.50412  0.53652  1.0000
  H   H7        1.0  0.9102  0.16413000000000005  0.29148999999999997  1.0000
  H   H8        1.0  0.60068  0.23730000000000007  0.27308999999999994  1.0000
  H   H9        1.0  0.66309  0.004440000000000001  0.96367  1.0000
  H   H10       1.0  0.5900199999999998  0.33592  0.79147  1.0000
  H   H11       1.0  0.89958  0.26268  0.77323  1.0000
  H   H12       1.0  0.8382399999999999  0.49587  0.46348  1.0000
  C   C1        1.0  0.9645199999999998  0.9106600000000001  0.83662  1.0000
  C   C2        1.0  0.8448899999999999  0.8533800000000002  0.77714  1.0000
  C   C3        1.0  0.9389799999999998  0.81734  0.7138199999999999  1.0000
  C   C4        1.0  0.64763  0.83093  0.78371  1.0000
  C   C5        1.0  0.8444199999999997  0.75761  0.65835  1.0000
  C   C6        1.0  0.64764  0.73926  0.66189  1.0000
  C   C7        1.0  0.5516199999999998  0.77655  0.72442  1.0000
  C   C8        1.0  0.52959  0.8686900000000002  0.84767  1.0000
  C   C9        1.0  0.5425299999999997  0.6841  0.5971099999999998  1.0000
  C   C10       1.0  0.9622399999999998  0.71991  0.59645  1.0000
  C   C11       1.0  0.53722  0.5892  0.33678  1.0000
  C   C12       1.0  0.6552700000000001  0.6466900000000002  0.27704  1.0000
  C   C13       1.0  0.56084  0.6826000000000001  0.21373  1.0000
  C   C14       1.0  0.85226  0.66908  0.28347  1.0000
  C   C15       1.0  0.65517  0.74239  0.15822  1.0000
  C   C16       1.0  0.8519900000000001  0.7606500000000003  0.16176  1.0000
  C   C17       1.0  0.94821  0.72337  0.22419999999999995  1.0000
  C   C18       1.0  0.97007  0.63171  0.3476099999999999  1.0000
  C   C19       1.0  0.95771  0.81577  0.09726  1.0000
  C   C20       1.0  0.53711  0.78036  0.09656  1.0000
  C   C21       1.0  0.03549000000000001  0.08934000000000003  0.16339  1.0000
  C   C22       1.0  0.15512  0.14662  0.22286  1.0000
  C   C23       1.0  0.06103999999999999  0.18266000000000004  0.28619  1.0000
  C   C24       1.0  0.35238999999999987  0.16907  0.21628999999999995  1.0000
  C   C25       1.0  0.15559  0.24239  0.34166  1.0000
  C   C26       1.0  0.35236999999999996  0.26074  0.3381099999999999  1.0000
  C   C27       1.0  0.4483899999999999  0.22345000000000007  0.2755899999999999  1.0000
  C   C28       1.0  0.47043  0.13131  0.15233  1.0000
  C   C29       1.0  0.45748  0.3159  0.40289  1.0000
  C   C30       1.0  0.03776999999999998  0.28009  0.40355  1.0000
  C   C31       1.0  0.46279  0.4108000000000001  0.66322  1.0000
  C   C32       1.0  0.34475  0.35331000000000007  0.72296  1.0000
  C   C33       1.0  0.4391699999999998  0.3174  0.78627  1.0000
  C   C34       1.0  0.14776  0.33092  0.71653  1.0000
  C   C35       1.0  0.34483999999999987  0.25761  0.84178  1.0000
  C   C36       1.0  0.14801999999999996  0.23935000000000006  0.8382399999999998  1.0000
  C   C37       1.0  0.05181000000000001  0.27663000000000004  0.77581  1.0000
  C   C38       1.0  0.029940000000000012  0.36829  0.6523999999999998  1.0000
  C   C39       1.0  0.04230000000000001  0.18423000000000006  0.90274  1.0000
  C   C40       1.0  0.4629  0.21964000000000006  0.9034499999999999  1.0000
  O   O1        1.0  0.12199  0.95031  0.80972  1.0000
  O   O2        1.0  0.9049499999999999  0.91271  0.9080499999999998  1.0000
  O   O3        1.0  0.54202  0.9551500000000003  0.85324  1.0000
  O   O4        1.0  0.41966  0.8106400000000002  0.88758  1.0000
  O   O5        1.0  0.5884  0.60492  0.58368  1.0000
  O   O6        1.0  0.41892  0.72177  0.55983  1.0000
  O   O7        1.0  0.98162  0.63369  0.59577  1.0000
  O   O8        1.0  0.05596000000000002  0.77238  0.54795  1.0000
  O   O9        1.0  0.26896  0.96368  0.99143  1.0000
  O   O10       1.0  0.38000999999999996  0.5492400000000002  0.31017  1.0000
  O   O11       1.0  0.59847  0.5870800000000003  0.40806  1.0000
  O   O12       1.0  0.96088  0.54531  0.3527199999999999  1.0000
  O   O13       1.0  0.07677000000000006  0.6902300000000002  0.3882899999999999  1.0000
  O   O14       1.0  0.91403  0.89526  0.08395999999999999  1.0000
  O   O15       1.0  0.08088999999999998  0.77776  0.06003  1.0000
  O   O16       1.0  0.5211  0.86686  0.09513  1.0000
  O   O17       1.0  0.4403499999999999  0.72776  0.04904  1.0000
  O   O18       1.0  0.22885999999999995  0.53621  0.49149  1.0000
  O   O19       1.0  0.8780199999999999  0.04968  0.19028  1.0000
  O   O20       1.0  0.09505999999999999  0.08729000000000003  0.09195  1.0000
  O   O21       1.0  0.45799  0.04485  0.14677  1.0000
  O   O22       1.0  0.58035  0.18935  0.11242  1.0000
  O   O23       1.0  0.41160999999999986  0.3950700000000001  0.41632  1.0000
  O   O24       1.0  0.58109  0.2782300000000001  0.44017  1.0000
  O   O25       1.0  0.018390000000000028  0.3663000000000001  0.40423  1.0000
  O   O26       1.0  0.94406  0.22762000000000004  0.45205  1.0000
  O   O27       1.0  0.73106  0.03632  0.00858  1.0000
  O   O28       1.0  0.62  0.4507600000000001  0.6898299999999998  1.0000
  O   O29       1.0  0.4015399999999999  0.4129200000000001  0.59195  1.0000
  O   O30       1.0  0.039139999999999994  0.45469  0.64729  1.0000
  O   O31       1.0  0.9232499999999996  0.30977  0.61171  1.0000
  O   O32       1.0  0.08598  0.10473  0.91604  1.0000
  O   O33       1.0  0.9191199999999998  0.22224  0.9399699999999998  1.0000
  O   O34       1.0  0.4789099999999999  0.13313  0.90487  1.0000
  O   O35       1.0  0.55967  0.27223  0.95096  1.0000
  O   O36       1.0  0.7711599999999997  0.46379  0.50851  1.0000
