data_image0
_chemical_formula_structural       Sc4H20C32O20
_chemical_formula_sum              "Sc4 H20 C32 O20"
_cell_length_a       7.4351
_cell_length_b       9.12589
_cell_length_c       19.38308
_cell_angle_alpha    89.97251999999999
_cell_angle_beta     90.0
_cell_angle_gamma    90.0

_symmetry_space_group_name_H-M    'P 1'
_symmetry_Int_Tables_number       1

loop_
  _symmetry_equiv_pos_as_xyz
  'x,y,z'

loop_
  _atom_site_type_symbol
  _atom_site_label
  _atom_site_symmetry_multiplicity
  _atom_site_fract_x
  _atom_site_fract_y
  _atom_site_fract_z
  _atom_site_occupancy
  Sc  Sc1       1.0  0.6425000000000002  0.50247  0.49949  1.0000
  Sc  Sc2       1.0  0.1425  0.49752  0.50051  1.0000
  Sc  Sc3       1.0  0.64138  0.99992  0.99932  1.0000
  Sc  Sc4       1.0  0.14138  7.000000000000001e-05  0.00068  1.0000
  H   H1        1.0  0.11690000000000003  0.23189999999999997  0.68305  1.0000
  H   H2        1.0  0.11633000000000003  0.15799  0.80797  1.0000
  H   H3        1.0  0.6678200000000002  0.29317  0.8262000000000002  1.0000
  H   H4        1.0  0.66788  0.3679  0.70142  1.0000
  H   H5        1.0  0.38877  0.71273  0.49284000000000006  1.0000
  H   H6        1.0  0.6169  0.7680900000000002  0.31695  1.0000
  H   H7        1.0  0.61633  0.842  0.19203  1.0000
  H   H8        1.0  0.16782000000000005  0.70682  0.1738  1.0000
  H   H9        1.0  0.16788000000000006  0.63209  0.29858  1.0000
  H   H10       1.0  0.8887700000000001  0.28727  0.50716  1.0000
  H   H11       1.0  0.11647  0.26828  0.18388  1.0000
  H   H12       1.0  0.11754000000000003  0.34257  0.30881  1.0000
  H   H13       1.0  0.66902  0.20663000000000006  0.32626  1.0000
  H   H14       1.0  0.6676  0.1318  0.2014  1.0000
  H   H15       1.0  0.3886400000000001  0.78841  0.9928700000000001  1.0000
  H   H16       1.0  0.61647  0.7317200000000001  0.81612  1.0000
  H   H17       1.0  0.6175400000000002  0.65743  0.69119  1.0000
  H   H18       1.0  0.16902  0.7933600000000001  0.67374  1.0000
  H   H19       1.0  0.1676  0.8682  0.7986  1.0000
  H   H20       1.0  0.88864  0.21159  0.00713  1.0000
  C   C1        1.0  0.39414  0.3506700000000001  0.61124  1.0000
  C   C2        1.0  0.39289000000000013  0.30339  0.68508  1.0000
  C   C3        1.0  0.23626000000000005  0.24492000000000003  0.71484  1.0000
  C   C4        1.0  0.23584000000000002  0.20449  0.7841900000000002  1.0000
  C   C5        1.0  0.3918300000000001  0.22208  0.82428  1.0000
  C   C6        1.0  0.5482700000000001  0.28070000000000006  0.7945  1.0000
  C   C7        1.0  0.54851  0.32143  0.72526  1.0000
  C   C8        1.0  0.39329  0.17282  0.89778  1.0000
  C   C9        1.0  0.8941400000000003  0.64933  0.38876  1.0000
  C   C10       1.0  0.8928900000000002  0.69661  0.31492  1.0000
  C   C11       1.0  0.73626  0.75507  0.2851600000000001  1.0000
  C   C12       1.0  0.73584  0.7955  0.21581  1.0000
  C   C13       1.0  0.8918300000000002  0.77792  0.17572  1.0000
  C   C14       1.0  0.048270000000000014  0.7193  0.2055  1.0000
  C   C15       1.0  0.04851  0.67856  0.27474000000000004  1.0000
  C   C16       1.0  0.8932900000000003  0.82717  0.10222  1.0000
  C   C17       1.0  0.39085  0.14888  0.11193000000000002  1.0000
  C   C18       1.0  0.3921600000000001  0.19658  0.18563  1.0000
  C   C19       1.0  0.23601  0.25526  0.21558  1.0000
  C   C20       1.0  0.23661  0.29591  0.28481  1.0000
  C   C21       1.0  0.39327  0.27824000000000004  0.32449  1.0000
  C   C22       1.0  0.54932  0.21931999999999996  0.29461  1.0000
  C   C23       1.0  0.54854  0.17844  0.22539999999999996  1.0000
  C   C24       1.0  0.39417000000000013  0.32764  0.39785  1.0000
  C   C25       1.0  0.8908500000000003  0.8511200000000002  0.88807  1.0000
  C   C26       1.0  0.8921600000000002  0.80342  0.8143700000000001  1.0000
  C   C27       1.0  0.73601  0.74473  0.7844200000000001  1.0000
  C   C28       1.0  0.73661  0.70409  0.71519  1.0000
  C   C29       1.0  0.89327  0.7217600000000001  0.67551  1.0000
  C   C30       1.0  0.04932000000000002  0.78067  0.70539  1.0000
  C   C31       1.0  0.048540000000000014  0.82155  0.7746  1.0000
  C   C32       1.0  0.89417  0.6723600000000001  0.60215  1.0000
  O   O1        1.0  0.54622  0.37732  0.5835800000000001  1.0000
  O   O2        1.0  0.24326000000000006  0.36289  0.58026  1.0000
  O   O3        1.0  0.24231  0.14836  0.92684  1.0000
  O   O4        1.0  0.54572  0.15582  0.92718  1.0000
  O   O5        1.0  0.39103  0.6067  0.4963000000000001  1.0000
  O   O6        1.0  0.04622000000000001  0.62267  0.41641999999999996  1.0000
  O   O7        1.0  0.7432600000000003  0.63711  0.41974  1.0000
  O   O8        1.0  0.74231  0.85164  0.07316  1.0000
  O   O9        1.0  0.04572000000000001  0.84417  0.07282  1.0000
  O   O10       1.0  0.89103  0.39329000000000003  0.5037  1.0000
  O   O11       1.0  0.54268  0.1257  0.08312000000000001  1.0000
  O   O12       1.0  0.238  0.13283  0.08272  1.0000
  O   O13       1.0  0.24246000000000006  0.34865  0.42686  1.0000
  O   O14       1.0  0.5461  0.34773  0.42713999999999996  1.0000
  O   O15       1.0  0.39083  0.89446  0.9962700000000001  1.0000
  O   O16       1.0  0.04268  0.8743  0.9168800000000001  1.0000
  O   O17       1.0  0.738  0.86716  0.9172800000000001  1.0000
  O   O18       1.0  0.74246  0.6513500000000001  0.57314  1.0000
  O   O19       1.0  0.0461  0.65226  0.57286  1.0000
  O   O20       1.0  0.89083  0.10553  0.0037199999999999998  1.0000
