data_image0
_chemical_formula_structural       Ca6H12C36O24
_chemical_formula_sum              "Ca6 H12 C36 O24"
_cell_length_a       9.93009
_cell_length_b       9.36543
_cell_length_c       18.17344
_cell_angle_alpha    95.04644
_cell_angle_beta     98.05449
_cell_angle_gamma    134.46669999999997

_symmetry_space_group_name_H-M    'P 1'
_symmetry_Int_Tables_number       1

loop_
  _symmetry_equiv_pos_as_xyz
  'x,y,z'

loop_
  _atom_site_type_symbol
  _atom_site_label
  _atom_site_symmetry_multiplicity
  _atom_site_fract_x
  _atom_site_fract_y
  _atom_site_fract_z
  _atom_site_occupancy
  Ca  Ca1       1.0  0.57883  0.24227  0.0425  1.0000
  Ca  Ca2       1.0  0.69822  0.55729  0.46801  1.0000
  Ca  Ca3       1.0  0.4211700000000001  0.7577400000000001  0.9575100000000001  1.0000
  Ca  Ca4       1.0  0.30178  0.44271  0.53199  1.0000
  Ca  Ca5       1.0  0.8220600000000001  0.56525  0.25626  1.0000
  Ca  Ca6       1.0  0.17795999999999998  0.43476  0.74375  1.0000
  H   H1        1.0  0.40689000000000003  0.31866  0.27515  1.0000
  H   H2        1.0  0.12279999999999995  0.30760999999999994  0.06823  1.0000
  H   H3        1.0  0.04154999999999999  0.40789  0.28654  1.0000
  H   H4        1.0  0.50996  0.10469000000000002  0.21905  1.0000
  H   H5        1.0  0.73737  0.061170000000000044  0.42649  1.0000
  H   H6        1.0  0.65707  0.77103  0.20344  1.0000
  H   H7        1.0  0.59311  0.68135  0.72486  1.0000
  H   H8        1.0  0.8772  0.69239  0.93177  1.0000
  H   H9        1.0  0.95844  0.59211  0.71346  1.0000
  H   H10       1.0  0.4900400000000001  0.8953100000000002  0.78095  1.0000
  H   H11       1.0  0.26264000000000004  0.9388300000000002  0.57351  1.0000
  H   H12       1.0  0.34294  0.22898  0.79656  1.0000
  C   C1        1.0  0.3131  0.33118  0.24619  1.0000
  C   C2        1.0  0.27836000000000005  0.314  0.16676  1.0000
  C   C3        1.0  0.07373000000000005  0.36776000000000003  0.17351  1.0000
  C   C4        1.0  0.37911  0.29193  0.1208  1.0000
  C   C5        1.0  0.15287  0.32504  0.13001  1.0000
  C   C6        1.0  0.95462  0.39939  0.13641  1.0000
  C   C7        1.0  0.24814000000000003  0.37018000000000006  0.37274  1.0000
  C   C8        1.0  0.10729  0.38192  0.25239  1.0000
  C   C9        1.0  0.22303000000000003  0.35931  0.28884  1.0000
  C   C10       1.0  0.56538  0.05051000000000003  0.24763000000000002  1.0000
  C   C11       1.0  0.62863  0.10211000000000003  0.32829  1.0000
  C   C12       1.0  0.70955  0.91113  0.3194  1.0000
  C   C13       1.0  0.64745  0.25444  0.37732  1.0000
  C   C14       1.0  0.69198  0.024140000000000005  0.36399  1.0000
  C   C15       1.0  0.80593  0.85538  0.35731  1.0000
  C   C16       1.0  0.49919000000000013  0.8613800000000001  0.11704999999999999  1.0000
  C   C17       1.0  0.6453700000000001  0.8592700000000001  0.23915  1.0000
  C   C18       1.0  0.56768  0.92314  0.20299  1.0000
  C   C19       1.0  0.68689  0.66884  0.75381  1.0000
  C   C20       1.0  0.72165  0.6860100000000001  0.83324  1.0000
  C   C21       1.0  0.92627  0.63223  0.82649  1.0000
  C   C22       1.0  0.6208900000000002  0.7080700000000001  0.8792  1.0000
  C   C23       1.0  0.8471200000000001  0.67497  0.86998  1.0000
  C   C24       1.0  0.04536999999999999  0.60061  0.86358  1.0000
  C   C25       1.0  0.75186  0.62984  0.62725  1.0000
  C   C26       1.0  0.8927  0.61808  0.74761  1.0000
  C   C27       1.0  0.77696  0.64071  0.71116  1.0000
  C   C28       1.0  0.43462000000000006  0.9495  0.75237  1.0000
  C   C29       1.0  0.37138  0.8979  0.67171  1.0000
  C   C30       1.0  0.29045999999999994  0.08888000000000004  0.6806  1.0000
  C   C31       1.0  0.35256  0.74557  0.62268  1.0000
  C   C32       1.0  0.30801999999999996  0.97586  0.63601  1.0000
  C   C33       1.0  0.19406999999999996  0.14461  0.64269  1.0000
  C   C34       1.0  0.50082  0.1386300000000001  0.88296  1.0000
  C   C35       1.0  0.35463  0.14073000000000002  0.76085  1.0000
  C   C36       1.0  0.43231999999999987  0.07686999999999994  0.79701  1.0000
  O   O1        1.0  0.54914  0.36682  0.15746  1.0000
  O   O2        1.0  0.3073  0.20737  0.0499  1.0000
  O   O3        1.0  0.9329100000000001  0.4935  0.18132  1.0000
  O   O4        1.0  0.87734  0.33263  0.06453  1.0000
  O   O5        1.0  0.13605  0.36  0.40403  1.0000
  O   O6        1.0  0.38319  0.39208  0.41241  1.0000
  O   O7        1.0  0.69196  0.4027200000000001  0.34875  1.0000
  O   O8        1.0  0.62956  0.24771  0.4443  1.0000
  O   O9        1.0  0.8887499999999999  0.83051  0.31789  1.0000
  O   O10       1.0  0.8014900000000001  0.83614  0.42542  1.0000
  O   O11       1.0  0.46540999999999993  0.71295  0.0806  1.0000
  O   O12       1.0  0.4797  0.96242  0.08185  1.0000
  O   O13       1.0  0.45087000000000005  0.6331799999999999  0.84256  1.0000
  O   O14       1.0  0.69272  0.7926500000000001  0.95011  1.0000
  O   O15       1.0  0.06707000000000003  0.50648  0.81867  1.0000
  O   O16       1.0  0.12265999999999999  0.66737  0.93546  1.0000
  O   O17       1.0  0.86395  0.6400100000000001  0.59597  1.0000
  O   O18       1.0  0.61681  0.60793  0.58759  1.0000
  O   O19       1.0  0.30806999999999995  0.59729  0.65126  1.0000
  O   O20       1.0  0.37043  0.75229  0.5557  1.0000
  O   O21       1.0  0.11125000000000004  0.16949  0.6821  1.0000
  O   O22       1.0  0.19852  0.16386  0.57458  1.0000
  O   O23       1.0  0.5346  0.2870600000000001  0.9194  1.0000
  O   O24       1.0  0.5203000000000001  0.037590000000000054  0.91815  1.0000
