data_image0
_chemical_formula_structural       Gd2H24C48O12
_chemical_formula_sum              "Gd2 H24 C48 O12"
_cell_length_a       10.6147
_cell_length_b       11.34563
_cell_length_c       13.09427
_cell_angle_alpha    109.10148
_cell_angle_beta     88.51394
_cell_angle_gamma    92.78598

_space_group_name_H-M_alt    "P 1"
_space_group_IT_number       1

loop_
  _space_group_symop_operation_xyz
  'x, y, z'

loop_
  _atom_site_type_symbol
  _atom_site_label
  _atom_site_symmetry_multiplicity
  _atom_site_fract_x
  _atom_site_fract_y
  _atom_site_fract_z
  _atom_site_occupancy
  Gd  Gd1       1.0  0.50348  0.059999999999999984  0.647  1.0000
  Gd  Gd2       1.0  0.49652  0.9400100000000001  0.3529999999999999  1.0000
  H   H1        1.0  0.60348  0.39413000000000004  0.72802  1.0000
  H   H2        1.0  0.72832  0.7260300000000002  0.47533999999999993  1.0000
  H   H3        1.0  0.7571500000000001  0.21214  0.60084  1.0000
  H   H4        1.0  0.68881  0.5828800000000001  0.69357  1.0000
  H   H5        1.0  0.92434  0.6127200000000002  0.42572  1.0000
  H   H6        1.0  0.84348  0.3662000000000001  0.76448  1.0000
  H   H7        1.0  0.68957  0.7897700000000001  0.8401399999999998  1.0000
  H   H8        1.0  0.92564  0.38557000000000013  0.40267  1.0000
  H   H9        1.0  0.06477000000000001  0.3521500000000001  0.82061  1.0000
  H   H10       1.0  0.60169  0.80724  0.02001  1.0000
  H   H11       1.0  0.7308199999999999  0.27143000000000006  0.42836  1.0000
  H   H12       1.0  0.19447  0.18202000000000002  0.71698  1.0000
  H   H13       1.0  0.39652  0.60587  0.27198  1.0000
  H   H14       1.0  0.27168  0.27397000000000005  0.52466  1.0000
  H   H15       1.0  0.24285  0.7878700000000001  0.39916  1.0000
  H   H16       1.0  0.31118  0.41712  0.30643  1.0000
  H   H17       1.0  0.07566000000000002  0.3872800000000001  0.57428  1.0000
  H   H18       1.0  0.15652  0.6338  0.23552  1.0000
  H   H19       1.0  0.31042  0.21023000000000006  0.15985999999999997  1.0000
  H   H20       1.0  0.07436000000000001  0.6144300000000001  0.59733  1.0000
  H   H21       1.0  0.93523  0.6478600000000001  0.17939  1.0000
  H   H22       1.0  0.39831000000000005  0.1927699999999999  0.9799899999999998  1.0000
  H   H23       1.0  0.2691700000000001  0.7285800000000002  0.57164  1.0000
  H   H24       1.0  0.8055199999999999  0.8179800000000003  0.28302  1.0000
  C   C1        1.0  0.50328  0.2586300000000001  0.83138  1.0000
  C   C2        1.0  0.49813  0.76258  0.52051  1.0000
  C   C3        1.0  0.74212  0.008639999999999995  0.43918  1.0000
  C   C4        1.0  0.50348  0.38262  0.91839  1.0000
  C   C5        1.0  0.49935  0.62762  0.51186  1.0000
  C   C6        1.0  0.87591  0.007709999999999946  0.4689899999999999  1.0000
  C   C7        1.0  0.55441  0.4891100000000001  0.89644  1.0000
  C   C8        1.0  0.6131  0.5653  0.4837899999999999  1.0000
  C   C9        1.0  0.9235299999999999  0.09923999999999997  0.56302  1.0000
  C   C10       1.0  0.60474  0.48342999999999997  0.7927299999999998  1.0000
  C   C11       1.0  0.72812  0.62722  0.46642999999999996  1.0000
  C   C12       1.0  0.85172  0.20192000000000002  0.62601  1.0000
  C   C13       1.0  0.6519599999999999  0.5891400000000001  0.77335  1.0000
  C   C14       1.0  0.83783  0.5640100000000001  0.43898  1.0000
  C   C15       1.0  0.9007299999999999  0.28983000000000003  0.71712  1.0000
  C   C16       1.0  0.65144  0.7069600000000003  0.8564999999999999  1.0000
  C   C17       1.0  0.8384499999999999  0.43457  0.42609  1.0000
  C   C18       1.0  0.02578  0.2815  0.74922  1.0000
  C   C19       1.0  0.60223  0.7168  0.95691  1.0000
  C   C20       1.0  0.72959  0.3711700000000001  0.44138  1.0000
  C   C21       1.0  0.09919  0.18552000000000002  0.69011  1.0000
  C   C22       1.0  0.55136  0.6094000000000002  0.98039  1.0000
  C   C23       1.0  0.6138  0.43372  0.47103  1.0000
  C   C24       1.0  0.051169999999999986  0.09123000000000002  0.59569  1.0000
  C   C25       1.0  0.49671  0.74137  0.16862  1.0000
  C   C26       1.0  0.50187  0.23742000000000005  0.47949  1.0000
  C   C27       1.0  0.25787  0.9913600000000002  0.56082  1.0000
  C   C28       1.0  0.49652  0.6173900000000001  0.08161  1.0000
  C   C29       1.0  0.50064  0.37238  0.48813999999999996  1.0000
  C   C30       1.0  0.12409  0.99229  0.53101  1.0000
  C   C31       1.0  0.44559  0.51089  0.10356  1.0000
  C   C32       1.0  0.38690000000000013  0.43470000000000003  0.51621  1.0000
  C   C33       1.0  0.07645999999999999  0.9007699999999998  0.4369799999999999  1.0000
  C   C34       1.0  0.39525999999999994  0.51658  0.20727  1.0000
  C   C35       1.0  0.27187  0.37279000000000007  0.53357  1.0000
  C   C36       1.0  0.14827000000000004  0.7980800000000002  0.37399  1.0000
  C   C37       1.0  0.34804  0.41086  0.22665  1.0000
  C   C38       1.0  0.16217  0.43599  0.56102  1.0000
  C   C39       1.0  0.09926000000000001  0.7101800000000003  0.28288  1.0000
  C   C40       1.0  0.34855  0.29304000000000013  0.1435  1.0000
  C   C41       1.0  0.16155  0.56544  0.57391  1.0000
  C   C42       1.0  0.97422  0.7185  0.25078  1.0000
  C   C43       1.0  0.39775999999999995  0.2832100000000001  0.04309  1.0000
  C   C44       1.0  0.27041  0.62883  0.55862  1.0000
  C   C45       1.0  0.90081  0.8144800000000002  0.30989  1.0000
  C   C46       1.0  0.4486299999999999  0.3906000000000001  0.019609999999999995  1.0000
  C   C47       1.0  0.38619  0.5662800000000002  0.52897  1.0000
  C   C48       1.0  0.94883  0.90877  0.40431  1.0000
  O   O1        1.0  0.60664  0.20277000000000006  0.7975299999999999  1.0000
  O   O2        1.0  0.51867  0.84545  0.61172  1.0000
  O   O3        1.0  0.65505  0.98925  0.5049  1.0000
  O   O4        1.0  0.39801999999999993  0.20844999999999994  0.7889199999999998  1.0000
  O   O5        1.0  0.47515999999999997  0.78608  0.43373  1.0000
  O   O6        1.0  0.7120899999999999  0.018210000000000018  0.34974999999999995  1.0000
  O   O7        1.0  0.39335  0.7972400000000002  0.20247  1.0000
  O   O8        1.0  0.48132  0.15455000000000002  0.38828  1.0000
  O   O9        1.0  0.34494  0.010749999999999997  0.4951  1.0000
  O   O10       1.0  0.60197  0.7915600000000002  0.21108  1.0000
  O   O11       1.0  0.52484  0.21392  0.56627  1.0000
  O   O12       1.0  0.28791  0.9817900000000003  0.65025  1.0000
