data_image0
_chemical_formula_structural       Zn4H32C40N6O16
_chemical_formula_sum              "Zn4 H32 C40 N6 O16"
_cell_length_a       14.01248
_cell_length_b       13.99378
_cell_length_c       14.38392
_cell_angle_alpha    61.82853
_cell_angle_beta     61.71538999999999
_cell_angle_gamma    81.03092

_space_group_name_H-M_alt    "P 1"
_space_group_IT_number       1

loop_
  _space_group_symop_operation_xyz
  'x, y, z'

loop_
  _atom_site_type_symbol
  _atom_site_label
  _atom_site_symmetry_multiplicity
  _atom_site_fract_x
  _atom_site_fract_y
  _atom_site_fract_z
  _atom_site_occupancy
  Zn  Zn1       1.0  0.09953000000000002  0.90048  0.49985  1.0000
  Zn  Zn2       1.0  0.9004699999999999  0.09951999999999998  0.50015  1.0000
  Zn  Zn3       1.0  0.018799999999999997  0.018939999999999995  0.07784  1.0000
  Zn  Zn4       1.0  0.9812000000000002  0.98106  0.9221599999999999  1.0000
  H   H1        1.0  0.97796  0.7837500000000001  0.48590999999999995  1.0000
  H   H2        1.0  0.08081999999999999  0.3736000000000001  0.88946  1.0000
  H   H3        1.0  0.09001  0.57432  0.76506  1.0000
  H   H4        1.0  0.9523599999999999  0.51362  0.58277  1.0000
  H   H5        1.0  0.9536799999999999  0.31425999999999993  0.70072  1.0000
  H   H6        1.0  0.19496999999999995  0.85199  0.68665  1.0000
  H   H7        1.0  0.10902000000000006  0.82777  0.8366799999999999  1.0000
  H   H8        1.0  0.07699999999999997  0.7592999999999999  0.7751  1.0000
  H   H9        1.0  0.21572999999999998  0.022110000000000015  0.51429  1.0000
  H   H10       1.0  0.6268699999999998  0.91914  0.11041999999999999  1.0000
  H   H11       1.0  0.42612000000000005  0.9099600000000001  0.23450999999999997  1.0000
  H   H12       1.0  0.48561000000000004  0.04760999999999998  0.41773  1.0000
  H   H13       1.0  0.68501  0.046300000000000015  0.29994  1.0000
  H   H14       1.0  0.14820000000000005  0.8049  0.31265  1.0000
  H   H15       1.0  0.17240000000000003  0.8907199999999997  0.16271  1.0000
  H   H16       1.0  0.24080000000000001  0.92293  0.22413999999999998  1.0000
  H   H17       1.0  0.022040000000000004  0.21625  0.51409  1.0000
  H   H18       1.0  0.9191799999999999  0.6264  0.11054  1.0000
  H   H19       1.0  0.9099900000000001  0.42568  0.23493999999999998  1.0000
  H   H20       1.0  0.04763000000000003  0.48637999999999976  0.41723  1.0000
  H   H21       1.0  0.046320000000000014  0.6857299999999998  0.29929  1.0000
  H   H22       1.0  0.80503  0.14800999999999997  0.31336  1.0000
  H   H23       1.0  0.89098  0.17222  0.16332  1.0000
  H   H24       1.0  0.923  0.24069999999999997  0.2249  1.0000
  H   H25       1.0  0.7842700000000002  0.97789  0.48570999999999986  1.0000
  H   H26       1.0  0.37313  0.08085000000000003  0.8895799999999999  1.0000
  H   H27       1.0  0.57388  0.09004000000000001  0.7654999999999998  1.0000
  H   H28       1.0  0.51439  0.95238  0.58228  1.0000
  H   H29       1.0  0.31499000000000005  0.9536999999999998  0.70006  1.0000
  H   H30       1.0  0.8518  0.19509999999999997  0.68736  1.0000
  H   H31       1.0  0.8275999999999999  0.10926999999999999  0.83729  1.0000
  H   H32       1.0  0.7591900000000001  0.07706000000000009  0.7758699999999998  1.0000
  C   C1        1.0  0.009420000000000053  0.21256000000000005  0.8780899999999999  1.0000
  C   C2        1.0  0.015080000000000059  0.3318400000000001  0.8038599999999999  1.0000
  C   C3        1.0  0.05397000000000008  0.4060300000000001  0.8214099999999998  1.0000
  C   C4        1.0  0.05855000000000005  0.51713  0.7528399999999998  1.0000
  C   C5        1.0  0.02090000000000001  0.55792  0.66603  1.0000
  C   C6        1.0  0.9814  0.48303000000000007  0.64886  1.0000
  C   C7        1.0  0.98091  0.37224  0.7152499999999999  1.0000
  C   C8        1.0  0.022230000000000062  0.67275  0.5979199999999999  1.0000
  C   C9        1.0  0.043820000000000026  0.9251099999999999  0.71791  1.0000
  C   C10       1.0  0.11041000000000004  0.8360200000000001  0.75646  1.0000
  C   C11       1.0  0.78731  0.99048  0.12220999999999999  1.0000
  C   C12       1.0  0.66801  0.98487  0.19642  1.0000
  C   C13       1.0  0.59411  0.946  0.17861  1.0000
  C   C14       1.0  0.4829899999999999  0.94144  0.24703  1.0000
  C   C15       1.0  0.4418500000000001  0.97912  0.33402  1.0000
  C   C16       1.0  0.5164500000000001  0.018590000000000034  0.35146999999999995  1.0000
  C   C17       1.0  0.62727  0.01906  0.2852  1.0000
  C   C18       1.0  0.3270000000000002  0.97777  0.40211  1.0000
  C   C19       1.0  0.07505000000000009  0.9560500000000001  0.28176  1.0000
  C   C20       1.0  0.16413  0.88944  0.24291  1.0000
  C   C21       1.0  0.9905800000000001  0.78744  0.12192  1.0000
  C   C22       1.0  0.98492  0.66816  0.19614  1.0000
  C   C23       1.0  0.94603  0.59397  0.17859  1.0000
  C   C24       1.0  0.94144  0.48287  0.24716  1.0000
  C   C25       1.0  0.9791  0.44208  0.33397  1.0000
  C   C26       1.0  0.01860000000000001  0.51697  0.35113999999999995  1.0000
  C   C27       1.0  0.019080000000000017  0.62775  0.28476  1.0000
  C   C28       1.0  0.9777700000000005  0.32725000000000004  0.40209  1.0000
  C   C29       1.0  0.95618  0.07489000000000001  0.28209  1.0000
  C   C30       1.0  0.8895900000000002  0.16397  0.24354999999999996  1.0000
  C   C31       1.0  0.21269  0.009520000000000094  0.8777899999999998  1.0000
  C   C32       1.0  0.3319900000000001  0.01512999999999999  0.80359  1.0000
  C   C33       1.0  0.40588000000000024  0.054000000000000055  0.8213899999999997  1.0000
  C   C34       1.0  0.5170100000000002  0.05856000000000008  0.7529699999999998  1.0000
  C   C35       1.0  0.5581499999999999  0.020880000000000006  0.66598  1.0000
  C   C36       1.0  0.48355  0.9814000000000002  0.64853  1.0000
  C   C37       1.0  0.37272000000000005  0.9809400000000001  0.71481  1.0000
  C   C38       1.0  0.673  0.022229999999999986  0.59789  1.0000
  C   C39       1.0  0.9249500000000003  0.04395000000000001  0.7182499999999999  1.0000
  C   C40       1.0  0.8358700000000001  0.11056000000000007  0.7570899999999999  1.0000
  N   N1        1.0  0.041970000000000125  0.9656599999999995  0.6132  1.0000
  N   N2        1.0  0.034569999999999976  0.95784  0.38658  1.0000
  N   N3        1.0  0.9580299999999999  0.03434000000000002  0.3867999999999999  1.0000
  N   N4        1.0  0.9654299999999999  0.04215000000000001  0.61342  1.0000
  N   N5        1.0  0.97375  0.9738500000000001  0.78342  1.0000
  N   N6        1.0  0.026250000000000016  0.026140000000000004  0.21657999999999997  1.0000
  O   O1        1.0  0.023119999999999963  0.18115999999999996  0.96991  1.0000
  O   O2        1.0  0.9909000000000003  0.1501100000000001  0.8449499999999999  1.0000
  O   O3        1.0  0.0619  0.74389  0.60574  1.0000
  O   O4        1.0  0.97741  0.70425  0.5231  1.0000
  O   O5        1.0  0.81888  0.9765699999999999  0.03038  1.0000
  O   O6        1.0  0.84953  0.009159999999999998  0.15538  1.0000
  O   O7        1.0  0.25611  0.93809  0.39404  1.0000
  O   O8        1.0  0.29521  0.022590000000000023  0.47713999999999995  1.0000
  O   O9        1.0  0.97687  0.81884  0.0301  1.0000
  O   O10       1.0  0.009099999999999994  0.84989  0.15505  1.0000
  O   O11       1.0  0.9381  0.2561000000000001  0.39426  1.0000
  O   O12       1.0  0.02258999999999998  0.29574  0.4769  1.0000
  O   O13       1.0  0.18111000000000005  0.02341999999999998  0.96963  1.0000
  O   O14       1.0  0.15047  0.9908300000000001  0.8446299999999999  1.0000
  O   O15       1.0  0.7438900000000003  0.06190999999999998  0.60596  1.0000
  O   O16       1.0  0.7047900000000001  0.9774099999999998  0.52286  1.0000
