data_image0
_chemical_formula_structural       Zn4H12C12O24
_chemical_formula_sum              "Zn4 H12 C12 O24"
_cell_length_a       7.78932
_cell_length_b       8.98316
_cell_length_c       11.535820000000001
_cell_angle_alpha    90.09704
_cell_angle_beta     89.85902
_cell_angle_gamma    90.02324000000002

_symmetry_space_group_name_H-M    'P 1'
_symmetry_Int_Tables_number       1

loop_
  _symmetry_equiv_pos_as_xyz
  'x,y,z'

loop_
  _atom_site_type_symbol
  _atom_site_label
  _atom_site_symmetry_multiplicity
  _atom_site_fract_x
  _atom_site_fract_y
  _atom_site_fract_z
  _atom_site_occupancy
  Zn  Zn1       1.0  0.25393  0.24119000000000002  0.24862000000000006  1.0000
  Zn  Zn2       1.0  0.24517  0.25625  0.74797  1.0000
  Zn  Zn3       1.0  0.74607  0.7588  0.75138  1.0000
  Zn  Zn4       1.0  0.75484  0.74375  0.25203  1.0000
  H   H1        1.0  0.98883  0.48627  0.16771000000000003  1.0000
  H   H2        1.0  0.9933  0.010700000000000001  0.82999  1.0000
  H   H3        1.0  0.51151  0.01339  0.6678300000000001  1.0000
  H   H4        1.0  0.51265  0.48705  0.33438000000000007  1.0000
  H   H5        1.0  0.01117  0.51373  0.83229  1.0000
  H   H6        1.0  0.0067  0.9893  0.17001  1.0000
  H   H7        1.0  0.48848999999999987  0.9866  0.33217  1.0000
  H   H8        1.0  0.48735  0.51294  0.66561  1.0000
  H   H9        1.0  0.16250999999999993  0.2515  0.49767  1.0000
  H   H10       1.0  0.3360999999999999  0.25148  0.9968800000000001  1.0000
  H   H11       1.0  0.8375  0.7485  0.50233  1.0000
  H   H12       1.0  0.6639  0.74852  0.00312  1.0000
  C   C1        1.0  0.00144  0.49258  0.2625100000000001  1.0000
  C   C2        1.0  0.99526  0.00809  0.73471  1.0000
  C   C3        1.0  0.50158  0.009610000000000002  0.7628600000000002  1.0000
  C   C4        1.0  0.50918  0.49034000000000005  0.23921  1.0000
  C   C5        1.0  0.99856  0.50742  0.73749  1.0000
  C   C6        1.0  0.00474  0.99191  0.26528  1.0000
  C   C7        1.0  0.49842  0.99038  0.23714000000000002  1.0000
  C   C8        1.0  0.49081999999999987  0.50966  0.7607900000000001  1.0000
  C   C9        1.0  0.30349  0.25152  0.49876  1.0000
  C   C10       1.0  0.19518  0.25144  0.9988600000000001  1.0000
  C   C11       1.0  0.69651  0.74848  0.50124  1.0000
  C   C12       1.0  0.80482  0.74856  0.00114  1.0000
  O   O1        1.0  0.10058999999999997  0.40511  0.31694  1.0000
  O   O2        1.0  0.40895  0.08144  0.17840000000000006  1.0000
  O   O3        1.0  0.38838  0.24437000000000003  0.4043400000000001  1.0000
  O   O4        1.0  0.09125  0.09618  0.6776600000000002  1.0000
  O   O5        1.0  0.40112  0.41569  0.81703  1.0000
  O   O6        1.0  0.38385  0.25882  0.59476  1.0000
  O   O7        1.0  0.40062  0.09625  0.81728  1.0000
  O   O8        1.0  0.08361  0.4129  0.67864  1.0000
  O   O9        1.0  0.10992999999999999  0.25805  0.9047800000000001  1.0000
  O   O10       1.0  0.41619  0.40037  0.18202  1.0000
  O   O11       1.0  0.09868  0.08229  0.32152000000000003  1.0000
  O   O12       1.0  0.11601  0.24479000000000004  0.09559  1.0000
  O   O13       1.0  0.89941  0.59489  0.68306  1.0000
  O   O14       1.0  0.59105  0.91856  0.8216  1.0000
  O   O15       1.0  0.61162  0.75562  0.59566  1.0000
  O   O16       1.0  0.9087499999999997  0.9038200000000001  0.32234  1.0000
  O   O17       1.0  0.59888  0.5843  0.18297  1.0000
  O   O18       1.0  0.61616  0.74117  0.4052400000000001  1.0000
  O   O19       1.0  0.59938  0.90375  0.18272000000000002  1.0000
  O   O20       1.0  0.9164  0.58709  0.32136  1.0000
  O   O21       1.0  0.89008  0.74195  0.09522  1.0000
  O   O22       1.0  0.58382  0.59962  0.81797  1.0000
  O   O23       1.0  0.90132  0.91771  0.67848  1.0000
  O   O24       1.0  0.88399  0.7552  0.9044000000000002  1.0000
