data_image0
_chemical_formula_structural       Mg4H20C32O20
_chemical_formula_sum              "Mg4 H20 C32 O20"
_cell_length_a       12.63923
_cell_length_b       12.517719999999999
_cell_length_c       12.509960000000001
_cell_angle_alpha    75.22843
_cell_angle_beta     59.66660000000001
_cell_angle_gamma    59.68208

_space_group_name_H-M_alt    "P 1"
_space_group_IT_number       1

loop_
  _space_group_symop_operation_xyz
  'x, y, z'

loop_
  _atom_site_type_symbol
  _atom_site_label
  _atom_site_symmetry_multiplicity
  _atom_site_fract_x
  _atom_site_fract_y
  _atom_site_fract_z
  _atom_site_occupancy
  Mg  Mg1       1.0  0.6782800000000003  0.64358  0.9997799999999999  1.0000
  Mg  Mg2       1.0  0.3221899999999998  0.35589  0.99981  1.0000
  Mg  Mg3       1.0  0.07141999999999996  0.50015  0.85717  1.0000
  Mg  Mg4       1.0  0.42816999999999994  0.50014  0.14336  1.0000
  H   H1        1.0  0.05048000000000008  0.8101399999999997  0.94021  1.0000
  H   H2        1.0  0.9330400000000001  0.39646  0.9994999999999999  1.0000
  H   H3        1.0  0.80085  0.19015  0.06014  1.0000
  H   H4        1.0  0.32901  0.6034199999999998  0.00078  1.0000
  H   H5        1.0  0.6111200000000002  0.4395599999999999  0.6898799999999999  1.0000
  H   H6        1.0  0.08050999999999998  0.49909  0.10374999999999998  1.0000
  H   H7        1.0  0.7408  0.56002  0.30985  1.0000
  H   H8        1.0  0.68187  0.50026  0.8960999999999999  1.0000
  H   H9        1.0  0.6994000000000002  0.55996  0.6898999999999998  1.0000
  H   H10       1.0  0.81678  0.50056  0.10395  1.0000
  H   H11       1.0  0.9494099999999998  0.43949  0.3098699999999999  1.0000
  H   H12       1.0  0.4211299999999999  0.49934999999999996  0.8963  1.0000
  H   H13       1.0  0.13891000000000003  0.81011  0.06012  1.0000
  H   H14       1.0  0.66933  0.39657  0.0009499999999999999  1.0000
  H   H15       1.0  0.009169999999999975  0.19012  0.94019  1.0000
  H   H16       1.0  0.06825  0.6035499999999999  0.99965  1.0000
  H   H17       1.0  0.63137  0.00057  0.9999899999999999  1.0000
  H   H18       1.0  0.38119  0.5005499999999999  0.50016  1.0000
  H   H19       1.0  0.11873000000000004  0.49987  0.49956999999999996  1.0000
  H   H20       1.0  0.3688200000000002  0.9995999999999999  0.99946  1.0000
  C   C1        1.0  0.9528700000000001  0.89335  0.96924  1.0000
  C   C2        1.0  0.8411700000000001  0.89171  0.9727  1.0000
  C   C3        1.0  0.85511  0.77249  0.94924  1.0000
  C   C4        1.0  0.81532  0.10702  0.031089999999999996  1.0000
  C   C5        1.0  0.70542  0.10882999999999998  0.02752  1.0000
  C   C6        1.0  0.5768300000000002  0.22802  0.05097  1.0000
  C   C7        1.0  0.5964100000000001  0.46886  0.6067699999999999  1.0000
  C   C8        1.0  0.4828099999999999  0.47259  0.60861  1.0000
  C   C9        1.0  0.37786  0.44882999999999995  0.72809  1.0000
  C   C10       1.0  0.67218  0.53096  0.39306  1.0000
  C   C11       1.0  0.5638  0.52774  0.39137  1.0000
  C   C12       1.0  0.5543400000000003  0.5516699999999999  0.27198  1.0000
  C   C13       1.0  0.7971200000000002  0.53078  0.60671  1.0000
  C   C14       1.0  0.9088199999999997  0.52735  0.6084  1.0000
  C   C15       1.0  0.8944100000000001  0.55116  0.72785  1.0000
  C   C16       1.0  0.93487  0.46867999999999993  0.39299999999999996  1.0000
  C   C17       1.0  0.04486000000000006  0.47217  0.3911699999999999  1.0000
  C   C18       1.0  0.17360000000000003  0.44824  0.27177  1.0000
  C   C19       1.0  0.15359000000000014  0.8931899999999998  0.03097  1.0000
  C   C20       1.0  0.26718  0.89131  0.02721  1.0000
  C   C21       1.0  0.3722900000000001  0.77203  0.050719999999999994  1.0000
  C   C22       1.0  0.07781000000000007  0.10685  0.9691099999999999  1.0000
  C   C23       1.0  0.18618  0.10842999999999998  0.97238  1.0000
  C   C24       1.0  0.19573000000000002  0.2276  0.9489999999999998  1.0000
  C   C25       1.0  0.94133  0.00015  0.00010999999999999999  1.0000
  C   C26       1.0  0.7174900000000001  0.00037  0.99998  1.0000
  C   C27       1.0  0.69153  0.49988  0.49990999999999997  1.0000
  C   C28       1.0  0.46734999999999993  0.50038  0.5000499999999999  1.0000
  C   C29       1.0  0.8087400000000001  0.4997999999999999  0.49988  1.0000
  C   C30       1.0  0.03264  0.49988  0.49970999999999993  1.0000
  C   C31       1.0  0.05849  6e-05  4.9999999999999996e-05  1.0000
  C   C32       1.0  0.2826699999999999  0.99977  0.99957  1.0000
  O   O1        1.0  0.7465200000000003  0.76666  0.9784599999999999  1.0000
  O   O2        1.0  0.97747  0.6833199999999999  0.904  1.0000
  O   O3        1.0  0.49145000000000005  0.23396  0.02199  1.0000
  O   O4        1.0  0.56503  0.31725  0.096  1.0000
  O   O5        1.0  0.26254999999999995  0.47932  0.73512  1.0000
  O   O6        1.0  0.41237000000000007  0.40198999999999996  0.8164  1.0000
  O   O7        1.0  0.4758400000000001  0.52192  0.26522999999999997  1.0000
  O   O8        1.0  0.6306900000000002  0.5980099999999999  0.18350999999999998  1.0000
  O   O9        1.0  0.0027600000000000354  0.52062  0.7348099999999999  1.0000
  O   O10       1.0  0.77165  0.59807  0.8161  1.0000
  O   O11       1.0  0.25892  0.47791  0.26493  1.0000
  O   O12       1.0  0.18561  0.40198999999999996  0.18325  1.0000
  O   O13       1.0  0.4868300000000001  0.7658899999999998  0.021409999999999995  1.0000
  O   O14       1.0  0.33879999999999993  0.68299  0.09612  1.0000
  O   O15       1.0  0.27535000000000004  0.23327  0.97798  1.0000
  O   O16       1.0  0.11834000000000007  0.31693999999999994  0.9040799999999999  1.0000
  O   O17       1.0  0.6391900000000003  0.48641999999999996  0.9861699999999998  1.0000
  O   O18       1.0  0.11168000000000002  0.51357  0.013799999999999998  1.0000
  O   O19       1.0  0.87445  0.48638  0.01394  1.0000
  O   O20       1.0  0.37468999999999997  0.51349  0.98631  1.0000
