data_image0
_chemical_formula_structural       Sm4H8C28N8O24
_chemical_formula_sum              "Sm4 H8 C28 N8 O24"
_cell_length_a       8.18225
_cell_length_b       9.61263
_cell_length_c       16.28871
_cell_angle_alpha    90.00019
_cell_angle_beta     89.99865999999999
_cell_angle_gamma    97.97324

_symmetry_space_group_name_H-M    'P 1'
_symmetry_Int_Tables_number       1

loop_
  _symmetry_equiv_pos_as_xyz
  'x,y,z'

loop_
  _atom_site_type_symbol
  _atom_site_label
  _atom_site_symmetry_multiplicity
  _atom_site_fract_x
  _atom_site_fract_y
  _atom_site_fract_z
  _atom_site_occupancy
  Sm  Sm1       1.0  0.94937  0.13677  0.33561  1.0000
  Sm  Sm2       1.0  0.5506299999999998  0.36322999999999994  0.8356000000000002  1.0000
  Sm  Sm3       1.0  0.05057999999999998  0.8631899999999999  0.6644  1.0000
  Sm  Sm4       1.0  0.44943  0.63683  0.1644  1.0000
  H   H1        1.0  0.9782699999999999  0.70487  0.38821  1.0000
  H   H2        1.0  0.6094900000000001  0.33279  0.2532800000000001  1.0000
  H   H3        1.0  0.52179  0.7950999999999999  0.8881900000000003  1.0000
  H   H4        1.0  0.8905299999999998  0.1672  0.75327  1.0000
  H   H5        1.0  0.02189  0.295  0.6118  1.0000
  H   H6        1.0  0.3904399999999999  0.6671599999999999  0.74677  1.0000
  H   H7        1.0  0.4781199999999999  0.20499999999999996  0.11179  1.0000
  H   H8        1.0  0.10958  0.83285  0.24679000000000004  1.0000
  C   C1        1.0  0.91698  0.4822199999999999  0.36707  1.0000
  C   C2        1.0  0.73319  0.7987899999999998  0.28804  1.0000
  C   C3        1.0  0.89491  0.62275  0.35782  1.0000
  C   C4        1.0  0.76577  0.65112  0.3078  1.0000
  C   C5        1.0  0.06273999999999996  0.44244999999999995  0.4157300000000001  1.0000
  C   C6        1.0  0.6920999999999998  0.41516  0.28399  1.0000
  C   C7        1.0  0.90944  0.00781  0.5125200000000002  1.0000
  C   C8        1.0  0.58305  0.01776  0.86706  1.0000
  C   C9        1.0  0.76686  0.70119  0.7880400000000002  1.0000
  C   C10       1.0  0.60514  0.8772299999999998  0.85781  1.0000
  C   C11       1.0  0.73428  0.84887  0.8078  1.0000
  C   C12       1.0  0.43726  0.05750999999999999  0.9157000000000002  1.0000
  C   C13       1.0  0.80794  0.08483  0.78398  1.0000
  C   C14       1.0  0.59057  0.4922  0.01252  1.0000
  C   C15       1.0  0.08304  0.51768  0.63293  1.0000
  C   C16       1.0  0.26693  0.20115  0.71195  1.0000
  C   C17       1.0  0.10518999999999999  0.37716999999999995  0.64217  1.0000
  C   C18       1.0  0.23434  0.3488299999999999  0.6921900000000002  1.0000
  C   C19       1.0  0.93727  0.55741  0.58424  1.0000
  C   C20       1.0  0.30789  0.58479  0.71603  1.0000
  C   C21       1.0  0.09057  0.9921599999999999  0.4875100000000001  1.0000
  C   C22       1.0  0.41698  0.9823199999999999  0.13293  1.0000
  C   C23       1.0  0.23307999999999995  0.29884999999999995  0.21195  1.0000
  C   C24       1.0  0.3948299999999999  0.12282999999999998  0.14217  1.0000
  C   C25       1.0  0.26568  0.15117  0.19219  1.0000
  C   C26       1.0  0.56274  0.94259  0.08421000000000001  1.0000
  C   C27       1.0  0.19214  0.91522  0.21604  1.0000
  C   C28       1.0  0.40943  0.50784  0.98751  1.0000
  N   N1        1.0  0.8149899999999998  0.37788  0.3301000000000001  1.0000
  N   N2        1.0  0.66304  0.5472  0.27123000000000014  1.0000
  N   N3        1.0  0.6850299999999998  0.1221  0.83008  1.0000
  N   N4        1.0  0.83701  0.95279  0.77122  1.0000
  N   N5        1.0  0.18497  0.62203  0.6699400000000002  1.0000
  N   N6        1.0  0.33704  0.45276  0.7287700000000003  1.0000
  N   N7        1.0  0.31505  0.8779699999999999  0.16994  1.0000
  N   N8        1.0  0.16298999999999994  0.04725  0.22878000000000007  1.0000
  O   O1        1.0  0.06528  0.30861  0.4231  1.0000
  O   O2        1.0  0.8478899999999996  0.89742  0.30409  1.0000
  O   O3        1.0  0.81801  0.04875999999999999  0.45725  1.0000
  O   O4        1.0  0.59619  0.81196  0.2548  1.0000
  O   O5        1.0  0.86659  0.9794799999999999  0.58598  1.0000
  O   O6        1.0  0.1661  0.53707  0.44319  1.0000
  O   O7        1.0  0.4347  0.19135  0.92305  1.0000
  O   O8        1.0  0.65215  0.6025699999999999  0.8040800000000002  1.0000
  O   O9        1.0  0.68199  0.4512399999999999  0.9572500000000003  1.0000
  O   O10       1.0  0.9038599999999998  0.68803  0.7548  1.0000
  O   O11       1.0  0.6334199999999998  0.52053  0.08598  1.0000
  O   O12       1.0  0.33389  0.96287  0.94314  1.0000
  O   O13       1.0  0.93473  0.69127  0.57691  1.0000
  O   O14       1.0  0.15223  0.10252  0.69593  1.0000
  O   O15       1.0  0.18197999999999998  0.95123  0.54277  1.0000
  O   O16       1.0  0.40395  0.18802  0.7452  1.0000
  O   O17       1.0  0.13342  0.020509999999999997  0.4140300000000001  1.0000
  O   O18       1.0  0.8339899999999998  0.46281  0.55672  1.0000
  O   O19       1.0  0.56524  0.8087199999999999  0.07686  1.0000
  O   O20       1.0  0.34778  0.39748  0.19593  1.0000
  O   O21       1.0  0.31802  0.54877  0.04278  1.0000
  O   O22       1.0  0.09606  0.31198  0.2452  1.0000
  O   O23       1.0  0.36659  0.47948999999999997  0.9140400000000002  1.0000
  O   O24       1.0  0.66599  0.03717  0.05668  1.0000
