data_image0
_chemical_formula_structural       La2H24C18O12
_chemical_formula_sum              "La2 H24 C18 O12"
_cell_length_a       6.97547
_cell_length_b       11.529799999999998
_cell_length_c       10.68357
_cell_angle_alpha    72.10648999999998
_cell_angle_beta     83.86873999999999
_cell_angle_gamma    90.78341

_symmetry_space_group_name_H-M    'P 1'
_symmetry_Int_Tables_number       1

loop_
  _symmetry_equiv_pos_as_xyz
  'x,y,z'

loop_
  _atom_site_type_symbol
  _atom_site_label
  _atom_site_symmetry_multiplicity
  _atom_site_fract_x
  _atom_site_fract_y
  _atom_site_fract_z
  _atom_site_occupancy
  La  La1       1.0  0.25857  0.60913  0.46318000000000004  1.0000
  La  La2       1.0  0.74143  0.39086999999999994  0.53682  1.0000
  H   H1        1.0  0.83197  0.71299  0.13906  1.0000
  H   H2        1.0  0.83001  0.5540800000000001  0.1689  1.0000
  H   H3        1.0  0.59052  0.7297399999999999  0.9729200000000001  1.0000
  H   H4        1.0  0.57993  0.57065  0.01085  1.0000
  H   H5        1.0  0.95473  0.58968  0.94056  1.0000
  H   H6        1.0  0.92505  0.74537  0.86544  1.0000
  H   H7        1.0  0.69335  0.6963999999999999  0.72237  1.0000
  H   H8        1.0  0.69339  0.5401399999999998  0.8098400000000001  1.0000
  H   H9        1.0  0.33654000000000006  0.03099999999999999  0.41945  1.0000
  H   H10       1.0  0.25216  0.04537000000000001  0.26485  1.0000
  H   H11       1.0  0.006070000000000006  0.12538  0.39387  1.0000
  H   H12       1.0  0.9130300000000001  0.98853  0.37787  1.0000
  H   H13       1.0  0.16803000000000004  0.28700999999999993  0.8609400000000001  1.0000
  H   H14       1.0  0.17  0.4459199999999999  0.8311  1.0000
  H   H15       1.0  0.40948  0.27026  0.027090000000000003  1.0000
  H   H16       1.0  0.42007  0.4293499999999999  0.98915  1.0000
  H   H17       1.0  0.04527  0.41031999999999996  0.05944  1.0000
  H   H18       1.0  0.07494999999999997  0.25463  0.13456  1.0000
  H   H19       1.0  0.30665  0.3035999999999999  0.27763  1.0000
  H   H20       1.0  0.30661  0.45986  0.19017  1.0000
  H   H21       1.0  0.66346  0.969  0.58055  1.0000
  H   H22       1.0  0.74784  0.95463  0.73515  1.0000
  H   H23       1.0  0.9939299999999999  0.8746199999999998  0.60613  1.0000
  H   H24       1.0  0.08696999999999999  0.011470000000000025  0.62213  1.0000
  C   C1        1.0  0.57534  0.61791  0.24684  1.0000
  C   C2        1.0  0.74128  0.63365  0.13947  1.0000
  C   C3        1.0  0.6772700000000001  0.64916  0.00267  1.0000
  C   C4        1.0  0.84836  0.6554000000000001  0.89745  1.0000
  C   C5        1.0  0.78387  0.62518  0.7778700000000001  1.0000
  C   C6        1.0  0.94792  0.61094  0.68074  1.0000
  C   C7        1.0  0.24564000000000002  0.86391  0.39211  1.0000
  C   C8        1.0  0.22349999999999998  0.9985999999999999  0.37228000000000006  1.0000
  C   C9        1.0  0.02099  0.026220000000000007  0.42448  1.0000
  C   C10       1.0  0.42466  0.38208999999999993  0.75316  1.0000
  C   C11       1.0  0.25872  0.36634999999999995  0.86054  1.0000
  C   C12       1.0  0.32273  0.35083999999999993  0.9973300000000002  1.0000
  C   C13       1.0  0.15164000000000002  0.3446  0.10255  1.0000
  C   C14       1.0  0.21613  0.37482  0.22214000000000003  1.0000
  C   C15       1.0  0.05208000000000001  0.3890599999999999  0.31926  1.0000
  C   C16       1.0  0.75436  0.13609  0.60789  1.0000
  C   C17       1.0  0.7765  0.0014000000000000197  0.62773  1.0000
  C   C18       1.0  0.97901  0.97378  0.57553  1.0000
  O   O1        1.0  0.4147  0.66249  0.22195  1.0000
  O   O2        1.0  0.60102  0.55642  0.36889  1.0000
  O   O3        1.0  0.11479  0.65652  0.6752  1.0000
  O   O4        1.0  0.91407  0.5496  0.59992  1.0000
  O   O5        1.0  0.10813  0.8011  0.36798  1.0000
  O   O6        1.0  0.39942  0.81306  0.43407  1.0000
  O   O7        1.0  0.5853000000000002  0.33751  0.77805  1.0000
  O   O8        1.0  0.39899  0.44358  0.63111  1.0000
  O   O9        1.0  0.88521  0.34347999999999995  0.3248  1.0000
  O   O10       1.0  0.08593  0.45039999999999997  0.40008  1.0000
  O   O11       1.0  0.8918700000000002  0.1988999999999999  0.6320200000000001  1.0000
  O   O12       1.0  0.60058  0.18694000000000002  0.56594  1.0000
