data_image0
_chemical_formula_structural       Ba6V4H8C20O48
_chemical_formula_sum              "Ba6 V4 H8 C20 O48"
_cell_length_a       9.37432
_cell_length_b       9.37138
_cell_length_c       18.082209999999996
_cell_angle_alpha    95.26343999999999
_cell_angle_beta     95.39633
_cell_angle_gamma    111.7072

_space_group_name_H-M_alt    "P 1"
_space_group_IT_number       1

loop_
  _space_group_symop_operation_xyz
  'x, y, z'

loop_
  _atom_site_type_symbol
  _atom_site_label
  _atom_site_symmetry_multiplicity
  _atom_site_fract_x
  _atom_site_fract_y
  _atom_site_fract_z
  _atom_site_occupancy
  Ba  Ba1       1.0  0.7752299999999998  0.84058  0.55658  1.0000
  Ba  Ba2       1.0  0.15960000000000002  0.22497000000000006  0.9435300000000001  1.0000
  Ba  Ba3       1.0  0.22477999999999995  0.15943000000000002  0.44342  1.0000
  Ba  Ba4       1.0  0.84041  0.77503  0.05648  1.0000
  Ba  Ba5       1.0  0.7767699999999998  0.22342  0.74995  1.0000
  Ba  Ba6       1.0  0.22323999999999994  0.7765800000000002  0.25005  1.0000
  V   V1        1.0  0.40230999999999995  0.20723000000000003  0.65735  1.0000
  V   V2        1.0  0.79252  0.5975700000000002  0.8426  1.0000
  V   V3        1.0  0.5976899999999998  0.79277  0.34265  1.0000
  V   V4        1.0  0.20749000000000004  0.40243  0.1574  1.0000
  H   H1        1.0  0.1477100000000001  0.85041  0.54502  1.0000
  H   H2        1.0  0.06943000000000005  0.7756900000000001  0.46408000000000005  1.0000
  H   H3        1.0  0.14944999999999997  0.85248  0.95503  1.0000
  H   H4        1.0  0.2244899999999999  0.9303799999999999  0.03597  1.0000
  H   H5        1.0  0.8522899999999998  0.14959000000000003  0.45499000000000006  1.0000
  H   H6        1.0  0.9305699999999998  0.22431  0.53592  1.0000
  H   H7        1.0  0.85056  0.14752000000000004  0.044980000000000006  1.0000
  H   H8        1.0  0.77551  0.06962000000000004  0.96403  1.0000
  C   C1        1.0  0.63715  0.48476  0.62303  1.0000
  C   C2        1.0  0.4858199999999999  0.49678  0.58772  1.0000
  C   C3        1.0  0.83741  0.9073300000000002  0.8333  1.0000
  C   C4        1.0  0.7253799999999999  0.81338  0.7626  1.0000
  C   C5        1.0  0.5177799999999999  0.046259999999999996  0.54002  1.0000
  C   C6        1.0  0.51505  0.36275  0.87693  1.0000
  C   C7        1.0  0.5032299999999998  0.51407  0.9122400000000002  1.0000
  C   C8        1.0  0.09270000000000003  0.1625  0.66668  1.0000
  C   C9        1.0  0.18680999999999995  0.27432  0.73739  1.0000
  C   C10       1.0  0.9537499999999998  0.48229  0.95997  1.0000
  C   C11       1.0  0.36284999999999995  0.5152400000000001  0.37698  1.0000
  C   C12       1.0  0.51419  0.50322  0.41228  1.0000
  C   C13       1.0  0.16258999999999996  0.09267000000000003  0.1667  1.0000
  C   C14       1.0  0.27462  0.18662  0.2374  1.0000
  C   C15       1.0  0.48222  0.95374  0.45998  1.0000
  C   C16       1.0  0.4849499999999999  0.63725  0.12307  1.0000
  C   C17       1.0  0.4967699999999999  0.48593000000000003  0.08776  1.0000
  C   C18       1.0  0.9073  0.8375  0.33332  1.0000
  C   C19       1.0  0.81319  0.72568  0.26261  1.0000
  C   C20       1.0  0.046249999999999965  0.51771  0.04003000000000001  1.0000
  O   O1        1.0  0.61529  0.36567  0.65903  1.0000
  O   O2        1.0  0.76638  0.5798100000000002  0.61477  1.0000
  O   O3        1.0  0.36442  0.37156  0.58531  1.0000
  O   O4        1.0  0.49151999999999996  0.6188200000000001  0.5633  1.0000
  O   O5        1.0  0.8700499999999999  0.04988999999999994  0.84852  1.0000
  O   O6        1.0  0.8963499999999999  0.8296  0.87305  1.0000
  O   O7        1.0  0.7004100000000001  0.8853300000000002  0.71115  1.0000
  O   O8        1.0  0.6725099999999999  0.66602  0.76316  1.0000
  O   O9        1.0  0.41314000000000006  0.09912000000000003  0.55576  1.0000
  O   O10       1.0  0.6378  0.06255000000000002  0.58187  1.0000
  O   O11       1.0  0.4568299999999997  0.10054  0.71007  1.0000
  O   O12       1.0  0.05891000000000002  0.8363899999999999  0.50838  1.0000
  O   O13       1.0  0.63405  0.38461  0.84098  1.0000
  O   O14       1.0  0.4199799999999999  0.23351000000000002  0.88522  1.0000
  O   O15       1.0  0.62849  0.63546  0.9147  1.0000
  O   O16       1.0  0.3813  0.50837  0.93663  1.0000
  O   O17       1.0  0.9501399999999999  0.12991  0.65148  1.0000
  O   O18       1.0  0.17025  0.10370999999999997  0.62687  1.0000
  O   O19       1.0  0.11502999999999998  0.29924  0.78882  1.0000
  O   O20       1.0  0.33410999999999996  0.32726  0.7368  1.0000
  O   O21       1.0  0.9007899999999999  0.5869300000000001  0.9442200000000001  1.0000
  O   O22       1.0  0.9375700000000001  0.3624500000000001  0.9181100000000001  1.0000
  O   O23       1.0  0.8989899999999998  0.5431300000000001  0.78989  1.0000
  O   O24       1.0  0.16361999999999996  0.94113  0.99171  1.0000
  O   O25       1.0  0.3847099999999999  0.63434  0.34097  1.0000
  O   O26       1.0  0.23362  0.42019  0.38523  1.0000
  O   O27       1.0  0.63558  0.62845  0.41469000000000006  1.0000
  O   O28       1.0  0.50849  0.38118  0.4367  1.0000
  O   O29       1.0  0.12994999999999998  0.9501099999999999  0.15148  1.0000
  O   O30       1.0  0.10365  0.1704  0.12695  1.0000
  O   O31       1.0  0.2996  0.11466999999999998  0.28885  1.0000
  O   O32       1.0  0.32748999999999995  0.33398  0.23683999999999997  1.0000
  O   O33       1.0  0.58687  0.90088  0.44424  1.0000
  O   O34       1.0  0.3622099999999999  0.93746  0.41813  1.0000
  O   O35       1.0  0.5431699999999999  0.89946  0.2899300000000001  1.0000
  O   O36       1.0  0.9410899999999998  0.16361  0.49161999999999995  1.0000
  O   O37       1.0  0.36595999999999995  0.61539  0.15902  1.0000
  O   O38       1.0  0.58002  0.7664900000000001  0.11478  1.0000
  O   O39       1.0  0.37151999999999996  0.36454  0.0853  1.0000
  O   O40       1.0  0.6186999999999999  0.49164  0.06337  1.0000
  O   O41       1.0  0.04986999999999998  0.87009  0.34852  1.0000
  O   O42       1.0  0.8297499999999997  0.89629  0.37313  1.0000
  O   O43       1.0  0.8849700000000001  0.7007600000000004  0.21118  1.0000
  O   O44       1.0  0.6658900000000001  0.6727500000000001  0.2632  1.0000
  O   O45       1.0  0.09921000000000003  0.4130700000000001  0.055790000000000006  1.0000
  O   O46       1.0  0.062439999999999975  0.63755  0.08189  1.0000
  O   O47       1.0  0.10101000000000004  0.45687000000000005  0.21011000000000002  1.0000
  O   O48       1.0  0.83638  0.05887  0.00829  1.0000
