data_image0
_chemical_formula_structural       Sm2H14C30O14
_chemical_formula_sum              "Sm2 H14 C30 O14"
_cell_length_a       8.95644
_cell_length_b       9.42209
_cell_length_c       11.80499
_cell_angle_alpha    89.90464
_cell_angle_beta     103.27669
_cell_angle_gamma    106.35767

_space_group_name_H-M_alt    "P 1"
_space_group_IT_number       1

loop_
  _space_group_symop_operation_xyz
  'x, y, z'

loop_
  _atom_site_type_symbol
  _atom_site_label
  _atom_site_symmetry_multiplicity
  _atom_site_fract_x
  _atom_site_fract_y
  _atom_site_fract_z
  _atom_site_occupancy
  Sm  Sm1       1.0  0.77935  0.53202  0.43323  1.0000
  Sm  Sm2       1.0  0.21932  0.46706  0.56369  1.0000
  H   H1        1.0  0.40265999999999996  0.38515  0.06034  1.0000
  H   H2        1.0  0.29881  0.26141  0.85779  1.0000
  H   H3        1.0  0.7002  0.08264  0.91114  1.0000
  H   H4        1.0  0.79957  0.20208  0.11423999999999998  1.0000
  H   H5        1.0  0.69099  0.30438999999999994  0.70976  1.0000
  H   H6        1.0  0.8330400000000001  0.9737800000000001  0.54174  1.0000
  H   H7        1.0  0.40254000000000006  0.84969  0.66977  1.0000
  H   H8        1.0  0.59374  0.61306  0.93611  1.0000
  H   H9        1.0  0.69967  0.73623  0.13828  1.0000
  H   H10       1.0  0.30006999999999995  0.9168099999999999  0.08825  1.0000
  H   H11       1.0  0.19799000000000005  0.79822  0.88535  1.0000
  H   H12       1.0  0.30987  0.69423  0.29016  1.0000
  H   H13       1.0  0.16957  0.02479999999999999  0.4595099999999999  1.0000
  H   H14       1.0  0.59898  0.14872  0.32968  1.0000
  C   C1        1.0  0.67554  0.38364  0.21384  1.0000
  C   C2        1.0  0.6092500000000001  0.30332  0.09822  1.0000
  C   C3        1.0  0.46575  0.31786  0.02704  1.0000
  C   C4        1.0  0.40786  0.24978999999999998  0.91507  1.0000
  C   C5        1.0  0.49648000000000003  0.17014  0.87273  1.0000
  C   C6        1.0  0.63649  0.14953  0.94398  1.0000
  C   C7        1.0  0.69138  0.21568  0.05688  1.0000
  C   C8        1.0  0.54234  0.07815  0.7006799999999999  1.0000
  C   C9        1.0  0.67169  0.18993000000000002  0.68038  1.0000
  C   C10       1.0  0.77635  0.15198  0.62204  1.0000
  C   C11       1.0  0.7507  0.003949999999999998  0.58533  1.0000
  C   C12       1.0  0.6149300000000001  0.8949400000000001  0.60029  1.0000
  C   C13       1.0  0.5092099999999999  0.9322399999999998  0.65773  1.0000
  C   C14       1.0  0.91535  0.26617  0.59663  1.0000
  C   C15       1.0  0.58382  0.7393  0.55346  1.0000
  C   C16       1.0  0.3189  0.61458  0.78343  1.0000
  C   C17       1.0  0.38687  0.69489  0.8993599999999999  1.0000
  C   C18       1.0  0.53103  0.68043  0.9699000000000001  1.0000
  C   C19       1.0  0.5903  0.74855  0.082  1.0000
  C   C20       1.0  0.5027100000000001  0.82842  0.12548  1.0000
  C   C21       1.0  0.36273  0.84949  0.054700000000000006  1.0000
  C   C22       1.0  0.3063  0.78336  0.94171  1.0000
  C   C23       1.0  0.45864  0.92044  0.29872  1.0000
  C   C24       1.0  0.32948  0.80879  0.31945  1.0000
  C   C25       1.0  0.22533  0.84704  0.3781999999999999  1.0000
  C   C26       1.0  0.25154  0.99496  0.4154  1.0000
  C   C27       1.0  0.38728  0.10382  0.40017  1.0000
  C   C28       1.0  0.49242  0.06633  0.3422  1.0000
  C   C29       1.0  0.08583000000000003  0.73335  0.40341  1.0000
  C   C30       1.0  0.41772  0.25965  0.44648  1.0000
  O   O1        1.0  0.78579  0.34878  0.28935  1.0000
  O   O2        1.0  0.6222  0.49019999999999997  0.23998  1.0000
  O   O3        1.0  0.038669999999999954  0.22893999999999998  0.58978  1.0000
  O   O4        1.0  0.91076  0.40175  0.5817  1.0000
  O   O5        1.0  0.69893  0.70819  0.52256  1.0000
  O   O6        1.0  0.44644  0.64737  0.54448  1.0000
  O   O7        1.0  0.4359  0.11144  0.7586900000000001  1.0000
  O   O8        1.0  0.20801999999999993  0.6486999999999999  0.7083399999999999  1.0000
  O   O9        1.0  0.37228  0.50818  0.75659  1.0000
  O   O10       1.0  0.96303  0.77103  0.41113  1.0000
  O   O11       1.0  0.08900000000000004  0.59724  0.41662000000000005  1.0000
  O   O12       1.0  0.30249  0.29109  0.47675  1.0000
  O   O13       1.0  0.55503  0.35183999999999993  0.45558999999999994  1.0000
  O   O14       1.0  0.56422  0.88734  0.23961000000000002  1.0000
