data_image0
_chemical_formula_structural       Mg5H6C20O18
_chemical_formula_sum              "Mg5 H6 C20 O18"
_cell_length_a       7.28226
_cell_length_b       11.38639
_cell_length_c       11.74089
_cell_angle_alpha    90.97077
_cell_angle_beta     78.44183
_cell_angle_gamma    74.81491

_space_group_name_H-M_alt    "P 1"
_space_group_IT_number       1

loop_
  _space_group_symop_operation_xyz
  'x, y, z'

loop_
  _atom_site_type_symbol
  _atom_site_label
  _atom_site_symmetry_multiplicity
  _atom_site_fract_x
  _atom_site_fract_y
  _atom_site_fract_z
  _atom_site_occupancy
  Mg  Mg1       1.0  0.5341399999999998  0.13185  0.67612  1.0000
  Mg  Mg2       1.0  0.6738199999999995  0.12420999999999999  0.37899000000000005  1.0000
  Mg  Mg3       1.0  0.46585000000000004  0.8681599999999999  0.32388  1.0000
  Mg  Mg4       1.0  0.32617  0.8757899999999998  0.62101  1.0000
  Mg  Mg5       1.0  0.0  0.0  0.5  1.0000
  H   H1        1.0  0.6827  0.9535299999999999  0.52904  1.0000
  H   H2        1.0  0.3085400000000002  0.5083  0.55323  1.0000
  H   H3        1.0  0.30167  0.0368  0.04076  1.0000
  H   H4        1.0  0.31729000000000007  0.04647  0.47096  1.0000
  H   H5        1.0  0.69145  0.4917  0.44677  1.0000
  H   H6        1.0  0.69832  0.9632  0.95924  1.0000
  C   C1        1.0  0.30512000000000006  0.28086  0.51547  1.0000
  C   C2        1.0  0.13937  0.39067  0.5104  1.0000
  C   C3        1.0  0.17268999999999993  0.50394  0.53054  1.0000
  C   C4        1.0  0.96275  0.38646  0.48032  1.0000
  C   C5        1.0  0.90677  0.26977  0.46831000000000006  1.0000
  C   C6        1.0  0.09401000000000004  0.97063  0.22943000000000002  1.0000
  C   C7        1.0  0.03780000000000001  0.98899  0.11339  1.0000
  C   C8        1.0  0.16933  0.02029  0.02291  1.0000
  C   C9        1.0  0.13440999999999997  0.03099  0.9102  1.0000
  C   C10       1.0  0.27984  0.07070000000000001  0.8218600000000001  1.0000
  C   C11       1.0  0.69486  0.71915  0.48453000000000007  1.0000
  C   C12       1.0  0.8606199999999998  0.60933  0.48961  1.0000
  C   C13       1.0  0.8273  0.49606  0.46946  1.0000
  C   C14       1.0  0.037239999999999995  0.61354  0.51968  1.0000
  C   C15       1.0  0.09320999999999997  0.73024  0.53169  1.0000
  C   C16       1.0  0.90598  0.029369999999999997  0.77057  1.0000
  C   C17       1.0  0.9621899999999999  0.011020000000000005  0.88661  1.0000
  C   C18       1.0  0.83066  0.97972  0.97709  1.0000
  C   C19       1.0  0.8655799999999999  0.9690200000000001  0.0898  1.0000
  C   C20       1.0  0.7201499999999996  0.9293  0.17814000000000002  1.0000
  O   O1        1.0  0.36895  0.27174  0.6092  1.0000
  O   O2        1.0  0.38102999999999987  0.20882  0.42311  1.0000
  O   O3        1.0  0.9878999999999999  0.18087  0.52171  1.0000
  O   O4        1.0  0.7768599999999998  0.26824  0.40969000000000005  1.0000
  O   O5        1.0  0.9715499999999998  0.022050000000000004  0.3223  1.0000
  O   O6        1.0  0.26384999999999986  0.90491  0.22714000000000004  1.0000
  O   O7        1.0  0.31742999999999993  0.16954  0.83992  1.0000
  O   O8        1.0  0.37524  0.00019999999999999603  0.72778  1.0000
  O   O9        1.0  0.69684  0.037  0.52737  1.0000
  O   O10       1.0  0.6310399999999998  0.7282700000000001  0.3908000000000001  1.0000
  O   O11       1.0  0.61896  0.79119  0.5769  1.0000
  O   O12       1.0  0.012090000000000056  0.81913  0.47830000000000006  1.0000
  O   O13       1.0  0.2231299999999999  0.7317600000000001  0.59032  1.0000
  O   O14       1.0  0.028439999999999983  0.97796  0.6777  1.0000
  O   O15       1.0  0.7361399999999998  0.09508999999999998  0.77286  1.0000
  O   O16       1.0  0.6825499999999995  0.83046  0.16009  1.0000
  O   O17       1.0  0.6247499999999999  0.99981  0.27222  1.0000
  O   O18       1.0  0.30315  0.9630099999999999  0.47263  1.0000
