data_image0
_chemical_formula_structural       Cu4H20C24N16O4
_chemical_formula_sum              "Cu4 H20 C24 N16 O4"
_cell_length_a       6.58854
_cell_length_b       8.12177
_cell_length_c       15.56239
_cell_angle_alpha    91.02019
_cell_angle_beta     94.53898
_cell_angle_gamma    89.23842

_space_group_name_H-M_alt    "P 1"
_space_group_IT_number       1

loop_
  _space_group_symop_operation_xyz
  'x, y, z'

loop_
  _atom_site_type_symbol
  _atom_site_label
  _atom_site_symmetry_multiplicity
  _atom_site_fract_x
  _atom_site_fract_y
  _atom_site_fract_z
  _atom_site_occupancy
  Cu  Cu1       1.0  0.50036  0.4997400000000001  0.50055  1.0000
  Cu  Cu2       1.0  0.49886  0.9968100000000001  0.0007300000000000002  1.0000
  Cu  Cu3       1.0  0.9999  0.49932000000000004  0.4995400000000001  1.0000
  Cu  Cu4       1.0  0.99809  0.00129  9e-05  1.0000
  H   H1        1.0  0.75349  0.73293  0.52131  1.0000
  H   H2        1.0  0.41099  0.24535  0.33224  1.0000
  H   H3        1.0  0.39895  0.10951  0.17519000000000007  1.0000
  H   H4        1.0  0.13331999999999997  0.36004  0.31858  1.0000
  H   H5        1.0  0.11942000000000003  0.22505  0.15594000000000005  1.0000
  H   H6        1.0  0.244  0.23231  0.99106  1.0000
  H   H7        1.0  0.60439  0.74395  0.17209  1.0000
  H   H8        1.0  0.6159900000000001  0.61755  0.33018  1.0000
  H   H9        1.0  0.8736  0.84369  0.17825  1.0000
  H   H10       1.0  0.89197  0.74063  0.3457500000000001  1.0000
  H   H11       1.0  0.24678000000000005  0.2666300000000001  0.4780700000000001  1.0000
  H   H12       1.0  0.5877200000000001  0.75367  0.6663500000000002  1.0000
  H   H13       1.0  0.60261  0.883  0.82685  1.0000
  H   H14       1.0  0.8654700000000001  0.6410100000000002  0.67901  1.0000
  H   H15       1.0  0.88177  0.77186  0.8446900000000002  1.0000
  H   H16       1.0  0.7592400000000002  0.76642  0.00797  1.0000
  H   H17       1.0  0.39636  0.24986000000000003  0.82904  1.0000
  H   H18       1.0  0.38679  0.38504  0.67126  1.0000
  H   H19       1.0  0.12575000000000003  0.14816000000000004  0.8211900000000002  1.0000
  H   H20       1.0  0.11047  0.26419  0.65713  1.0000
  C   C1        1.0  0.57366  0.26334  0.32611  1.0000
  C   C2        1.0  0.66082  0.21724  0.24829  1.0000
  C   C3        1.0  0.55875  0.14272000000000007  0.17677000000000007  1.0000
  C   C4        1.0  0.97279  0.32713  0.31754  1.0000
  C   C5        1.0  0.87361  0.2524  0.24510000000000007  1.0000
  C   C6        1.0  0.9588500000000001  0.20756  0.16632000000000005  1.0000
  C   C7        1.0  0.44038000000000005  0.76029  0.17727000000000007  1.0000
  C   C8        1.0  0.35277  0.71977  0.25493  1.0000
  C   C9        1.0  0.45444000000000007  0.64914  0.32699  1.0000
  C   C10       1.0  0.03718000000000001  0.81643  0.18175  1.0000
  C   C11       1.0  0.13837  0.7544  0.25658  1.0000
  C   C12       1.0  0.05254000000000002  0.71826  0.33549  1.0000
  C   C13       1.0  0.4268100000000001  0.73246  0.67431  1.0000
  C   C14       1.0  0.33953000000000005  0.77838  0.7522500000000002  1.0000
  C   C15       1.0  0.44187000000000004  0.85213  0.82416  1.0000
  C   C16       1.0  0.02717  0.6703  0.68218  1.0000
  C   C17       1.0  0.12728  0.74341  0.75523  1.0000
  C   C18       1.0  0.041840000000000016  0.78931  0.8339800000000003  1.0000
  C   C19       1.0  0.55985  0.23407000000000006  0.82305  1.0000
  C   C20       1.0  0.64865  0.27877  0.74642  1.0000
  C   C21       1.0  0.54785  0.3525  0.67457  1.0000
  C   C22       1.0  0.9629800000000001  0.17709  0.81813  1.0000
  C   C23       1.0  0.8619000000000002  0.24435  0.7444200000000002  1.0000
  C   C24       1.0  0.9493400000000001  0.28424  0.66652  1.0000
  N   N1        1.0  0.67717  0.32929  0.3937  1.0000
  N   N2        1.0  0.87972  0.36215  0.3908800000000001  1.0000
  N   N3        1.0  0.64945  0.10892  0.10312  1.0000
  N   N4        1.0  0.85075  0.14203  0.09917  1.0000
  N   N5        1.0  0.33514  0.8168  0.10806  1.0000
  N   N6        1.0  0.12846  0.84206  0.10819000000000001  1.0000
  N   N7        1.0  0.36016  0.61657  0.39902  1.0000
  N   N8        1.0  0.1587  0.65388  0.40251  1.0000
  N   N9        1.0  0.32141  0.6668600000000002  0.60634  1.0000
  N   N10       1.0  0.12201  0.6361800000000002  0.60864  1.0000
  N   N11       1.0  0.34981000000000007  0.88487  0.89815  1.0000
  N   N12       1.0  0.15085  0.85419  0.90154  1.0000
  N   N13       1.0  0.66697  0.1758  0.89217  1.0000
  N   N14       1.0  0.8690900000000001  0.14982  0.8914400000000002  1.0000
  N   N15       1.0  0.64301  0.38269  0.6020800000000002  1.0000
  N   N16       1.0  0.84151  0.34726  0.5987100000000002  1.0000
  O   O1        1.0  0.74826  0.63654  0.4836300000000001  1.0000
  O   O2        1.0  0.25026  0.12809  0.02028  1.0000
  O   O3        1.0  0.2518  0.36286  0.51592  1.0000
  O   O4        1.0  0.74863  0.87036  0.9787600000000002  1.0000
