data_image0
_chemical_formula_structural       Al4P6H12C18O18
_chemical_formula_sum              "Al4 P6 H12 C18 O18"
_cell_length_a       4.88402
_cell_length_b       8.3046
_cell_length_c       19.11755
_cell_angle_alpha    97.35290000000002
_cell_angle_beta     98.41258
_cell_angle_gamma    90.4792

_symmetry_space_group_name_H-M    'P 1'
_symmetry_Int_Tables_number       1

loop_
  _symmetry_equiv_pos_as_xyz
  'x,y,z'

loop_
  _atom_site_type_symbol
  _atom_site_label
  _atom_site_symmetry_multiplicity
  _atom_site_fract_x
  _atom_site_fract_y
  _atom_site_fract_z
  _atom_site_occupancy
  Al  Al1       1.0  0.13677  0.87675  0.24945  1.0000
  Al  Al2       1.0  0.4105999999999999  0.6896  0.71773  1.0000
  Al  Al3       1.0  0.8632299999999999  0.12325000000000003  0.7505500000000002  1.0000
  Al  Al4       1.0  0.5894099999999999  0.3104  0.28228  1.0000
  P   P1        1.0  0.35872999999999994  0.32165  0.6962  1.0000
  P   P2        1.0  0.15023  0.19303999999999996  0.35473  1.0000
  P   P3        1.0  0.4173700000000001  0.97736  0.8306300000000001  1.0000
  P   P4        1.0  0.64128  0.67835  0.3038  1.0000
  P   P5        1.0  0.8497699999999999  0.80696  0.64527  1.0000
  P   P6        1.0  0.5826399999999999  0.02264  0.16937  1.0000
  H   H1        1.0  0.3052599999999999  0.02658999999999997  0.59709  1.0000
  H   H2        1.0  0.23196999999999998  0.97051  0.46563  1.0000
  H   H3        1.0  0.22482  0.48745  0.45414  1.0000
  H   H4        1.0  0.29583000000000004  0.54109  0.58383  1.0000
  H   H5        1.0  0.45968  0.72872  0.9264600000000001  1.0000
  H   H6        1.0  0.47592  0.25066999999999995  0.9411199999999998  1.0000
  H   H7        1.0  0.69475  0.9734099999999999  0.40291  1.0000
  H   H8        1.0  0.7680299999999997  0.029490000000000016  0.53437  1.0000
  H   H9        1.0  0.77518  0.51255  0.54587  1.0000
  H   H10       1.0  0.7041699999999997  0.45892  0.41617  1.0000
  H   H11       1.0  0.5403199999999999  0.27128  0.07355  1.0000
  H   H12       1.0  0.52409  0.74933  0.058879999999999995  1.0000
  C   C1        1.0  0.31179  0.28741  0.60005  1.0000
  C   C2        1.0  0.29026  0.12693  0.56561  1.0000
  C   C3        1.0  0.24866  0.09569000000000001  0.4915300000000001  1.0000
  C   C4        1.0  0.22644  0.22518  0.45027  1.0000
  C   C5        1.0  0.24390999999999996  0.38559  0.48493  1.0000
  C   C6        1.0  0.28554  0.41588  0.55907  1.0000
  C   C7        1.0  0.46171999999999996  0.98828  0.9256800000000001  1.0000
  C   C8        1.0  0.47645999999999994  0.84702  0.95884  1.0000
  C   C9        1.0  0.48527  0.14121  0.96708  1.0000
  C   C10       1.0  0.6882199999999999  0.71259  0.39995  1.0000
  C   C11       1.0  0.7097399999999999  0.87307  0.43439  1.0000
  C   C12       1.0  0.7513399999999999  0.90432  0.50847  1.0000
  C   C13       1.0  0.7735599999999998  0.7748199999999998  0.54973  1.0000
  C   C14       1.0  0.7561  0.61441  0.51507  1.0000
  C   C15       1.0  0.71447  0.58412  0.44093000000000004  1.0000
  C   C16       1.0  0.53828  0.011720000000000003  0.07432  1.0000
  C   C17       1.0  0.52354  0.15297999999999998  0.04116000000000001  1.0000
  C   C18       1.0  0.51474  0.85879  0.032920000000000005  1.0000
  O   O1        1.0  0.16670999999999997  0.19223  0.71506  1.0000
  O   O2        1.0  0.29227999999999993  0.33637  0.32653  1.0000
  O   O3        1.0  0.10839000000000001  0.99066  0.80216  1.0000
  O   O4        1.0  0.33339999999999986  0.68852  0.27386  1.0000
  O   O5        1.0  0.16746999999999998  0.79994  0.66326  1.0000
  O   O6        1.0  0.3873  0.88759  0.18449  1.0000
  O   O7        1.0  0.8333  0.80777  0.28494  1.0000
  O   O8        1.0  0.7077299999999999  0.66363  0.67347  1.0000
  O   O9        1.0  0.89162  0.009339999999999996  0.19784  1.0000
  O   O10       1.0  0.6665999999999996  0.31148  0.72615  1.0000
  O   O11       1.0  0.8325299999999999  0.20006  0.33674  1.0000
  O   O12       1.0  0.6126999999999999  0.11241  0.81551  1.0000
  O   O13       1.0  0.26453  0.49695999999999996  0.71882  1.0000
  O   O14       1.0  0.26198  0.028159999999999994  0.32658  1.0000
  O   O15       1.0  0.50284  0.80224  0.80191  1.0000
  O   O16       1.0  0.73548  0.50304  0.28118  1.0000
  O   O17       1.0  0.73802  0.9718400000000001  0.67342  1.0000
  O   O18       1.0  0.49715999999999994  0.19776  0.19809  1.0000
