data_image0
_chemical_formula_structural       Cd6H6C24O18
_chemical_formula_sum              "Cd6 H6 C24 O18"
_cell_length_a       7.3126
_cell_length_b       15.8481
_cell_length_c       15.858319999999999
_cell_angle_alpha    117.62720999999999
_cell_angle_beta     98.93944
_cell_angle_gamma    98.90667

_symmetry_space_group_name_H-M    'P 1'
_symmetry_Int_Tables_number       1

loop_
  _symmetry_equiv_pos_as_xyz
  'x,y,z'

loop_
  _atom_site_type_symbol
  _atom_site_label
  _atom_site_symmetry_multiplicity
  _atom_site_fract_x
  _atom_site_fract_y
  _atom_site_fract_z
  _atom_site_occupancy
  Cd  Cd1       1.0  0.51618  0.7424499999999998  0.41995999999999994  1.0000
  Cd  Cd2       1.0  0.09591000000000001  0.58034  0.32246  1.0000
  Cd  Cd3       1.0  0.77302  0.67744  0.25733  1.0000
  Cd  Cd4       1.0  0.48383  0.25755  0.58004  1.0000
  Cd  Cd5       1.0  0.9041000000000001  0.4196599999999998  0.6775399999999999  1.0000
  Cd  Cd6       1.0  0.22699000000000005  0.3225699999999999  0.74267  1.0000
  H   H1        1.0  0.3475900000000001  0.01934000000000002  0.54882  1.0000
  H   H2        1.0  0.7972400000000002  0.4504899999999999  0.46963  1.0000
  H   H3        1.0  0.32855999999999985  0.5293499999999998  0.9812199999999998  1.0000
  H   H4        1.0  0.6524199999999999  0.9806599999999998  0.45118  1.0000
  H   H5        1.0  0.20277999999999996  0.5495099999999998  0.53037  1.0000
  H   H6        1.0  0.67145  0.4706499999999998  0.018779999999999995  1.0000
  C   C1        1.0  0.16871000000000003  0.8326699999999998  0.43652  1.0000
  C   C2        1.0  0.07377999999999986  0.9156199999999998  0.4661499999999999  1.0000
  C   C3        1.0  0.19435000000000002  0.011099999999999983  0.52737  1.0000
  C   C4        1.0  0.12749  0.09628  0.56248  1.0000
  C   C5        1.0  0.73116  0.5630399999999998  0.3953399999999999  1.0000
  C   C6        1.0  0.60704  0.5336999999999998  0.4490899999999999  1.0000
  C   C7        1.0  0.66606  0.47226999999999986  0.48310999999999993  1.0000
  C   C8        1.0  0.5649400000000001  0.43746  0.53368  1.0000
  C   C9        1.0  0.3359  0.6040199999999999  0.16734  1.0000
  C   C10       1.0  0.15799999999999995  0.5505199999999998  0.08431  1.0000
  C   C11       1.0  0.1833300000000001  0.51612  0.98905  1.0000
  C   C12       1.0  0.031159999999999983  0.46596  0.90376  1.0000
  C   C13       1.0  0.8313000000000003  0.16734  0.56349  1.0000
  C   C14       1.0  0.9262299999999999  0.08438  0.53385  1.0000
  C   C15       1.0  0.8056600000000003  0.9888999999999998  0.47262999999999994  1.0000
  C   C16       1.0  0.87252  0.90373  0.43752  1.0000
  C   C17       1.0  0.2688499999999999  0.43696999999999986  0.6046599999999999  1.0000
  C   C18       1.0  0.3929799999999999  0.4663099999999999  0.55091  1.0000
  C   C19       1.0  0.33395  0.52773  0.5169  1.0000
  C   C20       1.0  0.43507  0.5625499999999998  0.46632  1.0000
  C   C21       1.0  0.66411  0.39599  0.83266  1.0000
  C   C22       1.0  0.84201  0.4494899999999998  0.9156899999999998  1.0000
  C   C23       1.0  0.8166800000000002  0.48389  0.01095  1.0000
  C   C24       1.0  0.9688500000000002  0.53405  0.09623999999999998  1.0000
  O   O1        1.0  0.06779999999999993  0.7434399999999999  0.37785999999999986  1.0000
  O   O2        1.0  0.35012000000000004  0.8550099999999998  0.4714499999999999  1.0000
  O   O3        1.0  0.25993  0.18417999999999993  0.62154  1.0000
  O   O4        1.0  0.6871900000000002  0.6202699999999998  0.36326  1.0000
  O   O5        1.0  0.87882  0.5292099999999997  0.38392  1.0000
  O   O6        1.0  0.63857  0.37843000000000004  0.56242  1.0000
  O   O7        1.0  0.32515  0.63502  0.25654  1.0000
  O   O8        1.0  0.49468  0.6164399999999998  0.14499  1.0000
  O   O9        1.0  0.07492999999999994  0.43691999999999986  0.81592  1.0000
  O   O10       1.0  0.9322200000000003  0.25656  0.62215  1.0000
  O   O11       1.0  0.64989  0.14498999999999992  0.52855  1.0000
  O   O12       1.0  0.74008  0.81583  0.37846  1.0000
  O   O13       1.0  0.31282  0.37973  0.63674  1.0000
  O   O14       1.0  0.12118999999999995  0.4707899999999999  0.61608  1.0000
  O   O15       1.0  0.3614399999999999  0.6215699999999997  0.4375799999999999  1.0000
  O   O16       1.0  0.6748599999999998  0.36498999999999987  0.74347  1.0000
  O   O17       1.0  0.50533  0.3835599999999999  0.8550199999999998  1.0000
  O   O18       1.0  0.92508  0.56308  0.18407999999999997  1.0000
