data_image0
_chemical_formula_structural       Cu8H24C16O24
_chemical_formula_sum              "Cu8 H24 C16 O24"
_cell_length_a       9.74442
_cell_length_b       10.52213
_cell_length_c       12.47242
_cell_angle_alpha    111.90145
_cell_angle_beta     106.85039
_cell_angle_gamma    94.03883999999998

_space_group_name_H-M_alt    "P 1"
_space_group_IT_number       1

loop_
  _space_group_symop_operation_xyz
  'x, y, z'

loop_
  _atom_site_type_symbol
  _atom_site_label
  _atom_site_symmetry_multiplicity
  _atom_site_fract_x
  _atom_site_fract_y
  _atom_site_fract_z
  _atom_site_occupancy
  Cu  Cu1       1.0  0.64126  0.9929000000000001  0.5966  1.0000
  Cu  Cu2       1.0  0.93402  0.10871  0.58531  1.0000
  Cu  Cu3       1.0  0.76082  0.79329  0.41677  1.0000
  Cu  Cu4       1.0  0.34072  0.8942  0.60756  1.0000
  Cu  Cu5       1.0  0.35872999999999994  0.007100000000000029  0.40340000000000004  1.0000
  Cu  Cu6       1.0  0.06596999999999996  0.8912899999999999  0.41469  1.0000
  Cu  Cu7       1.0  0.23918  0.20671000000000003  0.5832300000000001  1.0000
  Cu  Cu8       1.0  0.65928  0.10579  0.39244  1.0000
  H   H1        1.0  0.66011  0.48349  0.044300000000000006  1.0000
  H   H2        1.0  0.60262  0.61208  0.9921700000000002  1.0000
  H   H3        1.0  0.13371000000000002  0.4307  0.4975900000000001  1.0000
  H   H4        1.0  0.9803100000000001  0.4081600000000001  0.36535000000000006  1.0000
  H   H5        1.0  0.35487  0.013809999999999996  0.026810000000000004  1.0000
  H   H6        1.0  0.47745000000000004  0.15235  0.03928  1.0000
  H   H7        1.0  0.3709  0.57759  0.50246  1.0000
  H   H8        1.0  0.50946  0.59359  0.6331700000000001  1.0000
  H   H9        1.0  0.8849900000000002  0.9120100000000002  0.6595800000000002  1.0000
  H   H10       1.0  0.17454  0.06291000000000008  0.69711  1.0000
  H   H11       1.0  0.7333  0.25123  0.63238  1.0000
  H   H12       1.0  0.48442  0.14534000000000008  0.6939900000000001  1.0000
  H   H13       1.0  0.33988000000000007  0.5165100000000001  0.9557000000000001  1.0000
  H   H14       1.0  0.39738  0.38792  0.00783  1.0000
  H   H15       1.0  0.8662799999999999  0.5693  0.50241  1.0000
  H   H16       1.0  0.019679999999999993  0.59184  0.63465  1.0000
  H   H17       1.0  0.64513  0.9861899999999999  0.97319  1.0000
  H   H18       1.0  0.52255  0.84765  0.96072  1.0000
  H   H19       1.0  0.62909  0.42241  0.49754  1.0000
  H   H20       1.0  0.49053  0.40641  0.36683000000000004  1.0000
  H   H21       1.0  0.11500999999999999  0.08798999999999997  0.34042  1.0000
  H   H22       1.0  0.8254499999999999  0.9370900000000001  0.30289  1.0000
  H   H23       1.0  0.26669  0.7487600000000001  0.36762000000000006  1.0000
  H   H24       1.0  0.51557  0.85466  0.30601000000000006  1.0000
  C   C1        1.0  0.58769  0.64738  0.16617  1.0000
  C   C2        1.0  0.57595  0.54658  0.03755  1.0000
  C   C3        1.0  0.93226  0.31253  0.47742  1.0000
  C   C4        1.0  0.016220000000000012  0.42887000000000003  0.46331  1.0000
  C   C5        1.0  0.35951  0.010329999999999943  0.85544  1.0000
  C   C6        1.0  0.43701  0.038570000000000076  0.9893800000000003  1.0000
  C   C7        1.0  0.57536  0.69088  0.52894  1.0000
  C   C8        1.0  0.48693999999999993  0.5717  0.53569  1.0000
  C   C9        1.0  0.41229999999999994  0.3526200000000001  0.83383  1.0000
  C   C10       1.0  0.42405  0.45342  0.96245  1.0000
  C   C11       1.0  0.06773000000000005  0.6874700000000001  0.5225800000000002  1.0000
  C   C12       1.0  0.98378  0.57113  0.53669  1.0000
  C   C13       1.0  0.64049  0.98966  0.14457  1.0000
  C   C14       1.0  0.56298  0.9614299999999999  0.01062  1.0000
  C   C15       1.0  0.42463  0.30912  0.47106  1.0000
  C   C16       1.0  0.51306  0.42830000000000007  0.46431000000000006  1.0000
  O   O1        1.0  0.70829  0.65723  0.24979000000000007  1.0000
  O   O2        1.0  0.48779999999999996  0.71379  0.18356  1.0000
  O   O3        1.0  0.005610000000000061  0.26887000000000005  0.5559600000000001  1.0000
  O   O4        1.0  0.79743  0.26967  0.41346  1.0000
  O   O5        1.0  0.24262000000000006  0.05347000000000003  0.8260600000000001  1.0000
  O   O6        1.0  0.4238200000000001  0.9433800000000001  0.7808200000000001  1.0000
  O   O7        1.0  0.65327  0.66264  0.46061  1.0000
  O   O8        1.0  0.56219  0.81381  0.59481  1.0000
  O   O9        1.0  0.8346099999999999  0.9424  0.59662  1.0000
  O   O10       1.0  0.12965  0.06448  0.6126  1.0000
  O   O11       1.0  0.73606  0.15744000000000005  0.57853  1.0000
  O   O12       1.0  0.46419  0.057730000000000004  0.61497  1.0000
  O   O13       1.0  0.29170000000000007  0.3427700000000001  0.7502100000000002  1.0000
  O   O14       1.0  0.5121900000000001  0.28621000000000013  0.8164400000000002  1.0000
  O   O15       1.0  0.99438  0.7311300000000001  0.44404  1.0000
  O   O16       1.0  0.20256  0.73033  0.58654  1.0000
  O   O17       1.0  0.75738  0.9465300000000001  0.17394000000000004  1.0000
  O   O18       1.0  0.57617  0.05662  0.21918  1.0000
  O   O19       1.0  0.34672000000000003  0.33736000000000005  0.5393900000000001  1.0000
  O   O20       1.0  0.43781  0.18619  0.40519  1.0000
  O   O21       1.0  0.16538  0.0576  0.40338  1.0000
  O   O22       1.0  0.87035  0.93551  0.3874000000000001  1.0000
  O   O23       1.0  0.26394  0.8425600000000001  0.42147  1.0000
  O   O24       1.0  0.53581  0.9422700000000002  0.38503  1.0000
