data_image0
_chemical_formula_structural       Zn2H24C46Br2N6O8
_chemical_formula_sum              "Zn2 H24 C46 Br2 N6 O8"
_cell_length_a       11.7129
_cell_length_b       15.74279
_cell_length_c       17.99745
_cell_angle_alpha    90.0
_cell_angle_beta     93.21208000000001
_cell_angle_gamma    90.0

_symmetry_space_group_name_H-M    'P 1'
_symmetry_Int_Tables_number       1

loop_
  _symmetry_equiv_pos_as_xyz
  'x,y,z'

loop_
  _atom_site_type_symbol
  _atom_site_label
  _atom_site_symmetry_multiplicity
  _atom_site_fract_x
  _atom_site_fract_y
  _atom_site_fract_z
  _atom_site_occupancy
  Zn  Zn1       1.0  0.99151  0.0  0.92384  1.0000
  Zn  Zn2       1.0  0.0085  0.0  0.07615  1.0000
  H   H1        1.0  0.74369  0.7995  0.88152  1.0000
  H   H2        1.0  0.76685  0.79806  0.11973  1.0000
  H   H3        1.0  0.64352  0.66829  0.12018000000000001  1.0000
  H   H4        1.0  0.62117  0.66925  0.88096  1.0000
  H   H5        1.0  0.25631  0.7995  0.11847  1.0000
  H   H6        1.0  0.23315  0.79806  0.88026  1.0000
  H   H7        1.0  0.35648  0.66829  0.87982  1.0000
  H   H8        1.0  0.37884  0.66925  0.11904  1.0000
  H   H9        1.0  0.25631  0.2005  0.11847  1.0000
  H   H10       1.0  0.23315  0.20194  0.88026  1.0000
  H   H11       1.0  0.35648  0.33171  0.87982  1.0000
  H   H12       1.0  0.37884  0.33075  0.11904  1.0000
  H   H13       1.0  0.74369  0.2005  0.88152  1.0000
  H   H14       1.0  0.76685  0.20194  0.11973  1.0000
  H   H15       1.0  0.64352  0.33171  0.12018000000000001  1.0000
  H   H16       1.0  0.62117  0.33075  0.88096  1.0000
  H   H17       1.0  0.16801  0.0  0.81304  1.0000
  H   H18       1.0  0.81467  0.0  0.79553  1.0000
  H   H19       1.0  0.18024  0.0  0.67335  1.0000
  H   H20       1.0  0.8111099999999999  0.0  0.65511  1.0000
  H   H21       1.0  0.83199  0.0  0.18696  1.0000
  H   H22       1.0  0.18534  0.0  0.20447  1.0000
  H   H23       1.0  0.81976  0.0  0.32663999999999993  1.0000
  H   H24       1.0  0.18889  0.0  0.34489  1.0000
  C   C1        1.0  0.7630500000000001  0.80625  0.00057  1.0000
  C   C2        1.0  0.84363  0.88021  0.00011  1.0000
  C   C3        1.0  0.56033  0.5784500000000002  0.00041  1.0000
  C   C4        1.0  0.62534  0.6598500000000003  0.00058  1.0000
  C   C5        1.0  0.72038  0.7704300000000002  0.9333  1.0000
  C   C6        1.0  0.73343  0.76975  0.06789  1.0000
  C   C7        1.0  0.6649  0.69732  0.0679  1.0000
  C   C8        1.0  0.65216  0.69788  0.93327  1.0000
  C   C9        1.0  0.23695  0.80625  0.99943  1.0000
  C   C10       1.0  0.15637  0.88021  0.99989  1.0000
  C   C11       1.0  0.43967  0.5784500000000002  0.99958  1.0000
  C   C12       1.0  0.37466  0.6598500000000003  0.9994199999999999  1.0000
  C   C13       1.0  0.27962  0.7704300000000002  0.0667  1.0000
  C   C14       1.0  0.26658  0.76975  0.9321  1.0000
  C   C15       1.0  0.3351099999999999  0.69732  0.9320899999999999  1.0000
  C   C16       1.0  0.34785  0.69788  0.06673  1.0000
  C   C17       1.0  0.23695  0.19375000000000006  0.99943  1.0000
  C   C18       1.0  0.15637  0.11979000000000002  0.99989  1.0000
  C   C19       1.0  0.43967  0.42155  0.99958  1.0000
  C   C20       1.0  0.37466  0.34014  0.9994199999999999  1.0000
  C   C21       1.0  0.27962  0.22957  0.0667  1.0000
  C   C22       1.0  0.26658  0.23025  0.9321  1.0000
  C   C23       1.0  0.3351099999999999  0.30268  0.9320899999999999  1.0000
  C   C24       1.0  0.34785  0.30212  0.06673  1.0000
  C   C25       1.0  0.7630500000000001  0.19375000000000006  0.00057  1.0000
  C   C26       1.0  0.84363  0.11979000000000002  0.00011  1.0000
  C   C27       1.0  0.56033  0.42155  0.00041  1.0000
  C   C28       1.0  0.62534  0.34014  0.00058  1.0000
  C   C29       1.0  0.72038  0.22957  0.9333  1.0000
  C   C30       1.0  0.73343  0.23025  0.06789  1.0000
  C   C31       1.0  0.6649  0.30268  0.0679  1.0000
  C   C32       1.0  0.65216  0.30212  0.93327  1.0000
  C   C33       1.0  0.09181  0.0  0.7755  1.0000
  C   C34       1.0  0.89303  0.0  0.76572  1.0000
  C   C35       1.0  0.09801000000000001  0.0  0.69851  1.0000
  C   C36       1.0  0.9959699999999998  0.0  0.6536799999999999  1.0000
  C   C37       1.0  0.89149  0.0  0.68834  1.0000
  C   C38       1.0  0.99825  0.0  0.57175  1.0000
  C   C39       1.0  0.9082  0.0  0.22448999999999997  1.0000
  C   C40       1.0  0.10697  0.0  0.23427999999999996  1.0000
  C   C41       1.0  0.902  0.0  0.30149  1.0000
  C   C42       1.0  0.004040000000000002  0.0  0.34632  1.0000
  C   C43       1.0  0.10851  0.0  0.31166  1.0000
  C   C44       1.0  0.0017600000000000033  0.0  0.42824  1.0000
  C   C45       1.0  0.61754  0.5  0.0008099999999999998  1.0000
  C   C46       1.0  0.38247  0.5  0.9991899999999999  1.0000
  Br  Br1       1.0  0.78252  0.5  0.0017  1.0000
  Br  Br2       1.0  0.21748  0.5  0.9982999999999999  1.0000
  N   N1        1.0  0.99122  0.0  0.80839  1.0000
  N   N2        1.0  0.10163999999999998  0.0  0.54155  1.0000
  N   N3        1.0  0.89665  0.0  0.53187  1.0000
  N   N4        1.0  0.00879  0.0  0.1916  1.0000
  N   N5        1.0  0.89836  0.0  0.45845  1.0000
  N   N6        1.0  0.10335999999999998  0.0  0.46813000000000005  1.0000
  O   O1        1.0  0.86855  0.90878  0.93665  1.0000
  O   O2        1.0  0.8832200000000001  0.90802  0.06304999999999998  1.0000
  O   O3        1.0  0.13146  0.90878  0.06334  1.0000
  O   O4        1.0  0.11678999999999999  0.90802  0.93695  1.0000
  O   O5        1.0  0.13146  0.09121  0.06334  1.0000
  O   O6        1.0  0.11678999999999999  0.09197000000000002  0.93695  1.0000
  O   O7        1.0  0.86855  0.09121  0.93665  1.0000
  O   O8        1.0  0.8832200000000001  0.09197000000000002  0.06304999999999998  1.0000
