data_image0
_chemical_formula_structural       Ca4H16C32O16
_chemical_formula_sum              "Ca4 H16 C32 O16"
_cell_length_a       6.70731
_cell_length_b       11.04963
_cell_length_c       18.58607
_cell_angle_alpha    89.8493
_cell_angle_beta     89.97622
_cell_angle_gamma    90.07697000000002

_symmetry_space_group_name_H-M    'P 1'
_symmetry_Int_Tables_number       1

loop_
  _symmetry_equiv_pos_as_xyz
  'x,y,z'

loop_
  _atom_site_type_symbol
  _atom_site_label
  _atom_site_symmetry_multiplicity
  _atom_site_fract_x
  _atom_site_fract_y
  _atom_site_fract_z
  _atom_site_occupancy
  Ca  Ca1       1.0  0.25  0.5833  0.00283  1.0000
  Ca  Ca2       1.0  0.7504000000000001  0.91723  0.50201  1.0000
  Ca  Ca3       1.0  0.75  0.41671  0.99717  1.0000
  Ca  Ca4       1.0  0.2496  0.08278  0.49799  1.0000
  H   H1        1.0  0.56658  0.74206  0.7908800000000001  1.0000
  H   H2        1.0  0.56865  0.81737  0.6629  1.0000
  H   H3        1.0  0.43373  0.75928  0.29  1.0000
  H   H4        1.0  0.43195  0.68172  0.16284  1.0000
  H   H5        1.0  0.0692  0.25795  0.20938  1.0000
  H   H6        1.0  0.06958  0.18257  0.33726  1.0000
  H   H7        1.0  0.93071  0.24072  0.7101300000000001  1.0000
  H   H8        1.0  0.92955  0.3183  0.83733  1.0000
  H   H9        1.0  0.43342  0.25795  0.20912  1.0000
  H   H10       1.0  0.43135000000000007  0.18264  0.3371  1.0000
  H   H11       1.0  0.56627  0.24073  0.7100000000000001  1.0000
  H   H12       1.0  0.56805  0.31828  0.83716  1.0000
  H   H13       1.0  0.9308  0.74206  0.79062  1.0000
  H   H14       1.0  0.93042  0.81743  0.6627400000000001  1.0000
  H   H15       1.0  0.06929  0.75928  0.28987  1.0000
  H   H16       1.0  0.07045  0.68171  0.16267  1.0000
  C   C1        1.0  0.42977  0.75817  0.76145  1.0000
  C   C2        1.0  0.43001  0.79923  0.69067  1.0000
  C   C3        1.0  0.57061  0.74259  0.26072  1.0000
  C   C4        1.0  0.57065  0.70008  0.19039  1.0000
  C   C5        1.0  0.93203  0.24185  0.23866  1.0000
  C   C6        1.0  0.9313700000000003  0.20077  0.30939  1.0000
  C   C7        1.0  0.06761  0.25741  0.73938  1.0000
  C   C8        1.0  0.06804  0.29991  0.80969  1.0000
  C   C9        1.0  0.57023  0.24183  0.23855  1.0000
  C   C10       1.0  0.56999  0.20077  0.30933  1.0000
  C   C11       1.0  0.42939  0.25741  0.73928  1.0000
  C   C12       1.0  0.42935  0.29992  0.80961  1.0000
  C   C13       1.0  0.06797  0.7581599999999998  0.76134  1.0000
  C   C14       1.0  0.06863  0.79924  0.69061  1.0000
  C   C15       1.0  0.9323900000000003  0.74259  0.26062  1.0000
  C   C16       1.0  0.9319600000000002  0.70009  0.19031  1.0000
  C   C17       1.0  0.24795  0.69651  0.87419  1.0000
  C   C18       1.0  0.24864000000000003  0.7384400000000001  0.79712  1.0000
  C   C19       1.0  0.24952000000000005  0.82071  0.65487  1.0000
  C   C20       1.0  0.24837  0.8753300000000002  0.5816600000000001  1.0000
  C   C21       1.0  0.75215  0.8063500000000001  0.37274  1.0000
  C   C22       1.0  0.75161  0.7630400000000002  0.29615  1.0000
  C   C23       1.0  0.75123  0.6778  0.15477  1.0000
  C   C24       1.0  0.7516000000000003  0.62233  0.08189  1.0000
  C   C25       1.0  0.75205  0.30349  0.12581000000000003  1.0000
  C   C26       1.0  0.75136  0.26156  0.20288  1.0000
  C   C27       1.0  0.75047  0.17929  0.34512  1.0000
  C   C28       1.0  0.75163  0.12468  0.41834  1.0000
  C   C29       1.0  0.24785  0.19365000000000002  0.62726  1.0000
  C   C30       1.0  0.24839  0.23696000000000003  0.7038500000000001  1.0000
  C   C31       1.0  0.24877  0.3222  0.84523  1.0000
  C   C32       1.0  0.2484  0.37768  0.9181099999999999  1.0000
  O   O1        1.0  0.08085000000000002  0.6785  0.90553  1.0000
  O   O2        1.0  0.08072  0.90353  0.5525800000000001  1.0000
  O   O3        1.0  0.91926  0.82466  0.40392  1.0000
  O   O4        1.0  0.91835  0.59426  0.05207  1.0000
  O   O5        1.0  0.58506  0.32149  0.09441  1.0000
  O   O6        1.0  0.58615  0.09728  0.44956  1.0000
  O   O7        1.0  0.41493  0.17525  0.59602  1.0000
  O   O8        1.0  0.41452  0.40565000000000007  0.94847  1.0000
  O   O9        1.0  0.91915  0.32151  0.09447  1.0000
  O   O10       1.0  0.91928  0.09648  0.44741  1.0000
  O   O11       1.0  0.08074  0.17534  0.59608  1.0000
  O   O12       1.0  0.08165  0.40573999999999993  0.94793  1.0000
  O   O13       1.0  0.41494  0.67852  0.90559  1.0000
  O   O14       1.0  0.41385  0.90273  0.55043  1.0000
  O   O15       1.0  0.58507  0.82476  0.40398  1.0000
  O   O16       1.0  0.58548  0.59435  0.05153  1.0000
