data_image0
_chemical_formula_structural       La2H18C30O16
_chemical_formula_sum              "La2 H18 C30 O16"
_cell_length_a       9.51856
_cell_length_b       9.96435
_cell_length_c       11.18566
_cell_angle_alpha    91.84772000000001
_cell_angle_beta     97.27171000000001
_cell_angle_gamma    109.91713000000001

_space_group_name_H-M_alt    "P 1"
_space_group_IT_number       1

loop_
  _space_group_symop_operation_xyz
  'x, y, z'

loop_
  _atom_site_type_symbol
  _atom_site_label
  _atom_site_symmetry_multiplicity
  _atom_site_fract_x
  _atom_site_fract_y
  _atom_site_fract_z
  _atom_site_occupancy
  La  La1       1.0  0.7229899999999998  0.96415  0.02645  1.0000
  La  La2       1.0  0.277  0.035849999999999986  0.97356  1.0000
  H   H1        1.0  0.6742199999999998  0.5124  0.9821000000000001  1.0000
  H   H2        1.0  0.80253  0.20715  0.77958  1.0000
  H   H3        1.0  0.09727999999999999  0.64784  0.83987  1.0000
  H   H4        1.0  0.82694  0.4164  0.57751  1.0000
  H   H5        1.0  0.7392  0.28517000000000003  0.37222000000000005  1.0000
  H   H6        1.0  0.08388999999999999  0.0971  0.43133  1.0000
  H   H7        1.0  0.1723  0.22822  0.63761  1.0000
  H   H8        1.0  0.7405099999999998  0.86712  0.7423  1.0000
  H   H9        1.0  0.9063699999999997  0.9647399999999999  0.7894  1.0000
  H   H10       1.0  0.32578  0.4875999999999999  0.0179  1.0000
  H   H11       1.0  0.19746999999999995  0.7928599999999999  0.22043  1.0000
  H   H12       1.0  0.90272  0.35216  0.16014  1.0000
  H   H13       1.0  0.17306  0.5836  0.42249  1.0000
  H   H14       1.0  0.26078999999999997  0.7148299999999999  0.62779  1.0000
  H   H15       1.0  0.9161  0.9029  0.56868  1.0000
  H   H16       1.0  0.8276899999999999  0.77179  0.36239  1.0000
  H   H17       1.0  0.25949  0.13289  0.2577  1.0000
  H   H18       1.0  0.09363  0.03527  0.21061  1.0000
  C   C1        1.0  0.9228799999999999  0.74177  0.97623  1.0000
  C   C2        1.0  0.8892799999999998  0.59521  0.9178700000000001  1.0000
  C   C3        1.0  0.7535099999999997  0.4875099999999999  0.93122  1.0000
  C   C4        1.0  0.7237599999999998  0.34728  0.88368  1.0000
  C   C5        1.0  0.5858299999999997  0.23253  0.91014  1.0000
  C   C6        1.0  0.82473  0.31613999999999987  0.81616  1.0000
  C   C7        1.0  0.9551399999999998  0.42690999999999996  0.79753  1.0000
  C   C8        1.0  0.9913499999999998  0.56513  0.8507  1.0000
  C   C9        1.0  0.004249999999999982  0.32842999999999994  0.61846  1.0000
  C   C10       1.0  0.88188  0.3458599999999999  0.54507  1.0000
  C   C11       1.0  0.8334699999999999  0.27315  0.43106000000000005  1.0000
  C   C12       1.0  0.90529  0.18265999999999996  0.38892  1.0000
  C   C13       1.0  0.8445  0.10136  0.26936  1.0000
  C   C14       1.0  0.02985999999999999  0.16905999999999996  0.46271  1.0000
  C   C15       1.0  0.07978999999999999  0.24140999999999999  0.57732  1.0000
  C   C16       1.0  0.07710999999999998  0.25823  0.023779999999999996  1.0000
  C   C17       1.0  0.11070999999999995  0.40478999999999987  0.08214  1.0000
  C   C18       1.0  0.24648999999999993  0.5124999999999998  0.06879  1.0000
  C   C19       1.0  0.27623999999999993  0.65272  0.11633000000000002  1.0000
  C   C20       1.0  0.41417  0.76747  0.08986  1.0000
  C   C21       1.0  0.17526000000000003  0.68386  0.18383999999999998  1.0000
  C   C22       1.0  0.04486000000000001  0.5731  0.20247  1.0000
  C   C23       1.0  0.008649999999999996  0.43487999999999993  0.14931  1.0000
  C   C24       1.0  0.9957399999999997  0.6715699999999998  0.38155  1.0000
  C   C25       1.0  0.11811999999999999  0.6541499999999999  0.45493  1.0000
  C   C26       1.0  0.1665299999999999  0.7268599999999997  0.56895  1.0000
  C   C27       1.0  0.09470999999999999  0.81734  0.61108  1.0000
  C   C28       1.0  0.1554999999999999  0.89865  0.73064  1.0000
  C   C29       1.0  0.9701399999999999  0.8309399999999999  0.53729  1.0000
  C   C30       1.0  0.9202099999999998  0.7585899999999998  0.42268  1.0000
  O   O1        1.0  0.81469  0.7677599999999999  0.01616  1.0000
  O   O2        1.0  0.05578999999999999  0.83306  0.98374  1.0000
  O   O3        1.0  0.47273999999999994  0.26592  0.9288600000000001  1.0000
  O   O4        1.0  0.5831599999999999  0.10196  0.9155  1.0000
  O   O5        1.0  0.059289999999999995  0.39932  0.7322  1.0000
  O   O6        1.0  0.73002  0.11845999999999997  0.20679  1.0000
  O   O7        1.0  0.90377  0.01336  0.22851999999999997  1.0000
  O   O8        1.0  0.79923  0.94728  0.80031  1.0000
  O   O9        1.0  0.18530999999999997  0.23224  0.9838499999999999  1.0000
  O   O10       1.0  0.94421  0.16695  0.01626  1.0000
  O   O11       1.0  0.52726  0.73408  0.07114  1.0000
  O   O12       1.0  0.41683  0.89805  0.0845  1.0000
  O   O13       1.0  0.9407099999999999  0.6006899999999997  0.2678  1.0000
  O   O14       1.0  0.26998  0.8815399999999999  0.79322  1.0000
  O   O15       1.0  0.09621999999999997  0.9866499999999999  0.77149  1.0000
  O   O16       1.0  0.20076999999999992  0.05272  0.19969999999999996  1.0000
