data_image0
_chemical_formula_structural       Tb4H12C24O24
_chemical_formula_sum              "Tb4 H12 C24 O24"
_cell_length_a       10.01391
_cell_length_b       12.46294
_cell_length_c       12.494429999999998
_cell_angle_alpha    100.04422000000001
_cell_angle_beta     91.55910000000002
_cell_angle_gamma    91.69136999999999

_space_group_name_H-M_alt    "P 1"
_space_group_IT_number       1

loop_
  _space_group_symop_operation_xyz
  'x, y, z'

loop_
  _atom_site_type_symbol
  _atom_site_label
  _atom_site_symmetry_multiplicity
  _atom_site_fract_x
  _atom_site_fract_y
  _atom_site_fract_z
  _atom_site_occupancy
  Tb  Tb1       1.0  0.46884  0.23977  0.2617  1.0000
  Tb  Tb2       1.0  0.03325999999999999  0.7388  0.7616199999999999  1.0000
  Tb  Tb3       1.0  0.53122  0.7601999999999999  0.73829  1.0000
  Tb  Tb4       1.0  0.9681799999999999  0.26143  0.23859  1.0000
  H   H1        1.0  0.39993  0.07143  0.57005  1.0000
  H   H2        1.0  0.59961  0.43804  0.51037  1.0000
  H   H3        1.0  0.59669  0.01991000000000003  0.94933  1.0000
  H   H4        1.0  0.09989  0.42936  0.92884  1.0000
  H   H5        1.0  0.9009899999999998  0.48893  0.56178  1.0000
  H   H6        1.0  0.90291  0.05028999999999997  0.97986  1.0000
  H   H7        1.0  0.6001100000000001  0.92848  0.42982  1.0000
  H   H8        1.0  0.40063999999999994  0.56221  0.48979999999999996  1.0000
  H   H9        1.0  0.4036099999999999  0.98039  0.05108  1.0000
  H   H10       1.0  0.9000399999999998  0.57061  0.07109  1.0000
  H   H11       1.0  0.09939999999999999  0.51099  0.43815  1.0000
  H   H12       1.0  0.09744  0.94961  0.02009  1.0000
  C   C1        1.0  0.46622  0.11226  0.41546999999999995  1.0000
  C   C2        1.0  0.46357  0.04465999999999998  0.50185  1.0000
  C   C3        1.0  0.75247  0.34876  0.41166  1.0000
  C   C4        1.0  0.70714  0.4292799999999999  0.50396  1.0000
  C   C5        1.0  0.68776  0.14464  0.0801  1.0000
  C   C6        1.0  0.6922  0.05416999999999995  0.9854199999999999  1.0000
  C   C7        1.0  0.03395999999999997  0.5842799999999998  0.8876999999999999  1.0000
  C   C8        1.0  0.03640999999999999  0.49785  0.9553  1.0000
  C   C9        1.0  0.7493199999999999  0.58793  0.65136  1.0000
  C   C10       1.0  0.79352  0.49557000000000007  0.57044  1.0000
  C   C11       1.0  0.81204  0.91954  0.85519  1.0000
  C   C12       1.0  0.8073799999999999  0.014259999999999995  0.9456  1.0000
  C   C13       1.0  0.53377  0.88769  0.58444  1.0000
  C   C14       1.0  0.53645  0.9552599999999999  0.49802  1.0000
  C   C15       1.0  0.24763999999999997  0.65126  0.58848  1.0000
  C   C16       1.0  0.29313  0.57089  0.49618  1.0000
  C   C17       1.0  0.31267  0.85554  0.92025  1.0000
  C   C18       1.0  0.30824  0.94595  0.01486  1.0000
  C   C19       1.0  0.9661099999999999  0.41574999999999995  0.11223  1.0000
  C   C20       1.0  0.9635099999999999  0.50214  0.04460999999999998  1.0000
  C   C21       1.0  0.25164  0.41229999999999994  0.34881  1.0000
  C   C22       1.0  0.20692  0.50455  0.42961999999999995  1.0000
  C   C23       1.0  0.18805999999999998  0.08042  0.14478  1.0000
  C   C24       1.0  0.19289  0.9857199999999999  0.054429999999999985  1.0000
  O   O1        1.0  0.40054  0.20059  0.4291  1.0000
  O   O2        1.0  0.53283  0.08439  0.3289  1.0000
  O   O3        1.0  0.6649499999999999  0.31156  0.33701  1.0000
  O   O4        1.0  0.87447  0.32224  0.4067  1.0000
  O   O5        1.0  0.5735  0.18519  0.10112999999999998  1.0000
  O   O6        1.0  0.7942299999999998  0.17507  0.13654  1.0000
  O   O7        1.0  0.09978  0.57067  0.79958  1.0000
  O   O8        1.0  0.9673999999999999  0.67103  0.91557  1.0000
  O   O9        1.0  0.83847  0.6614299999999999  0.6887  1.0000
  O   O10       1.0  0.6270799999999999  0.5936  0.6777499999999999  1.0000
  O   O11       1.0  0.9264699999999999  0.89886  0.8148  1.0000
  O   O12       1.0  0.70558  0.86292  0.82461  1.0000
  O   O13       1.0  0.5994599999999999  0.7993499999999999  0.57087  1.0000
  O   O14       1.0  0.46713999999999994  0.91557  0.6709899999999999  1.0000
  O   O15       1.0  0.33473  0.68832  0.66362  1.0000
  O   O16       1.0  0.12569  0.67781  0.59305  1.0000
  O   O17       1.0  0.4267299999999999  0.81486  0.89903  1.0000
  O   O18       1.0  0.20603999999999997  0.82511  0.8639599999999998  1.0000
  O   O19       1.0  0.9004199999999999  0.42934  0.20041  1.0000
  O   O20       1.0  0.03278  0.32907  0.08433  1.0000
  O   O21       1.0  0.16308999999999998  0.33833  0.31137  1.0000
  O   O22       1.0  0.37375  0.40689  0.32237  1.0000
  O   O23       1.0  0.07362  0.10101999999999998  0.18519999999999998  1.0000
  O   O24       1.0  0.2944  0.13718  0.1753  1.0000
