data_image0
_chemical_formula_structural       Cu4H16C36N16O16
_chemical_formula_sum              "Cu4 H16 C36 N16 O16"
_cell_length_a       10.87316
_cell_length_b       11.75476
_cell_length_c       14.86573
_cell_angle_alpha    89.92960999999998
_cell_angle_beta     109.54744999999998
_cell_angle_gamma    90.02934

_space_group_name_H-M_alt    "P 1"
_space_group_IT_number       1

loop_
  _space_group_symop_operation_xyz
  'x, y, z'

loop_
  _atom_site_type_symbol
  _atom_site_label
  _atom_site_symmetry_multiplicity
  _atom_site_fract_x
  _atom_site_fract_y
  _atom_site_fract_z
  _atom_site_occupancy
  Cu  Cu1       1.0  0.40671999999999997  0.42441  0.9768699999999999  1.0000
  Cu  Cu2       1.0  0.59234  0.9232000000000001  0.523  1.0000
  Cu  Cu3       1.0  0.59328  0.5756  0.02313  1.0000
  Cu  Cu4       1.0  0.40765999999999997  0.0768  0.47699  1.0000
  H   H1        1.0  0.88661  0.3757400000000001  0.95089  1.0000
  H   H2        1.0  0.8873  0.12587  0.73816  1.0000
  H   H3        1.0  0.52323  0.25368  0.75358  1.0000
  H   H4        1.0  0.09289999999999991  0.43158  0.90736  1.0000
  H   H5        1.0  0.11464000000000005  0.87693  0.54937  1.0000
  H   H6        1.0  0.11201999999999997  0.62579  0.76123  1.0000
  H   H7        1.0  0.4770099999999999  0.7526800000000001  0.7466299999999998  1.0000
  H   H8        1.0  0.90752  0.93226  0.59294  1.0000
  H   H9        1.0  0.11338999999999999  0.62426  0.04910999999999999  1.0000
  H   H10       1.0  0.11269999999999998  0.8741300000000001  0.26184  1.0000
  H   H11       1.0  0.47677  0.7463200000000001  0.24641  1.0000
  H   H12       1.0  0.9070999999999999  0.5684200000000001  0.09263999999999999  1.0000
  H   H13       1.0  0.88536  0.12307  0.45063  1.0000
  H   H14       1.0  0.88798  0.37421  0.23876999999999998  1.0000
  H   H15       1.0  0.52299  0.24733  0.25337  1.0000
  H   H16       1.0  0.09248  0.06774  0.40706  1.0000
  C   C1        1.0  0.6255599999999999  0.39115  0.9083699999999998  1.0000
  C   C2        1.0  0.6975599999999998  0.32107  0.8579199999999999  1.0000
  C   C3        1.0  0.8341999999999998  0.32243  0.8905399999999998  1.0000
  C   C4        1.0  0.90066  0.25212  0.84671  1.0000
  C   C5        1.0  0.83417  0.18093000000000006  0.7709699999999999  1.0000
  C   C6        1.0  0.6976  0.18375  0.73635  1.0000
  C   C7        1.0  0.6293299999999997  0.253  0.7800899999999997  1.0000
  C   C8        1.0  0.62453  0.11424000000000002  0.65042  1.0000
  C   C9        1.0  0.12164999999999992  0.34342  0.90814  1.0000
  C   C10       1.0  0.37592  0.89067  0.59206  1.0000
  C   C11       1.0  0.3031  0.8212300000000001  0.6424  1.0000
  C   C12       1.0  0.16649999999999995  0.82315  0.6096199999999999  1.0000
  C   C13       1.0  0.09947000000000002  0.7526200000000001  0.65302  1.0000
  C   C14       1.0  0.16542000000000007  0.68107  0.7287  1.0000
  C   C15       1.0  0.30196999999999996  0.68362  0.7635899999999999  1.0000
  C   C16       1.0  0.37089  0.7526300000000001  0.72012  1.0000
  C   C17       1.0  0.37394  0.61362  0.84947  1.0000
  C   C18       1.0  0.8786099999999999  0.8441100000000001  0.59205  1.0000
  C   C19       1.0  0.37444  0.6088500000000001  0.09161999999999998  1.0000
  C   C20       1.0  0.30244  0.67893  0.14208  1.0000
  C   C21       1.0  0.1658  0.67758  0.10946  1.0000
  C   C22       1.0  0.09934  0.7478800000000001  0.15329  1.0000
  C   C23       1.0  0.16583  0.8190700000000002  0.22903  1.0000
  C   C24       1.0  0.3024  0.8162500000000003  0.26365  1.0000
  C   C25       1.0  0.37067  0.74701  0.21991  1.0000
  C   C26       1.0  0.37547  0.8857600000000002  0.34958  1.0000
  C   C27       1.0  0.87835  0.65658  0.09186  1.0000
  C   C28       1.0  0.6240800000000001  0.10933000000000001  0.40794  1.0000
  C   C29       1.0  0.6968999999999999  0.17878000000000002  0.35758999999999996  1.0000
  C   C30       1.0  0.8334999999999999  0.17685000000000003  0.39037  1.0000
  C   C31       1.0  0.90053  0.24738  0.34697  1.0000
  C   C32       1.0  0.83457  0.31893  0.2713  1.0000
  C   C33       1.0  0.69803  0.31638  0.23640999999999995  1.0000
  C   C34       1.0  0.62911  0.24737000000000003  0.27987  1.0000
  C   C35       1.0  0.62606  0.38638  0.15053  1.0000
  C   C36       1.0  0.12139000000000003  0.15589  0.40794  1.0000
  N   N1        1.0  0.03994000000000001  0.25398000000000004  0.88012  1.0000
  N   N2        1.0  0.11402000000000001  0.1573  0.88872  1.0000
  N   N3        1.0  0.23548  0.18961000000000003  0.92129  1.0000
  N   N4        1.0  0.24296999999999988  0.30502000000000007  0.93404  1.0000
  N   N5        1.0  0.9602399999999998  0.7545600000000002  0.6195299999999998  1.0000
  N   N6        1.0  0.8861399999999999  0.65786  0.6110799999999998  1.0000
  N   N7        1.0  0.76471  0.6903000000000002  0.5790299999999998  1.0000
  N   N8        1.0  0.7573  0.80575  0.56654  1.0000
  N   N9        1.0  0.96006  0.7460200000000001  0.11988  1.0000
  N   N10       1.0  0.88598  0.8427000000000002  0.11128  1.0000
  N   N11       1.0  0.7645199999999999  0.8103900000000002  0.07871  1.0000
  N   N12       1.0  0.7570299999999999  0.69498  0.06596  1.0000
  N   N13       1.0  0.039759999999999934  0.24544000000000002  0.38046999999999986  1.0000
  N   N14       1.0  0.11386  0.34214000000000006  0.38891  1.0000
  N   N15       1.0  0.23528999999999992  0.3097  0.4209699999999999  1.0000
  N   N16       1.0  0.24270000000000005  0.19425  0.43346  1.0000
  O   O1        1.0  0.5137999999999998  0.35461000000000004  0.9045599999999998  1.0000
  O   O2        1.0  0.68393  0.4799300000000001  0.9514699999999999  1.0000
  O   O3        1.0  0.51433  0.15332  0.5989  1.0000
  O   O4        1.0  0.68017  0.02368  0.63639  1.0000
  O   O5        1.0  0.48640999999999995  0.8519200000000002  0.5950999999999997  1.0000
  O   O6        1.0  0.31976  0.98084  0.54993  1.0000
  O   O7        1.0  0.4855099999999999  0.65048  0.9005099999999998  1.0000
  O   O8        1.0  0.31567999999999985  0.52481  0.8639599999999997  1.0000
  O   O9        1.0  0.4862  0.6454  0.09544  1.0000
  O   O10       1.0  0.31607  0.52007  0.04852999999999999  1.0000
  O   O11       1.0  0.48567  0.8466800000000001  0.4011  1.0000
  O   O12       1.0  0.31983  0.9763200000000002  0.36361  1.0000
  O   O13       1.0  0.51359  0.14809  0.4048999999999999  1.0000
  O   O14       1.0  0.68024  0.01916  0.4500599999999999  1.0000
  O   O15       1.0  0.51449  0.34953  0.09948999999999997  1.0000
  O   O16       1.0  0.68432  0.47519  0.13604  1.0000
