data_image0
_chemical_formula_structural       Na2Cu2H16C32O16
_chemical_formula_sum              "Na2 Cu2 H16 C32 O16"
_cell_length_a       10.57542
_cell_length_b       10.57323
_cell_length_c       11.40211
_cell_angle_alpha    73.50239
_cell_angle_beta     73.52201
_cell_angle_gamma    66.94606

_symmetry_space_group_name_H-M    'P 1'
_symmetry_Int_Tables_number       1

loop_
  _symmetry_equiv_pos_as_xyz
  'x,y,z'

loop_
  _atom_site_type_symbol
  _atom_site_label
  _atom_site_symmetry_multiplicity
  _atom_site_fract_x
  _atom_site_fract_y
  _atom_site_fract_z
  _atom_site_occupancy
  Na  Na1       1.0  0.99996  0.99385  0.50273  1.0000
  Na  Na2       1.0  0.006130000000000038  0.99981  0.00019000000000000006  1.0000
  Cu  Cu1       1.0  0.8700000000000001  0.13036000000000003  0.74989  1.0000
  Cu  Cu2       1.0  0.13743999999999998  0.86201  0.25117  1.0000
  H   H1        1.0  0.23560999999999993  0.12530999999999995  0.8515300000000001  1.0000
  H   H2        1.0  0.4683300000000003  0.14516  0.82863  1.0000
  H   H3        1.0  0.54256  0.17564999999999997  0.43256000000000006  1.0000
  H   H4        1.0  0.30701  0.15890999999999997  0.4535000000000001  1.0000
  H   H5        1.0  0.8747499999999998  0.76478  0.6492900000000001  1.0000
  H   H6        1.0  0.8548099999999997  0.53225  0.67187  1.0000
  H   H7        1.0  0.8243  0.45694  0.06782  1.0000
  H   H8        1.0  0.84117  0.69223  0.04757  1.0000
  H   H9        1.0  0.7702800000000001  0.87691  0.14711  1.0000
  H   H10       1.0  0.5388400000000001  0.85878  0.1622  1.0000
  H   H11       1.0  0.4522399999999998  0.824  0.5598  1.0000
  H   H12       1.0  0.68605  0.8413700000000001  0.54568  1.0000
  H   H13       1.0  0.12314999999999995  0.22903000000000007  0.35396  1.0000
  H   H14       1.0  0.14111000000000007  0.46052  0.33921  1.0000
  H   H15       1.0  0.17592999999999992  0.5476400000000001  0.9414  1.0000
  H   H16       1.0  0.15881999999999996  0.3138799999999999  0.9553300000000002  1.0000
  C   C1        1.0  0.25688  0.14066  0.65396  1.0000
  C   C2        1.0  0.30201999999999996  0.13757999999999995  0.7598400000000001  1.0000
  C   C3        1.0  0.4320600000000001  0.14836  0.74734  1.0000
  C   C4        1.0  0.5189900000000001  0.16113999999999998  0.62912  1.0000
  C   C5        1.0  0.47307000000000005  0.16682999999999995  0.5230900000000002  1.0000
  C   C6        1.0  0.3419200000000003  0.15733  0.53507  1.0000
  C   C7        1.0  0.11784999999999997  0.12766999999999995  0.6741400000000001  1.0000
  C   C8        1.0  0.66461  0.15818000000000002  0.61916  1.0000
  C   C9        1.0  0.8594299999999999  0.7432  0.84694  1.0000
  C   C10       1.0  0.86246  0.6983  0.7409600000000001  1.0000
  C   C11       1.0  0.8516799999999999  0.56832  0.7532200000000001  1.0000
  C   C12       1.0  0.8389200000000001  0.48101  0.87118  1.0000
  C   C13       1.0  0.8332599999999999  0.52662  0.97739  1.0000
  C   C14       1.0  0.8427300000000002  0.6577899999999998  0.9657400000000003  1.0000
  C   C15       1.0  0.8724  0.88243  0.82631  1.0000
  C   C16       1.0  0.8420500000000001  0.3355799999999999  0.8800400000000002  1.0000
  C   C17       1.0  0.7435599999999999  0.8582700000000001  0.34613  1.0000
  C   C18       1.0  0.70186  0.8639400000000002  0.23765  1.0000
  C   C19       1.0  0.5719000000000002  0.85451  0.24561000000000002  1.0000
  C   C20       1.0  0.48167000000000004  0.8408999999999999  0.36204  1.0000
  C   C21       1.0  0.52374  0.83374  0.47056000000000003  1.0000
  C   C22       1.0  0.65381  0.84325  0.4625600000000001  1.0000
  C   C23       1.0  0.8831500000000001  0.8649199999999999  0.34090000000000004  1.0000
  C   C24       1.0  0.33621999999999996  0.8429700000000001  0.37191  1.0000
  C   C25       1.0  0.14204000000000003  0.25604  0.155  1.0000
  C   C26       1.0  0.1361400000000001  0.29767999999999994  0.26354000000000005  1.0000
  C   C27       1.0  0.14535999999999996  0.4277  0.2557  1.0000
  C   C28       1.0  0.15889  0.51807  0.13932000000000003  1.0000
  C   C29       1.0  0.16616999999999998  0.47613  0.03069  1.0000
  C   C30       1.0  0.15687000000000004  0.34595  0.03858000000000001  1.0000
  C   C31       1.0  0.13553999999999997  0.11635  0.16033  1.0000
  C   C32       1.0  0.15686  0.66336  0.12988000000000002  1.0000
  O   O1        1.0  0.06435999999999999  0.07543000000000002  0.78502  1.0000
  O   O2        1.0  0.04444000000000001  0.17038  0.58967  1.0000
  O   O3        1.0  0.7571199999999998  0.13183  0.5243000000000001  1.0000
  O   O4        1.0  0.68299  0.18077999999999997  0.71868  1.0000
  O   O5        1.0  0.9243200000000003  0.93584  0.71526  1.0000
  O   O6        1.0  0.82972  0.9564499999999999  0.9102200000000001  1.0000
  O   O7        1.0  0.86839  0.24224999999999997  0.9744600000000002  1.0000
  O   O8        1.0  0.81946  0.31776  0.7803  1.0000
  O   O9        1.0  0.9508499999999998  0.9059400000000001  0.22883000000000006  1.0000
  O   O10       1.0  0.93546  0.8320699999999999  0.43527  1.0000
  O   O11       1.0  0.24380000000000004  0.8675999999999999  0.46622  1.0000
  O   O12       1.0  0.32125000000000004  0.81829  0.27048  1.0000
  O   O13       1.0  0.09431  0.04889000000000001  0.27251  1.0000
  O   O14       1.0  0.16869000000000003  0.06397  0.06602000000000001  1.0000
  O   O15       1.0  0.13265  0.75603  0.03558  1.0000
  O   O16       1.0  0.18105000000000002  0.6780899999999999  0.23160000000000006  1.0000
