data_image0
_chemical_formula_structural       Cd4H16C24S2N4O16
_chemical_formula_sum              "Cd4 H16 C24 S2 N4 O16"
_cell_length_a       10.16584
_cell_length_b       12.70364
_cell_length_c       12.71343
_cell_angle_alpha    80.88723
_cell_angle_beta     66.56946
_cell_angle_gamma    66.82095

_symmetry_space_group_name_H-M    'P 1'
_symmetry_Int_Tables_number       1

loop_
  _symmetry_equiv_pos_as_xyz
  'x,y,z'

loop_
  _atom_site_type_symbol
  _atom_site_label
  _atom_site_symmetry_multiplicity
  _atom_site_fract_x
  _atom_site_fract_y
  _atom_site_fract_z
  _atom_site_occupancy
  Cd  Cd1       1.0  0.4310299999999999  0.6785600000000002  0.45787000000000005  1.0000
  Cd  Cd2       1.0  0.5689699999999999  0.32144000000000006  0.54213  1.0000
  Cd  Cd3       1.0  0.11363000000000006  0.45751  0.32146  1.0000
  Cd  Cd4       1.0  0.8863700000000007  0.5424900000000001  0.67854  1.0000
  H   H1        1.0  0.35190999999999995  0.6228600000000001  0.26289  1.0000
  H   H2        1.0  0.46720000000000006  0.58193  0.05362  1.0000
  H   H3        1.0  0.23799  0.37885  0.73774  1.0000
  H   H4        1.0  0.10629999999999999  0.42084000000000005  0.9469900000000002  1.0000
  H   H5        1.0  0.97696  0.26281  0.37743000000000004  1.0000
  H   H6        1.0  0.050909999999999976  0.05323  0.4181600000000001  1.0000
  H   H7        1.0  0.6147499999999999  0.7381400000000002  0.62038  1.0000
  H   H8        1.0  0.52539  0.94764  0.5789300000000001  1.0000
  H   H9        1.0  0.6480900000000003  0.37714000000000003  0.73711  1.0000
  H   H10       1.0  0.5328  0.41807  0.9463800000000001  1.0000
  H   H11       1.0  0.7620100000000001  0.6211500000000001  0.26225000000000004  1.0000
  H   H12       1.0  0.89369  0.57916  0.05301  1.0000
  H   H13       1.0  0.023039999999999825  0.7371900000000002  0.6225700000000001  1.0000
  H   H14       1.0  0.9490799999999995  0.9467700000000001  0.58184  1.0000
  H   H15       1.0  0.38524  0.26186  0.37962  1.0000
  H   H16       1.0  0.47460000000000013  0.05236000000000001  0.42107000000000006  1.0000
  C   C1        1.0  0.4705400000000003  0.6146300000000001  0.21274  1.0000
  C   C2        1.0  0.5358900000000001  0.59153  0.09593  1.0000
  C   C3        1.0  0.29973999999999995  0.38646  0.78739  1.0000
  C   C4        1.0  0.22687999999999994  0.4100000000000001  0.9041400000000003  1.0000
  C   C5        1.0  0.08715000000000002  0.21267000000000003  0.38572  1.0000
  C   C6        1.0  0.12884000000000004  0.09589000000000003  0.40886  1.0000
  C   C7        1.0  0.6840700000000001  0.78787  0.61295  1.0000
  C   C8        1.0  0.63519  0.9046500000000001  0.5894900000000001  1.0000
  C   C9        1.0  0.52946  0.38537  0.78726  1.0000
  C   C10       1.0  0.46410999999999997  0.40847000000000006  0.90407  1.0000
  C   C11       1.0  0.7002599999999999  0.6135400000000001  0.21261000000000005  1.0000
  C   C12       1.0  0.77311  0.59  0.09585  1.0000
  C   C13       1.0  0.9128499999999998  0.7873300000000001  0.61428  1.0000
  C   C14       1.0  0.8711599999999998  0.9041100000000002  0.5911400000000001  1.0000
  C   C15       1.0  0.3159199999999999  0.21213  0.3870500000000001  1.0000
  C   C16       1.0  0.36480000000000007  0.09535000000000002  0.41051  1.0000
  C   C17       1.0  0.69003  0.57916  0.03566  1.0000
  C   C18       1.0  0.7645699999999997  0.5561100000000001  0.90881  1.0000
  C   C19       1.0  0.3099700000000003  0.42084000000000005  0.96434  1.0000
  C   C20       1.0  0.23543000000000003  0.44389  0.09118  1.0000
  C   C21       1.0  0.2703  0.03544  0.4213200000000001  1.0000
  C   C22       1.0  0.32033000000000006  0.9086500000000001  0.4445  1.0000
  C   C23       1.0  0.72969  0.96456  0.57868  1.0000
  C   C24       1.0  0.67967  0.09135  0.5555000000000001  1.0000
  S   S1        1.0  0.75229  0.4986600000000001  0.49663000000000007  1.0000
  S   S2        1.0  0.24770000000000006  0.50134  0.50337  1.0000
  N   N1        1.0  0.55088  0.6262800000000001  0.27028  1.0000
  N   N2        1.0  0.44911999999999974  0.37372000000000005  0.7297100000000002  1.0000
  N   N3        1.0  0.1793799999999999  0.27004  0.3745100000000001  1.0000
  N   N4        1.0  0.82062  0.7299600000000003  0.62549  1.0000
  O   O1        1.0  0.68268  0.5507  0.85684  1.0000
  O   O2        1.0  0.5949100000000003  0.5876300000000001  0.5529300000000001  1.0000
  O   O3        1.0  0.09422999999999995  0.45492  0.14251000000000003  1.0000
  O   O4        1.0  0.7398399999999998  0.40914000000000006  0.43991000000000013  1.0000
  O   O5        1.0  0.2328899999999999  0.8568600000000002  0.44988  1.0000
  O   O6        1.0  0.18016999999999994  0.5579300000000001  0.4133  1.0000
  O   O7        1.0  0.54941  0.14287  0.54465  1.0000
  O   O8        1.0  0.14573000000000005  0.44462  0.59229  1.0000
  O   O9        1.0  0.31732000000000005  0.4493  0.14316  1.0000
  O   O10       1.0  0.4050799999999999  0.41237  0.44707000000000013  1.0000
  O   O11       1.0  0.9057599999999999  0.5450800000000001  0.85749  1.0000
  O   O12       1.0  0.26015999999999995  0.59086  0.56009  1.0000
  O   O13       1.0  0.7671000000000001  0.14314  0.5501200000000002  1.0000
  O   O14       1.0  0.8198299999999998  0.44207000000000013  0.5867000000000001  1.0000
  O   O15       1.0  0.45058000000000004  0.85713  0.45535  1.0000
  O   O16       1.0  0.8542699999999998  0.5553800000000001  0.40771000000000013  1.0000
