data_image0
_chemical_formula_structural       Cd6H16C8N40Cl4
_chemical_formula_sum              "Cd6 H16 C8 N40 Cl4"
_cell_length_a       9.34684
_cell_length_b       9.55767
_cell_length_c       13.54514
_cell_angle_alpha    89.99394
_cell_angle_beta     89.97760999999998
_cell_angle_gamma    90.52168

_space_group_name_H-M_alt    "P 1"
_space_group_IT_number       1

loop_
  _space_group_symop_operation_xyz
  'x, y, z'

loop_
  _atom_site_type_symbol
  _atom_site_label
  _atom_site_symmetry_multiplicity
  _atom_site_fract_x
  _atom_site_fract_y
  _atom_site_fract_z
  _atom_site_occupancy
  Cd  Cd1       1.0  0.7483000000000001  0.9909999999999999  0.28238  1.0000
  Cd  Cd2       1.0  0.75164  0.50896  0.78242  1.0000
  Cd  Cd3       1.0  0.2517  0.009  0.71762  1.0000
  Cd  Cd4       1.0  0.24835  0.49104  0.21758  1.0000
  Cd  Cd5       1.0  0.5  0.0  0.5  1.0000
  Cd  Cd6       1.0  0.0  0.5  0.0  1.0000
  H   H1        1.0  0.33143  0.28427  0.86918  1.0000
  H   H2        1.0  0.48217000000000004  0.38587  0.89107  1.0000
  H   H3        1.0  0.34571  0.7484099999999999  0.88954  1.0000
  H   H4        1.0  0.50563  0.66526  0.9136900000000002  1.0000
  H   H5        1.0  0.16873  0.21573  0.36935000000000007  1.0000
  H   H6        1.0  0.01835000000000001  0.11359  0.39099  1.0000
  H   H7        1.0  0.15405  0.75169  0.38949  1.0000
  H   H8        1.0  0.9940900000000001  0.8347399999999999  0.4137300000000001  1.0000
  H   H9        1.0  0.66857  0.71573  0.13082  1.0000
  H   H10       1.0  0.51782  0.61413  0.10893  1.0000
  H   H11       1.0  0.6542800000000001  0.25159  0.11047000000000003  1.0000
  H   H12       1.0  0.49437  0.33474  0.08631  1.0000
  H   H13       1.0  0.83127  0.78427  0.6306500000000002  1.0000
  H   H14       1.0  0.98165  0.88641  0.60901  1.0000
  H   H15       1.0  0.8459500000000001  0.24831  0.61051  1.0000
  H   H16       1.0  0.00591  0.16526  0.58628  1.0000
  C   C1        1.0  0.48976  0.27339  0.7637200000000001  1.0000
  C   C2        1.0  0.49498000000000003  0.75581  0.7786300000000002  1.0000
  C   C3        1.0  0.010670000000000002  0.2262  0.26371  1.0000
  C   C4        1.0  0.0048000000000000004  0.74409  0.27869  1.0000
  C   C5        1.0  0.51024  0.72661  0.23629  1.0000
  C   C6        1.0  0.50502  0.24419  0.22137  1.0000
  C   C7        1.0  0.98933  0.7738  0.73629  1.0000
  C   C8        1.0  0.9952000000000001  0.25591  0.72131  1.0000
  N   N1        1.0  0.60701  0.33299  0.72146  1.0000
  N   N2        1.0  0.6288100000000001  0.26548  0.6348  1.0000
  N   N3        1.0  0.5276200000000001  0.17126  0.62454  1.0000
  N   N4        1.0  0.4381900000000001  0.17249999999999996  0.7034900000000002  1.0000
  N   N5        1.0  0.43726  0.30408  0.85414  1.0000
  N   N6        1.0  0.60808  0.69237  0.73528  1.0000
  N   N7        1.0  0.62089  0.74739  0.6434800000000002  1.0000
  N   N8        1.0  0.51836  0.83781  0.63117  1.0000
  N   N9        1.0  0.43692  0.84649  0.71384  1.0000
  N   N10       1.0  0.4524000000000001  0.73811  0.87351  1.0000
  N   N11       1.0  0.89351  0.16649  0.22149  1.0000
  N   N12       1.0  0.8719400000000002  0.23375000000000004  0.1347  1.0000
  N   N13       1.0  0.9731600000000001  0.32796  0.12437000000000002  1.0000
  N   N14       1.0  0.062380000000000005  0.32693  0.20341000000000006  1.0000
  N   N15       1.0  0.06292  0.1957  0.35428  1.0000
  N   N16       1.0  0.89171  0.80743  0.23532000000000006  1.0000
  N   N17       1.0  0.87909  0.75242  0.14351  1.0000
  N   N18       1.0  0.98171  0.6620999999999999  0.13122  1.0000
  N   N19       1.0  0.06303  0.65345  0.21392  1.0000
  N   N20       1.0  0.04733  0.76184  0.37356  1.0000
  N   N21       1.0  0.39298  0.6670099999999999  0.27854  1.0000
  N   N22       1.0  0.37119  0.73452  0.3652  1.0000
  N   N23       1.0  0.47238  0.82874  0.37546  1.0000
  N   N24       1.0  0.56181  0.8275  0.29651000000000005  1.0000
  N   N25       1.0  0.56273  0.69592  0.14586  1.0000
  N   N26       1.0  0.39192  0.30764  0.26472  1.0000
  N   N27       1.0  0.37911  0.25261  0.35652000000000006  1.0000
  N   N28       1.0  0.48164  0.16219  0.36884  1.0000
  N   N29       1.0  0.5630800000000001  0.15351  0.28617  1.0000
  N   N30       1.0  0.5476  0.26189  0.12649000000000002  1.0000
  N   N31       1.0  0.10649  0.83351  0.77851  1.0000
  N   N32       1.0  0.12806  0.76625  0.8653100000000001  1.0000
  N   N33       1.0  0.02684  0.67204  0.8756300000000001  1.0000
  N   N34       1.0  0.9376200000000002  0.67307  0.7966  1.0000
  N   N35       1.0  0.93708  0.8043  0.64572  1.0000
  N   N36       1.0  0.10829  0.19257  0.7646800000000002  1.0000
  N   N37       1.0  0.12091  0.24758  0.8564900000000002  1.0000
  N   N38       1.0  0.01829  0.3379  0.8687800000000002  1.0000
  N   N39       1.0  0.93697  0.34655  0.78608  1.0000
  N   N40       1.0  0.9526700000000001  0.23815999999999998  0.62644  1.0000
  Cl  Cl1       1.0  0.7937800000000003  0.99835  0.46986000000000006  1.0000
  Cl  Cl2       1.0  0.70611  0.5014499999999998  0.96994  1.0000
  Cl  Cl3       1.0  0.20622  0.00165  0.53014  1.0000
  Cl  Cl4       1.0  0.29389  0.49856  0.030060000000000007  1.0000
