data_image0
_chemical_formula_structural       CdNiH16C10N6
_chemical_formula_sum              "Cd1 Ni1 H16 C10 N6"
_cell_length_a       6.88334
_cell_length_b       7.72985
_cell_length_c       9.6689
_cell_angle_alpha    90.33352000000001
_cell_angle_beta     103.96952999999999
_cell_angle_gamma    89.02798

_space_group_name_H-M_alt    "P 1"
_space_group_IT_number       1

loop_
  _space_group_symop_operation_xyz
  'x, y, z'

loop_
  _atom_site_type_symbol
  _atom_site_label
  _atom_site_symmetry_multiplicity
  _atom_site_fract_x
  _atom_site_fract_y
  _atom_site_fract_z
  _atom_site_occupancy
  Cd  Cd1       1.0  0.0021800000000000014  0.98349  0.0018999999999999998  1.0000
  Ni  Ni1       1.0  0.46766  0.50446  0.96756  1.0000
  H   H1        1.0  0.97928  0.89262  0.717  1.0000
  H   H2        1.0  0.3421299999999999  0.87785  0.80342  1.0000
  H   H3        1.0  0.20016999999999993  0.88833  0.53855  1.0000
  H   H4        1.0  0.5756199999999999  0.89188  0.63329  1.0000
  H   H5        1.0  0.01910999999999999  0.89096  0.28266  1.0000
  H   H6        1.0  0.65664  0.87894  0.19462  1.0000
  H   H7        1.0  0.7998499999999997  0.88727  0.45976000000000006  1.0000
  H   H8        1.0  0.42406  0.89296  0.36614  1.0000
  H   H9        1.0  0.010560000000000005  0.10239  0.27272  1.0000
  H   H10       1.0  0.65123  0.10546  0.18852  1.0000
  H   H11       1.0  0.7997999999999997  0.11514  0.45516000000000006  1.0000
  H   H12       1.0  0.4247299999999999  0.11923  0.36647  1.0000
  H   H13       1.0  0.9818599999999998  0.10380999999999997  0.72768  1.0000
  H   H14       1.0  0.34164  0.1041  0.81151  1.0000
  H   H15       1.0  0.19350999999999993  0.11609  0.54434  1.0000
  H   H16       1.0  0.56854  0.11831  0.63414  1.0000
  C   C1        1.0  0.6277899999999996  0.67435  0.9046299999999999  1.0000
  C   C2        1.0  0.36918999999999996  0.6650299999999998  0.08688  1.0000
  C   C3        1.0  0.29621  0.3268699999999999  0.00147  1.0000
  C   C4        1.0  0.6824399999999999  0.33828  0.9965299999999999  1.0000
  C   C5        1.0  0.26476  0.99401  0.75145  1.0000
  C   C6        1.0  0.27679999999999993  0.0011999999999999995  0.59572  1.0000
  C   C7        1.0  0.4927799999999999  0.00454  0.57823  1.0000
  C   C8        1.0  0.7307699999999998  0.9943  0.24756  1.0000
  C   C9        1.0  0.7194  0.00076  0.40358  1.0000
  C   C10       1.0  0.5037899999999998  0.00498  0.42178  1.0000
  N   N1        1.0  0.7538899999999997  0.77467  0.90235  1.0000
  N   N2        1.0  0.25747  0.77256  0.11004  1.0000
  N   N3        1.0  0.23104999999999995  0.21246  0.05528  1.0000
  N   N4        1.0  0.77096  0.22319  0.9582600000000001  1.0000
  N   N5        1.0  0.057509999999999985  0.99401  0.77056  1.0000
  N   N6        1.0  0.9383599999999996  0.9929399999999998  0.22941  1.0000
