data_image0
_chemical_formula_structural       Li4H32C28N4O8
_chemical_formula_sum              "Li4 H32 C28 N4 O8"
_cell_length_a       7.22499
_cell_length_b       11.843489999999997
_cell_length_c       12.51342
_cell_angle_alpha    90.04383
_cell_angle_beta     90.01603000000001
_cell_angle_gamma    92.01554000000002

_symmetry_space_group_name_H-M    'P 1'
_symmetry_Int_Tables_number       1

loop_
  _symmetry_equiv_pos_as_xyz
  'x,y,z'

loop_
  _atom_site_type_symbol
  _atom_site_label
  _atom_site_symmetry_multiplicity
  _atom_site_fract_x
  _atom_site_fract_y
  _atom_site_fract_z
  _atom_site_occupancy
  Li  Li1       1.0  0.3957499999999999  0.57293  0.94666  1.0000
  Li  Li2       1.0  0.60369  0.9271699999999999  0.44649  1.0000
  Li  Li3       1.0  0.60426  0.42707  0.05334  1.0000
  Li  Li4       1.0  0.39632  0.07282  0.55351  1.0000
  H   H1        1.0  0.63318  0.22407999999999997  0.9160000000000001  1.0000
  H   H2        1.0  0.2839599999999999  0.44719  0.73961  1.0000
  H   H3        1.0  0.25852  0.29975  0.59847  1.0000
  H   H4        1.0  0.59676  0.08709  0.76609  1.0000
  H   H5        1.0  0.04249000000000001  0.60019  0.83381  1.0000
  H   H6        1.0  0.86297  0.62046  0.93094  1.0000
  H   H7        1.0  0.94838  0.60347  0.11826  1.0000
  H   H8        1.0  0.18390999999999996  0.57027  0.14757  1.0000
  H   H9        1.0  0.36667  0.27574  0.41561999999999993  1.0000
  H   H10       1.0  0.71603  0.052809999999999996  0.23901999999999998  1.0000
  H   H11       1.0  0.7420299999999997  0.20052  0.09830999999999998  1.0000
  H   H12       1.0  0.40361999999999987  0.41316  0.26612  1.0000
  H   H13       1.0  0.9584899999999997  0.90057  0.33277  1.0000
  H   H14       1.0  0.13675  0.87992  0.4307  1.0000
  H   H15       1.0  0.05017  0.8958599999999999  0.6173  1.0000
  H   H16       1.0  0.8143799999999998  0.9285600000000002  0.64659  1.0000
  H   H17       1.0  0.36683  0.77591  0.084  1.0000
  H   H18       1.0  0.71605  0.55281  0.26039  1.0000
  H   H19       1.0  0.7414899999999999  0.7002400000000001  0.40153  1.0000
  H   H20       1.0  0.40325  0.9129099999999999  0.23391  1.0000
  H   H21       1.0  0.9575199999999998  0.39979999999999993  0.16619  1.0000
  H   H22       1.0  0.13703  0.37953999999999993  0.06906  1.0000
  H   H23       1.0  0.05163  0.39652  0.88174  1.0000
  H   H24       1.0  0.81609  0.42972  0.85244  1.0000
  H   H25       1.0  0.63334  0.72425  0.58439  1.0000
  H   H26       1.0  0.28397  0.9471899999999999  0.76099  1.0000
  H   H27       1.0  0.25798  0.79948  0.90169  1.0000
  H   H28       1.0  0.5963899999999999  0.58683  0.73389  1.0000
  H   H29       1.0  0.04152  0.09943  0.66723  1.0000
  H   H30       1.0  0.8632499999999999  0.12007000000000001  0.5693  1.0000
  H   H31       1.0  0.9498399999999999  0.10414  0.38270000000000004  1.0000
  H   H32       1.0  0.18562999999999993  0.07144  0.35341  1.0000
  C   C1        1.0  0.45856999999999987  0.34888  0.8434  1.0000
  C   C2        1.0  0.54911  0.24386999999999998  0.84669  1.0000
  C   C3        1.0  0.35335  0.36767  0.7490800000000001  1.0000
  C   C4        1.0  0.34096  0.28587  0.6700300000000001  1.0000
  C   C5        1.0  0.52884  0.16785  0.76298  1.0000
  C   C6        1.0  0.98489  0.57125  0.91068  1.0000
  C   C7        1.0  0.06717999999999998  0.55417  0.09313999999999999  1.0000
  C   C8        1.0  0.54158  0.15135  0.34296  1.0000
  C   C9        1.0  0.4509499999999999  0.25628  0.3463  1.0000
  C   C10       1.0  0.6468699999999997  0.1324  0.24869  1.0000
  C   C11       1.0  0.65946  0.2143  0.16983999999999996  1.0000
  C   C12       1.0  0.47146  0.33238  0.26285  1.0000
  C   C13       1.0  0.015499999999999986  0.9294799999999999  0.40985  1.0000
  C   C14       1.0  0.9314599999999997  0.9455  0.59268  1.0000
  C   C15       1.0  0.54143  0.65111  0.1566  1.0000
  C   C16       1.0  0.4508999999999999  0.75612  0.15331  1.0000
  C   C17       1.0  0.64666  0.63232  0.25092  1.0000
  C   C18       1.0  0.65905  0.7141199999999999  0.32997  1.0000
  C   C19       1.0  0.47116999999999987  0.83215  0.23702  1.0000
  C   C20       1.0  0.015109999999999993  0.42875  0.08932  1.0000
  C   C21       1.0  0.9328299999999998  0.44582  0.90686  1.0000
  C   C22       1.0  0.45843  0.84864  0.65704  1.0000
  C   C23       1.0  0.54906  0.74372  0.6537  1.0000
  C   C24       1.0  0.3531399999999999  0.86759  0.75131  1.0000
  C   C25       1.0  0.3405499999999999  0.7857  0.83016  1.0000
  C   C26       1.0  0.52855  0.66761  0.73715  1.0000
  C   C27       1.0  0.98451  0.07051  0.59015  1.0000
  C   C28       1.0  0.06855  0.05449  0.40731999999999996  1.0000
  N   N1        1.0  0.42564  0.18555  0.67431  1.0000
  N   N2        1.0  0.5749599999999999  0.31469  0.1743  1.0000
  N   N3        1.0  0.57437  0.81445  0.32569000000000004  1.0000
  N   N4        1.0  0.42505  0.68531  0.82571  1.0000
  O   O1        1.0  0.47216  0.42259  0.92055  1.0000
  O   O2        1.0  0.12883  0.59395  0.98921  1.0000
  O   O3        1.0  0.52781  0.07804  0.42027  1.0000
  O   O4        1.0  0.8703899999999999  0.9081899999999999  0.48774  1.0000
  O   O5        1.0  0.52785  0.5774  0.07945  1.0000
  O   O6        1.0  0.87118  0.40603999999999996  0.01079  1.0000
  O   O7        1.0  0.4722  0.92196  0.57973  1.0000
  O   O8        1.0  0.12962  0.09181  0.51226  1.0000
