data_image0
_chemical_formula_structural       Dy2H8C8O16
_chemical_formula_sum              "Dy2 H8 C8 O16"
_cell_length_a       6.64303
_cell_length_b       8.31258
_cell_length_c       10.01277
_cell_angle_alpha    90.00178999999999
_cell_angle_beta     109.89646
_cell_angle_gamma    90.00273999999999

_symmetry_space_group_name_H-M    'P 1'
_symmetry_Int_Tables_number       1

loop_
  _symmetry_equiv_pos_as_xyz
  'x,y,z'

loop_
  _atom_site_type_symbol
  _atom_site_label
  _atom_site_symmetry_multiplicity
  _atom_site_fract_x
  _atom_site_fract_y
  _atom_site_fract_z
  _atom_site_occupancy
  Dy  Dy1       1.0  0.6513900000000001  0.74517  0.29196  1.0000
  Dy  Dy2       1.0  0.3537900000000001  0.25497  0.70817  1.0000
  H   H1        1.0  0.57668  0.93258  0.57808  1.0000
  H   H2        1.0  0.42480000000000007  0.4342000000000001  0.42209  1.0000
  H   H3        1.0  0.004890000000000005  0.5657  0.58014  1.0000
  H   H4        1.0  0.9947000000000001  0.06636  0.4211  1.0000
  H   H5        1.0  0.7380100000000002  0.9972400000000001  0.0025  1.0000
  H   H6        1.0  0.26105  0.49901  0.99976  1.0000
  H   H7        1.0  0.18449  0.74913  0.36799  1.0000
  H   H8        1.0  0.8127  0.25024  0.6323399999999999  1.0000
  C   C1        1.0  0.51233  0.02131  0.49084999999999995  1.0000
  C   C2        1.0  0.4869500000000001  0.5218300000000002  0.51025  1.0000
  C   C3        1.0  0.97531  0.4790100000000001  0.49112999999999996  1.0000
  C   C4        1.0  0.023509999999999948  0.9786900000000001  0.5093799999999999  1.0000
  C   C5        1.0  0.5680200000000001  0.9988300000000001  0.00229  1.0000
  C   C6        1.0  0.42946999999999996  0.50128  0.9989699999999999  1.0000
  C   C7        1.0  0.12577999999999998  0.75024  0.24974999999999997  1.0000
  C   C8        1.0  0.87491  0.24812  0.75054  1.0000
  O   O1        1.0  0.53653  0.92842  0.10505  1.0000
  O   O2        1.0  0.26298  0.72222  0.19071  1.0000
  O   O3        1.0  0.44435  0.15525  0.52272  1.0000
  O   O4        1.0  0.5121300000000002  0.9847999999999999  0.36879  1.0000
  O   O5        1.0  0.46482  0.4320400000000001  0.89659  1.0000
  O   O6        1.0  0.7395  0.22069  0.81168  1.0000
  O   O7        1.0  0.55524  0.65661  0.48339  1.0000
  O   O8        1.0  0.48434000000000005  0.4806200000000001  0.63174  1.0000
  O   O9        1.0  0.56932  0.57289  0.09974  1.0000
  O   O10       1.0  0.9275700000000002  0.77952  0.18928  1.0000
  O   O11       1.0  0.06909000000000005  0.34303  0.51602  1.0000
  O   O12       1.0  0.8501  0.51909  0.36914  1.0000
  O   O13       1.0  0.4323400000000001  0.07137000000000003  0.90072  1.0000
  O   O14       1.0  0.07383000000000002  0.27463  0.809  1.0000
  O   O15       1.0  0.92456  0.84414  0.47897999999999996  1.0000
  O   O16       1.0  0.14835999999999988  0.01668  0.6311599999999999  1.0000
