data_image0
_chemical_formula_structural       Cu4H8C12O16
_chemical_formula_sum              "Cu4 H8 C12 O16"
_cell_length_a       8.42655
_cell_length_b       8.42635
_cell_length_c       12.13586
_cell_angle_alpha    90.00045
_cell_angle_beta     89.99955
_cell_angle_gamma    90.0

_space_group_name_H-M_alt    "P 1"
_space_group_IT_number       1

loop_
  _space_group_symop_operation_xyz
  'x, y, z'

loop_
  _atom_site_type_symbol
  _atom_site_label
  _atom_site_symmetry_multiplicity
  _atom_site_fract_x
  _atom_site_fract_y
  _atom_site_fract_z
  _atom_site_occupancy
  Cu  Cu1       1.0  0.1158  0.68837  0.8859100000000001  1.0000
  Cu  Cu2       1.0  0.8842  0.31161  0.38589  1.0000
  Cu  Cu3       1.0  0.31163  0.1158  0.13591  1.0000
  Cu  Cu4       1.0  0.68836  0.88418  0.63591  1.0000
  H   H1        1.0  0.57717  0.83822  0.8934300000000001  1.0000
  H   H2        1.0  0.46491  0.66135  0.913  1.0000
  H   H3        1.0  0.42282  0.16177  0.39344  1.0000
  H   H4        1.0  0.53509  0.33865  0.41299  1.0000
  H   H5        1.0  0.16178  0.57717  0.14344  1.0000
  H   H6        1.0  0.33866  0.46492  0.16299  1.0000
  H   H7        1.0  0.83823  0.42281000000000013  0.64344  1.0000
  H   H8        1.0  0.66135  0.53508  0.66299  1.0000
  C   C1        1.0  0.38675  0.7973  0.77621  1.0000
  C   C2        1.0  0.45705  0.78887  0.89265  1.0000
  C   C3        1.0  0.35626  0.86711  0.9808700000000001  1.0000
  C   C4        1.0  0.61322  0.20271  0.27621  1.0000
  C   C5        1.0  0.54295  0.21113  0.39265  1.0000
  C   C6        1.0  0.64375  0.13288  0.48085  1.0000
  C   C7        1.0  0.2027  0.38674000000000003  0.02621  1.0000
  C   C8        1.0  0.21114  0.45705  0.14265  1.0000
  C   C9        1.0  0.13291  0.35625  0.23086  1.0000
  C   C10       1.0  0.79729  0.61322  0.52621  1.0000
  C   C11       1.0  0.78887  0.54294  0.64265  1.0000
  C   C12       1.0  0.86709  0.64374  0.73088  1.0000
  O   O1        1.0  0.23832  0.7764300000000002  0.76148  1.0000
  O   O2        1.0  0.20946  0.82995  0.99271  1.0000
  O   O3        1.0  0.4782799999999999  0.81753  0.6948300000000001  1.0000
  O   O4        1.0  0.42545  0.96725  0.04247  1.0000
  O   O5        1.0  0.7616600000000001  0.22356  0.26148  1.0000
  O   O6        1.0  0.79054  0.17002  0.49268  1.0000
  O   O7        1.0  0.52169  0.18249  0.19483000000000003  1.0000
  O   O8        1.0  0.57455  0.03274  0.54247  1.0000
  O   O9        1.0  0.22356  0.23831  0.01148  1.0000
  O   O10       1.0  0.17007  0.20947  0.24273000000000003  1.0000
  O   O11       1.0  0.18246  0.47828000000000004  0.94483  1.0000
  O   O12       1.0  0.03272  0.42545  0.29246  1.0000
  O   O13       1.0  0.77645  0.76167  0.51149  1.0000
  O   O14       1.0  0.8299  0.79052  0.74275  1.0000
  O   O15       1.0  0.81752  0.52169  0.44484  1.0000
  O   O16       1.0  0.9672700000000001  0.57455  0.79246  1.0000
