data_image0
_chemical_formula_structural       Co4H12C36O24
_chemical_formula_sum              "Co4 H12 C36 O24"
_cell_length_a       9.08703
_cell_length_b       11.89389
_cell_length_c       16.07184
_cell_angle_alpha    90.28601
_cell_angle_beta     89.04960999999999
_cell_angle_gamma    108.52157000000001

_symmetry_space_group_name_H-M    'P 1'
_symmetry_Int_Tables_number       1

loop_
  _symmetry_equiv_pos_as_xyz
  'x,y,z'

loop_
  _atom_site_type_symbol
  _atom_site_label
  _atom_site_symmetry_multiplicity
  _atom_site_fract_x
  _atom_site_fract_y
  _atom_site_fract_z
  _atom_site_occupancy
  Co  Co1       1.0  0.87598  0.51747  0.40379  1.0000
  Co  Co2       1.0  0.62648  0.9816699999999999  0.91117  1.0000
  Co  Co3       1.0  0.38221  0.01566  0.09663  1.0000
  Co  Co4       1.0  0.11885000000000004  0.4769100000000001  0.58963  1.0000
  H   H1        1.0  0.70812  0.27362  0.19561  1.0000
  H   H2        1.0  0.20757000000000003  0.7717200000000001  0.30297  1.0000
  H   H3        1.0  0.008269999999999991  0.89046  0.9461  1.0000
  H   H4        1.0  0.67742  0.80648  0.221  1.0000
  H   H5        1.0  0.17075  0.30659  0.28011  1.0000
  H   H6        1.0  0.51069  0.39439  0.5614  1.0000
  H   H7        1.0  0.79988  0.22944  0.69151  1.0000
  H   H8        1.0  0.4848  0.6055500000000001  0.44104  1.0000
  H   H9        1.0  0.33963  0.19707  0.78569  1.0000
  H   H10       1.0  0.9946500000000001  0.10669000000000002  0.05918  1.0000
  H   H11       1.0  0.8349000000000001  0.6915900000000001  0.72415  1.0000
  H   H12       1.0  0.29968  0.73122  0.80575  1.0000
  C   C1        1.0  0.75727  0.82116  0.84669  1.0000
  C   C2        1.0  0.7439600000000001  0.6722200000000002  0.34105  1.0000
  C   C3        1.0  0.7086100000000001  0.13086000000000003  0.0638  1.0000
  C   C4        1.0  0.92759  0.7256400000000002  0.76868  1.0000
  C   C5        1.0  0.9058600000000001  0.7933500000000002  0.83645  1.0000
  C   C6        1.0  0.7911  0.37035000000000007  0.55659  1.0000
  C   C7        1.0  0.42009000000000013  0.8780900000000003  0.1901  1.0000
  C   C8        1.0  0.9136  0.37879  0.30959  1.0000
  C   C9        1.0  0.2962900000000001  0.8724900000000002  0.93994  1.0000
  C   C10       1.0  0.43061  0.23013000000000006  0.73867  1.0000
  C   C11       1.0  0.09803000000000002  0.20377000000000003  0.16849  1.0000
  C   C12       1.0  0.44172  0.79963  0.25577  1.0000
  C   C13       1.0  0.81753  0.25533  0.18751  1.0000
  C   C14       1.0  0.9382500000000001  0.30021  0.24399  1.0000
  C   C15       1.0  0.16756  0.81701  0.88205  1.0000
  C   C16       1.0  0.33274  0.68369  0.37802  1.0000
  C   C17       1.0  0.26141  0.32783  0.66485  1.0000
  C   C18       1.0  0.5809700000000001  0.7734500000000001  0.26504  1.0000
  C   C19       1.0  0.06823000000000007  0.7013400000000001  0.75901  1.0000
  C   C20       1.0  0.97922  0.16121000000000002  0.11097  1.0000
  C   C21       1.0  0.24567000000000003  0.17141000000000003  0.16142  1.0000
  C   C22       1.0  0.40852000000000005  0.2979800000000001  0.67224  1.0000
  C   C23       1.0  0.66753  0.31658  0.61935  1.0000
  C   C24       1.0  0.8385299999999999  0.18557  0.12113  1.0000
  C   C25       1.0  0.19821000000000008  0.6279200000000001  0.43432  1.0000
  C   C26       1.0  0.18950000000000006  0.7480500000000001  0.8149  1.0000
  C   C27       1.0  0.5268  0.34063000000000004  0.61268  1.0000
  C   C28       1.0  0.08706999999999998  0.62273  0.69086  1.0000
  C   C29       1.0  0.31671  0.75393  0.31169  1.0000
  C   C30       1.0  0.58635  0.12905000000000003  0.815  1.0000
  C   C31       1.0  0.47314  0.66027  0.38918  1.0000
  C   C32       1.0  0.025049999999999996  0.83785  0.89349  1.0000
  C   C33       1.0  0.59666  0.70398  0.33257  1.0000
  C   C34       1.0  0.6905  0.2479  0.68559  1.0000
  C   C35       1.0  0.5706900000000001  0.20458000000000004  0.74491  1.0000
  C   C36       1.0  0.07774999999999997  0.27352  0.2356  1.0000
  O   O1        1.0  0.9871500000000001  0.40139000000000014  0.37865  1.0000
  O   O2        1.0  0.85133  0.7028700000000002  0.28972  1.0000
  O   O3        1.0  0.81364  0.43456000000000006  0.29995  1.0000
  O   O4        1.0  0.99218  0.5929100000000002  0.63073  1.0000
  O   O5        1.0  0.2659099999999999  0.92541  0.00375  1.0000
  O   O6        1.0  0.06654999999999996  0.6402  0.41662  1.0000
  O   O7        1.0  0.57429  0.13814  0.08327  1.0000
  O   O8        1.0  0.43028  0.86342  0.92113  1.0000
  O   O9        1.0  0.69618  0.07966  0.81223  1.0000
  O   O10       1.0  0.14911  0.29148  0.71272  1.0000
  O   O11       1.0  0.7552700000000001  0.4238200000000001  0.49568  1.0000
  O   O12       1.0  0.74134  0.07963  0.9996699999999998  1.0000
  O   O13       1.0  0.26651  0.40024  0.60088  1.0000
  O   O14       1.0  0.4937200000000001  0.10733000000000001  0.87668  1.0000
  O   O15       1.0  0.3176  0.9322500000000002  0.20006  1.0000
  O   O16       1.0  0.92686  0.36048  0.56668  1.0000
  O   O17       1.0  0.65275  0.79312  0.79506  1.0000
  O   O18       1.0  0.34956  0.20419  0.21279  1.0000
  O   O19       1.0  0.49702  0.9021300000000001  0.12093  1.0000
  O   O20       1.0  0.7411700000000001  0.6056  0.40793  1.0000
  O   O21       1.0  0.22237999999999997  0.57031  0.49593  1.0000
  O   O22       1.0  0.24584999999999999  0.10276000000000003  0.09568  1.0000
  O   O23       1.0  0.19906  0.57776  0.69191  1.0000
  O   O24       1.0  0.74825  0.8796700000000001  0.91647  1.0000
