data_image0
_chemical_formula_structural       Zn4H8C40O32
_chemical_formula_sum              "Zn4 H8 C40 O32"
_cell_length_a       10.79665
_cell_length_b       11.35908
_cell_length_c       15.745779999999998
_cell_angle_alpha    90.045
_cell_angle_beta     90.13878
_cell_angle_gamma    97.65314

_symmetry_space_group_name_H-M    'P 1'
_symmetry_Int_Tables_number       1

loop_
  _symmetry_equiv_pos_as_xyz
  'x,y,z'

loop_
  _atom_site_type_symbol
  _atom_site_label
  _atom_site_symmetry_multiplicity
  _atom_site_fract_x
  _atom_site_fract_y
  _atom_site_fract_z
  _atom_site_occupancy
  Zn  Zn1       1.0  0.75174  0.50301  0.98071  1.0000
  Zn  Zn2       1.0  0.74773  0.99572  0.47888  1.0000
  Zn  Zn3       1.0  0.24826  0.49699  0.01929  1.0000
  Zn  Zn4       1.0  0.25228  0.00429  0.5211  1.0000
  H   H1        1.0  0.2782  0.7171399999999999  0.77388  1.0000
  H   H2        1.0  0.73629  0.8621  0.76707  1.0000
  H   H3        1.0  0.22406  0.7818699999999998  0.27407  1.0000
  H   H4        1.0  0.76622  0.6357499999999999  0.26584  1.0000
  H   H5        1.0  0.7218099999999998  0.28288  0.22612  1.0000
  H   H6        1.0  0.26372  0.1379  0.23293000000000005  1.0000
  H   H7        1.0  0.7759199999999999  0.21812  0.7259  1.0000
  H   H8        1.0  0.23376  0.36424  0.73416  1.0000
  C   C1        1.0  0.5936  0.7364399999999999  0.82091  1.0000
  C   C2        1.0  0.4632699999999999  0.70044  0.82635  1.0000
  C   C3        1.0  0.3782999999999999  0.7475299999999999  0.77083  1.0000
  C   C4        1.0  0.42195  0.83913  0.71649  1.0000
  C   C5        1.0  0.55238  0.87308  0.70948  1.0000
  C   C6        1.0  0.6363599999999999  0.8299  0.76769  1.0000
  C   C7        1.0  0.68808  0.6787  0.8731000000000002  1.0000
  C   C8        1.0  0.4038900000000002  0.60902  0.88902  1.0000
  C   C9        1.0  0.3264699999999999  0.89151  0.66161  1.0000
  C   C10       1.0  0.61082  0.9528  0.63949  1.0000
  C   C11       1.0  0.90859  0.76169  0.32043  1.0000
  C   C12       1.0  0.03886  0.79778  0.32666  1.0000
  C   C13       1.0  0.12409  0.75038  0.2715  1.0000
  C   C14       1.0  0.08071  0.65905  0.21657  1.0000
  C   C15       1.0  0.95035  0.624  0.21002000000000007  1.0000
  C   C16       1.0  0.86623  0.66735  0.26769  1.0000
  C   C17       1.0  0.8127  0.82088  0.37014  1.0000
  C   C18       1.0  0.09668999999999997  0.8920699999999999  0.3881  1.0000
  C   C19       1.0  0.17521  0.61021  0.15906000000000006  1.0000
  C   C20       1.0  0.8903999999999999  0.54534  0.13991  1.0000
  C   C21       1.0  0.4064  0.26356  0.17908  1.0000
  C   C22       1.0  0.53674  0.29955  0.17364  1.0000
  C   C23       1.0  0.6216999999999999  0.25247  0.22916  1.0000
  C   C24       1.0  0.5780599999999999  0.16088  0.2835  1.0000
  C   C25       1.0  0.4476299999999999  0.12694  0.2905100000000001  1.0000
  C   C26       1.0  0.36363999999999996  0.1701  0.23231  1.0000
  C   C27       1.0  0.31192999999999993  0.3213  0.12689  1.0000
  C   C28       1.0  0.59611  0.39096999999999993  0.11097  1.0000
  C   C29       1.0  0.67355  0.10851  0.33838  1.0000
  C   C30       1.0  0.38920999999999994  0.04724  0.3605200000000001  1.0000
  C   C31       1.0  0.09139  0.2383  0.6795500000000002  1.0000
  C   C32       1.0  0.96113  0.20223999999999998  0.6733  1.0000
  C   C33       1.0  0.8758899999999998  0.24963  0.72848  1.0000
  C   C34       1.0  0.91927  0.34092  0.78343  1.0000
  C   C35       1.0  0.04963999999999999  0.37597  0.78998  1.0000
  C   C36       1.0  0.13375  0.33264  0.7323100000000002  1.0000
  C   C37       1.0  0.18729  0.1791  0.6298600000000002  1.0000
  C   C38       1.0  0.9033099999999998  0.10797999999999999  0.61183  1.0000
  C   C39       1.0  0.8247899999999999  0.38977  0.8409400000000002  1.0000
  C   C40       1.0  0.10958999999999998  0.4546399999999999  0.86009  1.0000
  O   O1        1.0  0.63699  0.60109  0.92708  1.0000
  O   O2        1.0  0.80104  0.70837  0.86095  1.0000
  O   O3        1.0  0.36174999999999996  0.63009  0.9605  1.0000
  O   O4        1.0  0.39955999999999997  0.51684  0.84404  1.0000
  O   O5        1.0  0.37507  0.9402499999999999  0.5928800000000002  1.0000
  O   O6        1.0  0.21615999999999996  0.88092  0.6844  1.0000
  O   O7        1.0  0.6497199999999999  0.9089  0.57262  1.0000
  O   O8        1.0  0.61918  0.05738  0.66622  1.0000
  O   O9        1.0  0.8625199999999998  0.8982499999999998  0.42496  1.0000
  O   O10       1.0  0.70024  0.7918399999999999  0.35505  1.0000
  O   O11       1.0  0.13835  0.87419  0.46038  1.0000
  O   O12       1.0  0.10013999999999997  0.9827799999999999  0.34188  1.0000
  O   O13       1.0  0.12467  0.55953  0.09132  1.0000
  O   O14       1.0  0.28725  0.62512  0.17858  1.0000
  O   O15       1.0  0.84987  0.59081  0.07410000000000003  1.0000
  O   O16       1.0  0.88115  0.4400299999999999  0.1648  1.0000
  O   O17       1.0  0.36302  0.39892  0.07291  1.0000
  O   O18       1.0  0.19897  0.29164  0.13905  1.0000
  O   O19       1.0  0.63826  0.3699  0.03948  1.0000
  O   O20       1.0  0.6004400000000001  0.48313  0.15596  1.0000
  O   O21       1.0  0.62494  0.05974999999999999  0.4071  1.0000
  O   O22       1.0  0.7838599999999999  0.11910999999999997  0.31559  1.0000
  O   O23       1.0  0.35036  0.09114  0.4274  1.0000
  O   O24       1.0  0.38082  0.9426599999999999  0.33378  1.0000
  O   O25       1.0  0.13749  0.10174  0.57502  1.0000
  O   O26       1.0  0.29975  0.20812999999999998  0.6449600000000002  1.0000
  O   O27       1.0  0.8617  0.12583  0.53953  1.0000
  O   O28       1.0  0.8998599999999999  0.01729  0.65808  1.0000
  O   O29       1.0  0.8753299999999999  0.44047  0.9086800000000003  1.0000
  O   O30       1.0  0.71274  0.37487999999999994  0.82144  1.0000
  O   O31       1.0  0.15012999999999999  0.40917999999999993  0.9259000000000002  1.0000
  O   O32       1.0  0.11884999999999998  0.55996  0.8352  1.0000
