data_image0
_chemical_formula_structural       Pr2H26C50N4O12
_chemical_formula_sum              "Pr2 H26 C50 N4 O12"
_cell_length_a       9.26438
_cell_length_b       13.79271
_cell_length_c       16.545269999999995
_cell_angle_alpha    85.17672
_cell_angle_beta     79.03197
_cell_angle_gamma    91.46168000000002

_space_group_name_H-M_alt    "P 1"
_space_group_IT_number       1

loop_
  _space_group_symop_operation_xyz
  'x, y, z'

loop_
  _atom_site_type_symbol
  _atom_site_label
  _atom_site_symmetry_multiplicity
  _atom_site_fract_x
  _atom_site_fract_y
  _atom_site_fract_z
  _atom_site_occupancy
  Pr  Pr1       1.0  0.69993  0.05559999999999999  0.4645300000000001  1.0000
  Pr  Pr2       1.0  0.30678  0.94408  0.53549  1.0000
  H   H1        1.0  0.65766  0.78824  0.9497200000000002  1.0000
  H   H2        1.0  0.65289  0.7756100000000001  0.11336  1.0000
  H   H3        1.0  0.90289  0.54765  0.32101  1.0000
  H   H4        1.0  0.09363000000000002  0.40341000000000005  0.30281  1.0000
  H   H5        1.0  0.9987399999999999  0.49564  0.06725  1.0000
  H   H6        1.0  0.97348  0.78065  0.75278  1.0000
  H   H7        1.0  0.8645800000000001  0.89141  0.65548  1.0000
  H   H8        1.0  0.43573000000000006  0.76042  0.7565  1.0000
  H   H9        1.0  0.5436099999999999  0.65134  0.8558  1.0000
  H   H10       1.0  0.53381  0.61389  0.22671  1.0000
  H   H11       1.0  0.3994599999999999  0.7029600000000001  0.3418700000000001  1.0000
  H   H12       1.0  0.81079  0.83276  0.37306  1.0000
  H   H13       1.0  0.94414  0.74166  0.26068  1.0000
  H   H14       1.0  0.34768  0.21029000000000006  0.051830000000000015  1.0000
  H   H15       1.0  0.35384000000000004  0.22333  0.88808  1.0000
  H   H16       1.0  0.10397999999999988  0.45135999999999993  0.6803600000000002  1.0000
  H   H17       1.0  0.91211  0.59495  0.69847  1.0000
  H   H18       1.0  0.006460000000000006  0.50311  0.93418  1.0000
  H   H19       1.0  0.033760000000000005  0.21829000000000004  0.2498  1.0000
  H   H20       1.0  0.14490999999999998  0.10812999999999999  0.34636  1.0000
  H   H21       1.0  0.57231  0.24004  0.24312  1.0000
  H   H22       1.0  0.4620900000000001  0.3485300000000001  0.14453000000000005  1.0000
  H   H23       1.0  0.4738999999999999  0.38492  0.77514  1.0000
  H   H24       1.0  0.60845  0.29585  0.66005  1.0000
  H   H25       1.0  0.19693  0.16613000000000003  0.62869  1.0000
  H   H26       1.0  0.06366000000000001  0.25754  0.74081  1.0000
  C   C1        1.0  0.80164  0.65787  0.9530600000000002  1.0000
  C   C2        1.0  0.7101  0.73561  0.98569  1.0000
  C   C3        1.0  0.70758  0.72919  0.06845  1.0000
  C   C4        1.0  0.79802  0.64779  0.08577  1.0000
  C   C5        1.0  0.82555  0.62059  0.1655  1.0000
  C   C6        1.0  0.91992  0.54761  0.18457000000000007  1.0000
  C   C7        1.0  0.9499900000000001  0.51665  0.2644100000000001  1.0000
  C   C8        1.0  0.047099999999999954  0.44275000000000003  0.2551400000000001  1.0000
  C   C9        1.0  0.07857000000000001  0.4251  0.16941  1.0000
  C   C10       1.0  0.8332100000000001  0.6430100000000001  0.86824  1.0000
  C   C11       1.0  0.7660099999999999  0.70831  0.8103700000000003  1.0000
  C   C12       1.0  0.8558599999999998  0.7763000000000002  0.75326  1.0000
  C   C13       1.0  0.79535  0.83813  0.69899  1.0000
  C   C14       1.0  0.6434599999999999  0.83249  0.6997400000000003  1.0000
  C   C15       1.0  0.55314  0.7646700000000002  0.7564700000000002  1.0000
  C   C16       1.0  0.61381  0.70364  0.81161  1.0000
  C   C17       1.0  0.58186  0.89785  0.6395900000000002  1.0000
  C   C18       1.0  0.7476  0.67246  0.23552  1.0000
  C   C19       1.0  0.59357  0.6616500000000001  0.25916  1.0000
  C   C20       1.0  0.5184600000000001  0.7112000000000003  0.32308  1.0000
  C   C21       1.0  0.59622  0.77451  0.36337  1.0000
  C   C22       1.0  0.75007  0.7848900000000001  0.34107  1.0000
  C   C23       1.0  0.8249  0.73333  0.27815  1.0000
  C   C24       1.0  0.51187  0.83067  0.42748  1.0000
  C   C25       1.0  0.007199999999999998  0.04694000000000001  0.52291  1.0000
  C   C26       1.0  0.20395999999999997  0.34072000000000013  0.04833  1.0000
  C   C27       1.0  0.29569  0.26306  0.015760000000000007  1.0000
  C   C28       1.0  0.29881999999999986  0.26968999999999993  0.9329400000000002  1.0000
  C   C29       1.0  0.20854  0.35119  0.91557  1.0000
  C   C30       1.0  0.18144  0.37871  0.83583  1.0000
  C   C31       1.0  0.08657  0.4514  0.81679  1.0000
  C   C32       1.0  0.056429999999999925  0.48225000000000007  0.7369400000000003  1.0000
  C   C33       1.0  0.95878  0.55587  0.74621  1.0000
  C   C34       1.0  0.92697  0.57344  0.83195  1.0000
  C   C35       1.0  0.17230000000000004  0.35557  0.13313  1.0000
  C   C36       1.0  0.24045  0.29077  0.19084  1.0000
  C   C37       1.0  0.15161  0.22285  0.24849000000000002  1.0000
  C   C38       1.0  0.21336  0.16137  0.30242  1.0000
  C   C39       1.0  0.36547999999999997  0.16732  0.30075  1.0000
  C   C40       1.0  0.45475  0.23535000000000003  0.24373000000000006  1.0000
  C   C41       1.0  0.39281999999999995  0.296  0.18893  1.0000
  C   C42       1.0  0.42861  0.10221  0.36024  1.0000
  C   C43       1.0  0.25993999999999995  0.3268800000000001  0.7659100000000002  1.0000
  C   C44       1.0  0.4140899999999999  0.3373600000000001  0.7425100000000002  1.0000
  C   C45       1.0  0.48933000000000004  0.28779  0.67856  1.0000
  C   C46       1.0  0.41164000000000006  0.22477  0.63791  1.0000
  C   C47       1.0  0.2577899999999999  0.2142  0.6604400000000002  1.0000
  C   C48       1.0  0.18289999999999992  0.26582000000000006  0.7233100000000002  1.0000
  C   C49       1.0  0.49536000000000013  0.16916000000000003  0.57306  1.0000
  C   C50       1.0  0.99975  0.9533  0.47728  1.0000
  N   N1        1.0  0.85469  0.60547  0.01479  1.0000
  N   N2        1.0  0.99983  0.49038  0.12914  1.0000
  N   N3        1.0  0.15128999999999998  0.39326  0.98656  1.0000
  N   N4        1.0  0.005980000000000026  0.50834  0.87224  1.0000
  O   O1        1.0  0.66996  0.9624600000000002  0.59473  1.0000
  O   O2        1.0  0.44539  0.8859500000000002  0.63527  1.0000
  O   O3        1.0  0.57105  0.90869  0.4485500000000001  1.0000
  O   O4        1.0  0.3794699999999999  0.8044000000000002  0.4602300000000001  1.0000
  O   O5        1.0  0.92257  0.11392000000000004  0.50812  1.0000
  O   O6        1.0  0.0989  0.047749999999999994  0.57122  1.0000
  O   O7        1.0  0.34217999999999993  0.03708000000000001  0.40526  1.0000
  O   O8        1.0  0.5651700000000001  0.11470999999999999  0.36405  1.0000
  O   O9        1.0  0.43565  0.09148000000000002  0.55162  1.0000
  O   O10       1.0  0.6274599999999999  0.19558999999999999  0.5398700000000002  1.0000
  O   O11       1.0  0.08467999999999998  0.88639  0.4917800000000001  1.0000
  O   O12       1.0  0.90831  0.9523600000000001  0.42882  1.0000
