data_image0
_chemical_formula_structural       Eu2H14C26N4O12
_chemical_formula_sum              "Eu2 H14 C26 N4 O12"
_cell_length_a       8.4923
_cell_length_b       8.85844
_cell_length_c       12.454139999999999
_cell_angle_alpha    103.86739
_cell_angle_beta     99.58667
_cell_angle_gamma    99.21764

_space_group_name_H-M_alt    "P 1"
_space_group_IT_number       1

loop_
  _space_group_symop_operation_xyz
  'x, y, z'

loop_
  _atom_site_type_symbol
  _atom_site_label
  _atom_site_symmetry_multiplicity
  _atom_site_fract_x
  _atom_site_fract_y
  _atom_site_fract_z
  _atom_site_occupancy
  Eu  Eu1       1.0  0.26665  0.0016099999999999877  0.92802  1.0000
  Eu  Eu2       1.0  0.74105  0.0008299999999999987  0.06847  1.0000
  H   H1        1.0  0.18669999999999998  0.5088400000000001  0.34681  1.0000
  H   H2        1.0  0.2755  0.61769  0.55661  1.0000
  H   H3        1.0  0.91618  0.90846  0.55527  1.0000
  H   H4        1.0  0.82329  0.7966500000000001  0.34538  1.0000
  H   H5        1.0  0.87348  0.47090999999999994  0.17634  1.0000
  H   H6        1.0  0.88259  0.6722  0.1727  1.0000
  H   H7        1.0  0.37802  0.4427700000000001  0.03993  1.0000
  H   H8        1.0  0.8034999999999999  0.47858000000000006  0.65844  1.0000
  H   H9        1.0  0.70729  0.37089  0.44949  1.0000
  H   H10       1.0  0.09365  0.11144  0.43821  1.0000
  H   H11       1.0  0.19049999999999997  0.21820000000000006  0.64769  1.0000
  H   H12       1.0  0.13598  0.52693  0.82272  1.0000
  H   H13       1.0  0.12441999999999996  0.32498  0.8249399999999999  1.0000
  H   H14       1.0  0.63609  0.56495  0.96397  1.0000
  C   C1        1.0  0.97233  0.81921  0.50864  1.0000
  C   C2        1.0  0.17691999999999997  0.65582  0.50935  1.0000
  C   C3        1.0  0.12604  0.59478  0.39241  1.0000
  C   C4        1.0  0.29966  0.51156  0.08107  1.0000
  C   C5        1.0  0.10286999999999999  0.7715399999999999  0.56733  1.0000
  C   C6        1.0  0.06829  0.28491  0.07942  1.0000
  C   C7        1.0  0.15242  0.45262  0.10575999999999999  1.0000
  C   C8        1.0  0.31653  0.6779100000000001  0.11252  1.0000
  C   C9        1.0  0.0003400000000000058  0.64741  0.33257  1.0000
  C   C10       1.0  0.95024  0.59113  0.20498  1.0000
  C   C11       1.0  0.16719  0.85129  0.68888  1.0000
  C   C12       1.0  0.92069  0.7562300000000002  0.39187  1.0000
  C   C13       1.0  0.45113  0.79055  0.09533  1.0000
  C   C14       1.0  0.03235999999999998  0.19304  0.48728  1.0000
  C   C15       1.0  0.81317  0.3387900000000001  0.49358  1.0000
  C   C16       1.0  0.86791  0.3990500000000001  0.61041  1.0000
  C   C17       1.0  0.713  0.49460000000000004  0.92216  1.0000
  C   C18       1.0  0.89279  0.23191  0.43178  1.0000
  C   C19       1.0  0.95038  0.71817  0.92519  1.0000
  C   C20       1.0  0.8619799999999999  0.55132  0.8984399999999999  1.0000
  C   C21       1.0  0.6923799999999998  0.32794  0.88915  1.0000
  C   C22       1.0  0.0018400000000000137  0.35319  0.66712  1.0000
  C   C23       1.0  0.05720999999999999  0.40788  0.79475  1.0000
  C   C24       1.0  0.82649  0.15127  0.3103  1.0000
  C   C25       1.0  0.08614000000000001  0.25320000000000004  0.60413  1.0000
  C   C26       1.0  0.55527  0.21436000000000002  0.90271  1.0000
  N   N1        1.0  0.09170000000000005  0.5843000000000003  0.1518  1.0000
  N   N2        1.0  0.18969  0.7214700000000001  0.15621  1.0000
  N   N3        1.0  0.91951  0.4179900000000001  0.85127  1.0000
  N   N4        1.0  0.8183799999999999  0.28201999999999994  0.8457199999999999  1.0000
  O   O1        1.0  0.43165  0.92573  0.07826  1.0000
  O   O2        1.0  0.92632  0.25278  0.09849999999999999  1.0000
  O   O3        1.0  0.10320000000000001  0.963  0.73982  1.0000
  O   O4        1.0  0.1431  0.17866000000000007  0.0369  1.0000
  O   O5        1.0  0.58767  0.74907  0.09418000000000001  1.0000
  O   O6        1.0  0.28874000000000005  0.815  0.74559  1.0000
  O   O7        1.0  0.5761299999999998  0.08053999999999996  0.9219099999999999  1.0000
  O   O8        1.0  0.09282000000000003  0.74635  0.90612  1.0000
  O   O9        1.0  0.8815599999999999  0.030999999999999996  0.26148  1.0000
  O   O10       1.0  0.87898  0.8273  0.96837  1.0000
  O   O11       1.0  0.41664  0.25223  0.89819  1.0000
  O   O12       1.0  0.71306  0.19386  0.25057  1.0000
