data_image0
_chemical_formula_structural       Co4H12C36O24
_chemical_formula_sum              "Co4 H12 C36 O24"
_cell_length_a       10.12917
_cell_length_b       10.14796
_cell_length_c       19.22125
_cell_angle_alpha    89.43110000000001
_cell_angle_beta     89.52434999999998
_cell_angle_gamma    104.80572000000001

_symmetry_space_group_name_H-M    'P 1'
_symmetry_Int_Tables_number       1

loop_
  _symmetry_equiv_pos_as_xyz
  'x,y,z'

loop_
  _atom_site_type_symbol
  _atom_site_label
  _atom_site_symmetry_multiplicity
  _atom_site_fract_x
  _atom_site_fract_y
  _atom_site_fract_z
  _atom_site_occupancy
  Co  Co1       1.0  0.9306100000000002  0.79759  0.27085  1.0000
  Co  Co2       1.0  0.06283000000000001  0.19286  0.7682799999999999  1.0000
  Co  Co3       1.0  0.20424  0.06981000000000001  0.23103  1.0000
  Co  Co4       1.0  0.8046700000000001  0.9380499999999999  0.73294  1.0000
  H   H1        1.0  0.14655  0.50536  0.24854999999999997  1.0000
  H   H2        1.0  0.251  0.19201  0.39317  1.0000
  H   H3        1.0  0.85097  0.49836  0.74528  1.0000
  H   H4        1.0  0.76456  0.8224399999999998  0.88819  1.0000
  H   H5        1.0  0.49471000000000015  0.8533900000000001  0.2522  1.0000
  H   H6        1.0  0.8073500000000001  0.74866  0.10681999999999998  1.0000
  H   H7        1.0  0.5016800000000001  0.15032  0.75503  1.0000
  H   H8        1.0  0.17988  0.23762  0.61162  1.0000
  H   H9        1.0  0.55381  0.4473500000000001  0.25218  1.0000
  H   H10       1.0  0.44379  0.55712  0.74889  1.0000
  H   H11       1.0  0.9153600000000001  0.9095799999999999  0.49848999999999993  1.0000
  H   H12       1.0  0.09108  0.08523  0.00307  1.0000
  C   C1        1.0  0.28385  0.3139  0.24270999999999998  1.0000
  C   C2        1.0  0.04379000000000001  0.97527  0.37098  1.0000
  C   C3        1.0  0.25644  0.54789  0.24935999999999997  1.0000
  C   C4        1.0  0.34425  0.4612800000000001  0.24883999999999998  1.0000
  C   C5        1.0  0.0798  0.0434  0.43890999999999997  1.0000
  C   C6        1.0  0.19204000000000002  0.15773  0.44051999999999997  1.0000
  C   C7        1.0  0.71601  0.69264  0.74364  1.0000
  C   C8        1.0  0.9777700000000001  0.04307000000000001  0.87506  1.0000
  C   C9        1.0  0.74093  0.45598999999999995  0.74724  1.0000
  C   C10       1.0  0.65373  0.54338  0.7465699999999998  1.0000
  C   C11       1.0  0.93256  0.96183  0.93928  1.0000
  C   C12       1.0  0.8188200000000001  0.84917  0.9367899999999999  1.0000
  C   C13       1.0  0.68646  0.71563  0.26020999999999994  1.0000
  C   C14       1.0  0.02321000000000001  0.95588  0.13069  1.0000
  C   C15       1.0  0.45224  0.74363  0.25183  1.0000
  C   C16       1.0  0.53879  0.65579  0.25389  1.0000
  C   C17       1.0  0.95686  0.9205  0.06223  1.0000
  C   C18       1.0  0.84266  0.80828  0.05976999999999999  1.0000
  C   C19       1.0  0.30763  0.28591  0.75581  1.0000
  C   C20       1.0  0.95924  0.02452  0.62647  1.0000
  C   C21       1.0  0.54458  0.2601  0.75254  1.0000
  C   C22       1.0  0.45718  0.34735  0.75236  1.0000
  C   C23       1.0  0.03934  0.06873  0.56175  1.0000
  C   C24       1.0  0.15206  0.18271  0.56338  1.0000
  C   C25       1.0  0.21850000000000003  0.78126  0.25009  1.0000
  C   C26       1.0  0.31098  0.68899  0.25028  1.0000
  C   C27       1.0  0.48558000000000007  0.51463  0.2516  1.0000
  C   C28       1.0  0.7793100000000001  0.22153  0.7502599999999999  1.0000
  C   C29       1.0  0.6865000000000001  0.31438  0.75011  1.0000
  C   C30       1.0  0.51151  0.48933  0.7491099999999999  1.0000
  C   C31       1.0  0.002850000000000014  0.9981  0.49950999999999995  1.0000
  C   C32       1.0  0.22822000000000003  0.22693  0.50272  1.0000
  C   C33       1.0  0.34672  0.34701  0.5031799999999998  1.0000
  C   C34       1.0  0.002810000000000034  0.9976800000000001  0.00183  1.0000
  C   C35       1.0  0.77402  0.77259  0.9972499999999999  1.0000
  C   C36       1.0  0.6532100000000001  0.65427  0.99636  1.0000
  O   O1        1.0  0.3592699999999999  0.22775  0.24967  1.0000
  O   O2        1.0  0.15888  0.26657  0.22886  1.0000
  O   O3        1.0  0.9562400000000001  0.85976  0.36780999999999997  1.0000
  O   O4        1.0  0.10190000000000002  0.03942999999999999  0.3169  1.0000
  O   O5        1.0  0.09253  0.7267  0.26394  1.0000
  O   O6        1.0  0.41521  0.39329  0.44832  1.0000
  O   O7        1.0  0.64098  0.77931  0.74545  1.0000
  O   O8        1.0  0.84498  0.74051  0.73916  1.0000
  O   O9        1.0  0.072  0.15308  0.8748  1.0000
  O   O10       1.0  0.9201500000000001  0.0008800000000000027  0.8167199999999999  1.0000
  O   O11       1.0  0.90543  0.2734  0.7638  1.0000
  O   O12       1.0  0.58661  0.6122  0.94167  1.0000
  O   O13       1.0  0.77303  0.64151  0.25157  1.0000
  O   O14       1.0  0.7337300000000001  0.8404100000000001  0.27446  1.0000
  O   O15       1.0  0.13873  0.04349  0.13487  1.0000
  O   O16       1.0  0.95794  0.89637  0.18405  1.0000
  O   O17       1.0  0.2731100000000001  0.90709  0.23614  1.0000
  O   O18       1.0  0.60756  0.58591  0.05142  1.0000
  O   O19       1.0  0.22043000000000001  0.35945  0.75127  1.0000
  O   O20       1.0  0.25989  0.15735  0.76365  1.0000
  O   O21       1.0  0.84736  0.93286  0.62725  1.0000
  O   O22       1.0  0.0066  0.08065  0.68416  1.0000
  O   O23       1.0  0.7266300000000002  0.096  0.7364899999999999  1.0000
  O   O24       1.0  0.38911  0.41386000000000006  0.5576999999999999  1.0000
