data_image0
_chemical_formula_structural       Zn6H20C46O22
_chemical_formula_sum              "Zn6 H20 C46 O22"
_cell_length_a       10.86827
_cell_length_b       11.66401
_cell_length_c       20.19406
_cell_angle_alpha    90.0
_cell_angle_beta     90.0
_cell_angle_gamma    89.99135

_symmetry_space_group_name_H-M    'P 1'
_symmetry_Int_Tables_number       1

loop_
  _symmetry_equiv_pos_as_xyz
  'x,y,z'

loop_
  _atom_site_type_symbol
  _atom_site_label
  _atom_site_symmetry_multiplicity
  _atom_site_fract_x
  _atom_site_fract_y
  _atom_site_fract_z
  _atom_site_occupancy
  Zn  Zn1       1.0  0.13919  0.44952  0.08603  1.0000
  Zn  Zn2       1.0  0.86221  0.9516  0.4145  1.0000
  Zn  Zn3       1.0  0.86221  0.9516  0.5855  1.0000
  Zn  Zn4       1.0  0.13919  0.44952  0.91397  1.0000
  Zn  Zn5       1.0  0.90059  0.48834  0.0  1.0000
  Zn  Zn6       1.0  0.102  0.98929  0.5  1.0000
  H   H1        1.0  0.5543200000000001  0.10985  0.15367  1.0000
  H   H2        1.0  0.6473100000000002  0.05050000000000001  0.2609  1.0000
  H   H3        1.0  0.97023  0.24742  0.21709  1.0000
  H   H4        1.0  0.47672  0.30176  0.10622000000000001  1.0000
  H   H5        1.0  0.4458600000000001  0.60996  0.34677  1.0000
  H   H6        1.0  0.35259  0.5504  0.23966  1.0000
  H   H7        1.0  0.030580000000000006  0.7489  0.28275  1.0000
  H   H8        1.0  0.52439  0.80111  0.39381000000000005  1.0000
  H   H9        1.0  0.4458600000000001  0.60996  0.65323  1.0000
  H   H10       1.0  0.35259  0.5504  0.76033  1.0000
  H   H11       1.0  0.030580000000000006  0.7489  0.71725  1.0000
  H   H12       1.0  0.52439  0.80111  0.60618  1.0000
  H   H13       1.0  0.5543200000000001  0.10985  0.84633  1.0000
  H   H14       1.0  0.6473100000000002  0.05050000000000001  0.7391000000000001  1.0000
  H   H15       1.0  0.97023  0.24742  0.7829000000000002  1.0000
  H   H16       1.0  0.47672  0.30176  0.89378  1.0000
  H   H17       1.0  0.79954  0.19003999999999996  0.0  1.0000
  H   H18       1.0  0.08721  0.61826  0.0  1.0000
  H   H19       1.0  0.20061  0.6916899999999999  0.5  1.0000
  H   H20       1.0  0.9142500000000001  0.11827  0.5  1.0000
  C   C1        1.0  0.8933900000000001  0.34245  0.10507000000000001  1.0000
  C   C2        1.0  0.82456  0.25624  0.14426  1.0000
  C   C3        1.0  0.7062800000000001  0.21722000000000002  0.12495000000000002  1.0000
  C   C4        1.0  0.64416  0.14254  0.16806  1.0000
  C   C5        1.0  0.6963700000000002  0.10795  0.22773000000000002  1.0000
  C   C6        1.0  0.8146300000000002  0.14471  0.24581  1.0000
  C   C7        1.0  0.8786600000000001  0.21805000000000002  0.20340000000000003  1.0000
  C   C8        1.0  0.8712400000000001  0.10430999999999999  0.30965  1.0000
  C   C9        1.0  0.64675  0.245  0.06065  1.0000
  C   C10       1.0  0.52502  0.28482  0.06009  1.0000
  C   C11       1.0  0.1098  0.84524  0.39501  1.0000
  C   C12       1.0  0.17678  0.7581  0.3556  1.0000
  C   C13       1.0  0.29452  0.7181499999999998  0.37511  1.0000
  C   C14       1.0  0.35631000000000007  0.64306  0.3322  1.0000
  C   C15       1.0  0.30382  0.60826  0.27267  1.0000
  C   C16       1.0  0.18538  0.64476  0.25472  1.0000
  C   C17       1.0  0.12199000000000002  0.71932  0.29673  1.0000
  C   C18       1.0  0.12742  0.60225  0.19162  1.0000
  C   C19       1.0  0.35399  0.74558  0.43941  1.0000
  C   C20       1.0  0.47603000000000006  0.78456  0.43996  1.0000
  C   C21       1.0  0.1098  0.84524  0.60499  1.0000
  C   C22       1.0  0.17678  0.7581  0.64439  1.0000
  C   C23       1.0  0.29452  0.7181499999999998  0.62489  1.0000
  C   C24       1.0  0.35631000000000007  0.64306  0.6678  1.0000
  C   C25       1.0  0.30382  0.60826  0.72732  1.0000
  C   C26       1.0  0.18538  0.64476  0.7452700000000001  1.0000
  C   C27       1.0  0.12199000000000002  0.71932  0.70326  1.0000
  C   C28       1.0  0.12742  0.60225  0.8083700000000001  1.0000
  C   C29       1.0  0.35399  0.74558  0.5605900000000001  1.0000
  C   C30       1.0  0.47603000000000006  0.78456  0.56004  1.0000
  C   C31       1.0  0.8933900000000001  0.34245  0.8949300000000001  1.0000
  C   C32       1.0  0.82456  0.25624  0.8557300000000001  1.0000
  C   C33       1.0  0.7062800000000001  0.21722000000000002  0.87505  1.0000
  C   C34       1.0  0.64416  0.14254  0.83194  1.0000
  C   C35       1.0  0.6963700000000002  0.10795  0.7722700000000001  1.0000
  C   C36       1.0  0.8146300000000002  0.14471  0.7541900000000001  1.0000
  C   C37       1.0  0.8786600000000001  0.21805000000000002  0.79659  1.0000
  C   C38       1.0  0.8712400000000001  0.10430999999999999  0.69035  1.0000
  C   C39       1.0  0.64675  0.245  0.9393400000000001  1.0000
  C   C40       1.0  0.52502  0.28482  0.93991  1.0000
  C   C41       1.0  0.7064500000000001  0.22494  0.0  1.0000
  C   C42       1.0  0.4644100000000001  0.30476  0.0  1.0000
  C   C43       1.0  0.33513000000000004  0.3484400000000001  0.0  1.0000
  C   C44       1.0  0.2939800000000001  0.72598  0.5  1.0000
  C   C45       1.0  0.53672  0.80457  0.5  1.0000
  C   C46       1.0  0.66533  0.85015  0.5  1.0000
  O   O1        1.0  0.8296600000000001  0.42309  0.07751  1.0000
  O   O2        1.0  0.00995  0.33232  0.10063000000000001  1.0000
  O   O3        1.0  0.9768900000000003  0.13113  0.32685  1.0000
  O   O4        1.0  0.7959300000000001  0.03826  0.34368  1.0000
  O   O5        1.0  0.28514  0.36527  0.05643000000000001  1.0000
  O   O6        1.0  0.17462000000000003  0.92606  0.42175  1.0000
  O   O7        1.0  0.9934200000000001  0.8351399999999999  0.4009  1.0000
  O   O8        1.0  0.02101  0.62788  0.17504  1.0000
  O   O9        1.0  0.20239000000000001  0.53594  0.15761  1.0000
  O   O10       1.0  0.71512  0.8681100000000002  0.4437400000000001  1.0000
  O   O11       1.0  0.17462000000000003  0.92606  0.57825  1.0000
  O   O12       1.0  0.9934200000000001  0.8351399999999999  0.5991  1.0000
  O   O13       1.0  0.02101  0.62788  0.8249500000000001  1.0000
  O   O14       1.0  0.20239000000000001  0.53594  0.84238  1.0000
  O   O15       1.0  0.71512  0.8681100000000002  0.55626  1.0000
  O   O16       1.0  0.8296600000000001  0.42309  0.92249  1.0000
  O   O17       1.0  0.00995  0.33232  0.89937  1.0000
  O   O18       1.0  0.9768900000000003  0.13113  0.6731500000000001  1.0000
  O   O19       1.0  0.79594  0.03826  0.65632  1.0000
  O   O20       1.0  0.28514  0.36527  0.9435700000000001  1.0000
  O   O21       1.0  0.07232  0.53579  0.0  1.0000
  O   O22       1.0  0.9296700000000001  0.03584  0.5  1.0000
