data_image0
_chemical_formula_structural       Eu4H24C48O24
_chemical_formula_sum              "Eu4 H24 C48 O24"
_cell_length_a       10.94807
_cell_length_b       10.95261
_cell_length_c       18.731970000000004
_cell_angle_alpha    73.94096
_cell_angle_beta     73.99611
_cell_angle_gamma    65.08404

_space_group_name_H-M_alt    "P 1"
_space_group_IT_number       1

loop_
  _space_group_symop_operation_xyz
  'x, y, z'

loop_
  _atom_site_type_symbol
  _atom_site_label
  _atom_site_symmetry_multiplicity
  _atom_site_fract_x
  _atom_site_fract_y
  _atom_site_fract_z
  _atom_site_occupancy
  Eu  Eu1       1.0  0.54249  0.44099  0.09981  1.0000
  Eu  Eu2       1.0  0.5587999999999999  0.45775  0.40005  1.0000
  Eu  Eu3       1.0  0.4575800000000001  0.5589299999999999  0.90021  1.0000
  Eu  Eu4       1.0  0.4410699999999997  0.54234  0.59998  1.0000
  H   H1        1.0  0.4805299999999999  0.11451999999999998  0.22751  1.0000
  H   H2        1.0  0.4626199999999997  0.88457  0.28783  1.0000
  H   H3        1.0  0.36089999999999994  0.9883999999999998  0.50725  1.0000
  H   H4        1.0  0.3809  0.21586  0.44794  1.0000
  H   H5        1.0  0.46198  0.22189999999999996  0.9098299999999999  1.0000
  H   H6        1.0  0.56538  0.97081  0.12245  1.0000
  H   H7        1.0  0.8853299999999997  0.5195  0.27252  1.0000
  H   H8        1.0  0.11532000000000003  0.53752  0.21249  1.0000
  H   H9        1.0  0.011860000000000048  0.6391999999999998  0.99285  1.0000
  H   H10       1.0  0.78429  0.61914  0.05191  1.0000
  H   H11       1.0  0.7782199999999999  0.53785  0.59013  1.0000
  H   H12       1.0  0.028970000000000034  0.43473  0.3776  1.0000
  H   H13       1.0  0.5194699999999999  0.88537  0.77252  1.0000
  H   H14       1.0  0.53739  0.11533000000000002  0.71227  1.0000
  H   H15       1.0  0.6391099999999998  0.011610000000000002  0.49281  1.0000
  H   H16       1.0  0.61908  0.7841600000000001  0.55208  1.0000
  H   H17       1.0  0.5379999999999999  0.7781099999999997  0.0902  1.0000
  H   H18       1.0  0.4346099999999999  0.029179999999999994  0.87757  1.0000
  H   H19       1.0  0.11456999999999998  0.48052  0.72751  1.0000
  H   H20       1.0  0.8846099999999998  0.46251000000000003  0.78758  1.0000
  H   H21       1.0  0.98815  0.3608  0.00721  1.0000
  H   H22       1.0  0.21573  0.3808499999999999  0.94811  1.0000
  H   H23       1.0  0.22177999999999987  0.46216  0.40984  1.0000
  H   H24       1.0  0.97105  0.56528  0.62237  1.0000
  C   C1        1.0  0.45315999999999995  0.30869  0.29922  1.0000
  C   C2        1.0  0.4319599999999999  0.17756  0.33443  1.0000
  C   C3        1.0  0.4532299999999999  0.08582  0.28854  1.0000
  C   C4        1.0  0.4435100000000001  0.9590499999999998  0.32177  1.0000
  C   C5        1.0  0.41198000000000007  0.9238299999999999  0.4008  1.0000
  C   C6        1.0  0.38574999999999976  0.017599999999999998  0.44628  1.0000
  C   C7        1.0  0.39654  0.14388999999999993  0.41326  1.0000
  C   C8        1.0  0.41796  0.78211  0.43658  1.0000
  C   C9        1.0  0.5299299999999999  0.22249999999999998  0.03976  1.0000
  C   C10       1.0  0.51519  0.10850000000000001  0.01819  1.0000
  C   C11       1.0  0.47839  0.12474000000000003  0.94903  1.0000
  C   C12       1.0  0.5367499999999998  0.98285  0.06898  1.0000
  C   C13       1.0  0.6912699999999998  0.5469  0.2006  1.0000
  C   C14       1.0  0.8224699999999999  0.56808  0.1655  1.0000
  C   C15       1.0  0.9141599999999994  0.54681  0.21151  1.0000
  C   C16       1.0  0.040970000000000006  0.55658  0.17841  1.0000
  C   C17       1.0  0.07624999999999998  0.58814  0.09937  1.0000
  C   C18       1.0  0.98253  0.61434  0.0538  1.0000
  C   C19       1.0  0.8562200000000001  0.60352  0.08667  1.0000
  C   C20       1.0  0.21787999999999996  0.58229  0.06349  1.0000
  C   C21       1.0  0.7773800000000001  0.46989999999999993  0.46038  1.0000
  C   C22       1.0  0.8914499999999997  0.48478000000000004  0.48184999999999995  1.0000
  C   C23       1.0  0.8753399999999999  0.5215299999999998  0.55096  1.0000
  C   C24       1.0  0.017009999999999997  0.46331  0.43104  1.0000
  C   C25       1.0  0.5468500000000002  0.69125  0.70079  1.0000
  C   C26       1.0  0.5680200000000001  0.82241  0.6656  1.0000
  C   C27       1.0  0.5467699999999999  0.9141299999999999  0.7115  1.0000
  C   C28       1.0  0.55648  0.040909999999999995  0.67829  1.0000
  C   C29       1.0  0.58797  0.07617  0.59925  1.0000
  C   C30       1.0  0.6142399999999998  0.9824  0.55377  1.0000
  C   C31       1.0  0.60346  0.8560999999999999  0.58677  1.0000
  C   C32       1.0  0.58189  0.21790999999999994  0.56339  1.0000
  C   C33       1.0  0.4700700000000001  0.77747  0.9602700000000001  1.0000
  C   C34       1.0  0.48482  0.8914900000000001  0.98183  1.0000
  C   C35       1.0  0.5216200000000001  0.8752499999999999  0.05099  1.0000
  C   C36       1.0  0.4632599999999999  0.017139999999999954  0.9310400000000001  1.0000
  C   C37       1.0  0.30868  0.4531099999999999  0.79942  1.0000
  C   C38       1.0  0.17750000000000002  0.43190999999999985  0.83453  1.0000
  C   C39       1.0  0.08579000000000005  0.4532  0.78853  1.0000
  C   C40       1.0  0.9590000000000001  0.44342  0.82164  1.0000
  C   C41       1.0  0.9237499999999998  0.41182  0.90067  1.0000
  C   C42       1.0  0.017459999999999923  0.38565  0.9462500000000001  1.0000
  C   C43       1.0  0.14377  0.39647  0.91336  1.0000
  C   C44       1.0  0.78213  0.41764  0.93652  1.0000
  C   C45       1.0  0.22257999999999994  0.5301  0.53962  1.0000
  C   C46       1.0  0.10853999999999997  0.51521  0.51813  1.0000
  C   C47       1.0  0.12465999999999999  0.47847  0.44901  1.0000
  C   C48       1.0  0.9829799999999997  0.53669  0.56893  1.0000
  O   O1        1.0  0.48497999999999997  0.33748  0.22807  1.0000
  O   O2        1.0  0.4396300000000001  0.3870299999999999  0.34297  1.0000
  O   O3        1.0  0.3916499999999999  0.75141  0.50857  1.0000
  O   O4        1.0  0.45483  0.6967199999999998  0.39301  1.0000
  O   O5        1.0  0.57683  0.19982999999999995  0.09903999999999999  1.0000
  O   O6        1.0  0.4912499999999999  0.34523  4e-05  1.0000
  O   O7        1.0  0.6621400000000001  0.51523  0.27175  1.0000
  O   O8        1.0  0.6130200000000001  0.56032  0.15677  1.0000
  O   O9        1.0  0.24835999999999997  0.6082800000000002  0.99149  1.0000
  O   O10       1.0  0.30346  0.54565  0.10699  1.0000
  O   O11       1.0  0.7999599999999999  0.42302000000000006  0.40114999999999995  1.0000
  O   O12       1.0  0.6547299999999998  0.50848  0.5001  1.0000
  O   O13       1.0  0.51507  0.6624  0.77193  1.0000
  O   O14       1.0  0.5603999999999993  0.6129200000000001  0.65703  1.0000
  O   O15       1.0  0.6083899999999999  0.24853999999999998  0.49140999999999996  1.0000
  O   O16       1.0  0.5447299999999999  0.30341999999999997  0.6069299999999999  1.0000
  O   O17       1.0  0.42327  0.80011  0.90096  1.0000
  O   O18       1.0  0.50868  0.65477  1e-05  1.0000
  O   O19       1.0  0.33775999999999995  0.48483000000000004  0.72827  1.0000
  O   O20       1.0  0.38696  0.43965  0.84323  1.0000
  O   O21       1.0  0.75157  0.39178  0.00852  1.0000
  O   O22       1.0  0.6965899999999994  0.45414999999999994  0.893  1.0000
  O   O23       1.0  0.19998000000000002  0.57696  0.59885  1.0000
  O   O24       1.0  0.34523  0.49156  0.4999  1.0000
