data_image0
_chemical_formula_structural       Ce2H24C18O12
_chemical_formula_sum              "Ce2 H24 C18 O12"
_cell_length_a       8.71319
_cell_length_b       10.45006
_cell_length_c       11.809219999999998
_cell_angle_alpha    74.65145
_cell_angle_beta     69.99521
_cell_angle_gamma    86.09612999999999

_space_group_name_H-M_alt    "P 1"
_space_group_IT_number       1

loop_
  _space_group_symop_operation_xyz
  'x, y, z'

loop_
  _atom_site_type_symbol
  _atom_site_label
  _atom_site_symmetry_multiplicity
  _atom_site_fract_x
  _atom_site_fract_y
  _atom_site_fract_z
  _atom_site_occupancy
  Ce  Ce1       1.0  0.75029  0.44234999999999997  0.5212000000000001  1.0000
  Ce  Ce2       1.0  0.25578999999999996  0.5584299999999999  0.47913000000000006  1.0000
  H   H1        1.0  0.19771999999999995  0.46843  0.83143  1.0000
  H   H2        1.0  0.22768999999999998  0.29649999999999993  0.85797  1.0000
  H   H3        1.0  0.38893999999999995  0.30270999999999987  0.9957500000000001  1.0000
  H   H4        1.0  0.38666  0.47692  0.95766  1.0000
  H   H5        1.0  0.08134000000000001  0.29406999999999994  0.10419000000000002  1.0000
  H   H6        1.0  0.07893  0.4682399999999999  0.05582  1.0000
  H   H7        1.0  0.2777  0.47787  0.17469  1.0000
  H   H8        1.0  0.24957  0.30538999999999994  0.23532000000000003  1.0000
  H   H9        1.0  0.9766600000000001  0.8696799999999998  0.60451  1.0000
  H   H10       1.0  0.045000000000000026  0.023860000000000006  0.60806  1.0000
  H   H11       1.0  0.7520999999999998  0.9838399999999998  0.7291100000000001  1.0000
  H   H12       1.0  0.70807  0.97025  0.5968300000000001  1.0000
  H   H13       1.0  0.8031000000000001  0.53154  0.16818000000000002  1.0000
  H   H14       1.0  0.77399  0.70373  0.14086  1.0000
  H   H15       1.0  0.61167  0.69738  0.00395  1.0000
  H   H16       1.0  0.61392  0.52324  0.04212  1.0000
  H   H17       1.0  0.9189  0.7059799999999998  0.8950000000000001  1.0000
  H   H18       1.0  0.92119  0.5317900000000001  0.94344  1.0000
  H   H19       1.0  0.7211799999999998  0.5221999999999998  0.82568  1.0000
  H   H20       1.0  0.7490600000000001  0.69477  0.76512  1.0000
  H   H21       1.0  0.024439999999999948  0.12908999999999995  0.39561000000000013  1.0000
  H   H22       1.0  0.9550700000000001  0.9752599999999999  0.39226000000000005  1.0000
  H   H23       1.0  0.24861  0.013260000000000001  0.27178  1.0000
  H   H24       1.0  0.29259  0.027650000000000015  0.40435  1.0000
  C   C1        1.0  0.4337599999999998  0.41577  0.73565  1.0000
  C   C2        1.0  0.28362  0.39092  0.85126  1.0000
  C   C3        1.0  0.3140199999999999  0.38802  0.9726000000000001  1.0000
  C   C4        1.0  0.15439999999999998  0.38474  0.08245000000000001  1.0000
  C   C5        1.0  0.19071999999999995  0.39592999999999995  0.19788000000000006  1.0000
  C   C6        1.0  0.04646999999999999  0.41658  0.30617  1.0000
  C   C7        1.0  0.9683  0.97828  0.57171  1.0000
  C   C8        1.0  0.79025  0.01708000000000001  0.62701  1.0000
  C   C9        1.0  0.76522  0.16567999999999997  0.59535  1.0000
  C   C10       1.0  0.56589  0.58606  0.26272  1.0000
  C   C11       1.0  0.7175  0.60937  0.14818  1.0000
  C   C12       1.0  0.68659  0.61212  0.0272  1.0000
  C   C13       1.0  0.84553  0.6153499999999998  0.9172600000000001  1.0000
  C   C14       1.0  0.80813  0.6042499999999998  0.8023700000000001  1.0000
  C   C15       1.0  0.95314  0.5843899999999999  0.6943600000000001  1.0000
  C   C16       1.0  0.03202  0.02061000000000001  0.4287  1.0000
  C   C17       1.0  0.20968  0.98071  0.37420000000000003  1.0000
  C   C18       1.0  0.23222999999999996  0.83228  0.40633000000000014  1.0000
  O   O1        1.0  0.41682  0.45326  0.62674  1.0000
  O   O2        1.0  0.5754999999999999  0.4009499999999999  0.74428  1.0000
  O   O3        1.0  0.9019200000000002  0.38970999999999995  0.31644000000000005  1.0000
  O   O4        1.0  0.07307999999999998  0.4596199999999999  0.39138000000000006  1.0000
  O   O5        1.0  0.86896  0.2437099999999999  0.6009800000000001  1.0000
  O   O6        1.0  0.6452200000000001  0.21474999999999997  0.55962  1.0000
  O   O7        1.0  0.57932  0.54879  0.37297  1.0000
  O   O8        1.0  0.4252099999999999  0.60163  0.2520800000000001  1.0000
  O   O9        1.0  0.09700999999999996  0.61149  0.68493  1.0000
  O   O10       1.0  0.9272300000000002  0.54185  0.60862  1.0000
  O   O11       1.0  0.12706000000000006  0.7555499999999999  0.40131000000000006  1.0000
  O   O12       1.0  0.35310999999999987  0.7830399999999998  0.4405900000000001  1.0000
