data_image0
_chemical_formula_structural       Zn5H10C16O18
_chemical_formula_sum              "Zn5 H10 C16 O18"
_cell_length_a       8.95237
_cell_length_b       9.99559
_cell_length_c       9.89303
_cell_angle_alpha    78.43095
_cell_angle_beta     85.78201
_cell_angle_gamma    88.0873

_space_group_name_H-M_alt    "P 1"
_space_group_IT_number       1

loop_
  _space_group_symop_operation_xyz
  'x, y, z'

loop_
  _atom_site_type_symbol
  _atom_site_label
  _atom_site_symmetry_multiplicity
  _atom_site_fract_x
  _atom_site_fract_y
  _atom_site_fract_z
  _atom_site_occupancy
  Zn  Zn1       1.0  0.7664100000000003  0.6890899999999999  0.8176100000000001  1.0000
  Zn  Zn2       1.0  0.69809  0.36285999999999996  0.9030000000000002  1.0000
  Zn  Zn3       1.0  0.23371000000000003  0.31094  0.18244  1.0000
  Zn  Zn4       1.0  0.30164  0.63711  0.09696  1.0000
  Zn  Zn5       1.0  0.99943  0.49898  0.00059  1.0000
  H   H1        1.0  0.70601  0.54042  0.0519  1.0000
  H   H2        1.0  0.88182  0.6009  0.4288  1.0000
  H   H3        1.0  0.8824700000000001  0.9651299999999999  0.90597  1.0000
  H   H4        1.0  0.46811  0.6546699999999999  0.48653  1.0000
  H   H5        1.0  0.37028  0.91351  0.07965000000000001  1.0000
  H   H6        1.0  0.29379  0.45958999999999994  0.9481200000000001  1.0000
  H   H7        1.0  0.11819999999999999  0.39911  0.5712300000000001  1.0000
  H   H8        1.0  0.11749  0.034820000000000004  0.094  1.0000
  H   H9        1.0  0.53188  0.3453399999999999  0.51346  1.0000
  H   H10       1.0  0.6297  0.08647999999999997  0.9203600000000001  1.0000
  C   C1        1.0  0.011149999999999998  0.46334  0.31474  1.0000
  C   C2        1.0  0.96687  0.5197599999999999  0.44025000000000003  1.0000
  C   C3        1.0  0.048309999999999985  0.81133  0.9930600000000002  1.0000
  C   C4        1.0  0.9767100000000001  0.9496099999999998  0.97102  1.0000
  C   C5        1.0  0.58817  0.53915  0.65977  1.0000
  C   C6        1.0  0.51001  0.55298  0.53044  1.0000
  C   C7        1.0  0.5524  0.8211499999999999  0.9641100000000001  1.0000
  C   C8        1.0  0.47370000000000007  0.9361699999999998  0.015360000000000002  1.0000
  C   C9        1.0  0.98882  0.53662  0.68537  1.0000
  C   C10       1.0  0.03316  0.48025999999999996  0.55981  1.0000
  C   C11       1.0  0.9516  0.18848  0.0069500000000000004  1.0000
  C   C12       1.0  0.02325  0.05028  0.02894  1.0000
  C   C13       1.0  0.4118200000000002  0.46086999999999984  0.34023000000000003  1.0000
  C   C14       1.0  0.48999000000000004  0.44704  0.46956  1.0000
  C   C15       1.0  0.44756000000000007  0.17881  0.03591  1.0000
  C   C16       1.0  0.52627  0.06381999999999997  0.9846500000000001  1.0000
  O   O1        1.0  0.76918  0.5195799999999999  0.9739100000000002  1.0000
  O   O2        1.0  0.9694600000000001  0.53331  0.20073000000000002  1.0000
  O   O3        1.0  0.09024  0.35265999999999986  0.32933000000000007  1.0000
  O   O4        1.0  0.99344  0.72175  0.9364200000000001  1.0000
  O   O5        1.0  0.16234000000000007  0.7927999999999998  0.06702  1.0000
  O   O6        1.0  0.59295  0.6468900000000001  0.709  1.0000
  O   O7        1.0  0.64379  0.421  0.71159  1.0000
  O   O8        1.0  0.67194  0.84669  0.8847900000000001  1.0000
  O   O9        1.0  0.50158  0.69996  0.00212  1.0000
  O   O10       1.0  0.23060000000000003  0.48034  0.02615  1.0000
  O   O11       1.0  0.030409999999999996  0.46663  0.79938  1.0000
  O   O12       1.0  0.90972  0.64732  0.6707  1.0000
  O   O13       1.0  0.006500000000000001  0.27792  0.06385  1.0000
  O   O14       1.0  0.8376400000000002  0.20723999999999998  0.93297  1.0000
  O   O15       1.0  0.40705  0.35308  0.29105000000000003  1.0000
  O   O16       1.0  0.3562  0.57899  0.28837  1.0000
  O   O17       1.0  0.3280300000000001  0.15329  0.11523  1.0000
  O   O18       1.0  0.49836  0.30001999999999995  0.99794  1.0000
