data_image0
_chemical_formula_structural       U5P8H8C4O24
_chemical_formula_sum              "U5 P8 H8 C4 O24"
_cell_length_a       9.465
_cell_length_b       11.315310000000002
_cell_length_c       11.356660000000002
_cell_angle_alpha    79.30277
_cell_angle_beta     65.7332
_cell_angle_gamma    79.8275

_space_group_name_H-M_alt    "P 1"
_space_group_IT_number       1

loop_
  _space_group_symop_operation_xyz
  'x, y, z'

loop_
  _atom_site_type_symbol
  _atom_site_label
  _atom_site_symmetry_multiplicity
  _atom_site_fract_x
  _atom_site_fract_y
  _atom_site_fract_z
  _atom_site_occupancy
  U   U1        1.0  0.6959800000000002  0.44269999999999987  0.05468  1.0000
  U   U2        1.0  0.28347  0.96402  0.02472  1.0000
  U   U3        1.0  0.30336  0.55711  0.94551  1.0000
  U   U4        1.0  0.7193299999999999  0.035300000000000005  0.97232  1.0000
  U   U5        1.0  0.9993900000000002  0.4999  0.49983999999999995  1.0000
  P   P1        1.0  0.6377499999999997  0.61514  0.76176  1.0000
  P   P2        1.0  0.5557600000000003  0.75051  0.9826099999999998  1.0000
  P   P3        1.0  0.012889999999999985  0.20660999999999996  0.95412  1.0000
  P   P4        1.0  0.07824000000000014  0.46138  0.7888199999999997  1.0000
  P   P5        1.0  0.36139  0.3848700000000001  0.23862999999999995  1.0000
  P   P6        1.0  0.44521999999999995  0.25043  0.017919999999999995  1.0000
  P   P7        1.0  0.98739  0.79365  0.04582  1.0000
  P   P8        1.0  0.9213400000000002  0.53858  0.21059999999999998  1.0000
  H   H1        1.0  0.7990700000000002  0.73846  0.79702  1.0000
  H   H2        1.0  0.6449300000000001  0.8270899999999999  0.75418  1.0000
  H   H3        1.0  0.24226  0.27602999999999994  0.77932  1.0000
  H   H4        1.0  0.08918000000000012  0.26871  0.7280599999999998  1.0000
  H   H5        1.0  0.20072  0.26113  0.20259999999999997  1.0000
  H   H6        1.0  0.35477000000000003  0.17268000000000003  0.24606999999999998  1.0000
  H   H7        1.0  0.7570000000000001  0.7242  0.22056  1.0000
  H   H8        1.0  0.9107700000000001  0.7307599999999999  0.27148  1.0000
  C   C1        1.0  0.6761699999999999  0.7451199999999999  0.81123  1.0000
  C   C2        1.0  0.11699  0.2979699999999999  0.80229  1.0000
  C   C3        1.0  0.32337999999999995  0.25452  0.18896  1.0000
  C   C4        1.0  0.8824200000000002  0.7021399999999998  0.19716999999999996  1.0000
  O   O1        1.0  0.38436000000000003  0.74329  0.0015899999999999996  1.0000
  O   O2        1.0  0.62304  0.6537599999999999  0.06305  1.0000
  O   O3        1.0  0.20046000000000014  0.51177  0.8144299999999998  1.0000
  O   O4        1.0  0.55024  0.88218  0.010969999999999999  1.0000
  O   O5        1.0  0.9090200000000002  0.49990999999999997  0.8796199999999998  1.0000
  O   O6        1.0  0.61273  0.51199  0.87748  1.0000
  O   O7        1.0  0.87975  0.2838  0.04898999999999999  1.0000
  O   O8        1.0  0.13193000000000002  0.1435  0.01247  1.0000
  O   O9        1.0  0.47863000000000017  0.64339  0.74954  1.0000
  O   O10       1.0  0.9468999999999997  0.11462000000000001  0.90963  1.0000
  O   O11       1.0  0.7737500000000003  0.58652  0.6327699999999999  1.0000
  O   O12       1.0  0.09823  0.5011  0.64337  1.0000
  O   O13       1.0  0.61554  0.25979  0.00089  1.0000
  O   O14       1.0  0.37748  0.34893  0.9383299999999999  1.0000
  O   O15       1.0  0.7987500000000001  0.4878  0.18553  1.0000
  O   O16       1.0  0.45268000000000025  0.11943999999999998  0.98725  1.0000
  O   O17       1.0  0.09031000000000007  0.49964  0.11986  1.0000
  O   O18       1.0  0.38625  0.4881  0.12318  1.0000
  O   O19       1.0  0.12194  0.7154300000000001  0.9518699999999999  1.0000
  O   O20       1.0  0.87041  0.85597  0.9851899999999999  1.0000
  O   O21       1.0  0.5203100000000002  0.35701  0.25103  1.0000
  O   O22       1.0  0.054029999999999974  0.88589  0.08897  1.0000
  O   O23       1.0  0.22490000000000004  0.414  0.36741  1.0000
  O   O24       1.0  0.9008000000000004  0.49906  0.35619999999999996  1.0000
