data_image0
_chemical_formula_structural       Tb2H24C24N6O18
_chemical_formula_sum              "Tb2 H24 C24 N6 O18"
_cell_length_a       7.89702
_cell_length_b       12.24372
_cell_length_c       13.38701
_cell_angle_alpha    112.67724999999999
_cell_angle_beta     105.01094999999998
_cell_angle_gamma    91.85887

_symmetry_space_group_name_H-M    'P 1'
_symmetry_Int_Tables_number       1

loop_
  _symmetry_equiv_pos_as_xyz
  'x,y,z'

loop_
  _atom_site_type_symbol
  _atom_site_label
  _atom_site_symmetry_multiplicity
  _atom_site_fract_x
  _atom_site_fract_y
  _atom_site_fract_z
  _atom_site_occupancy
  Tb  Tb1       1.0  0.24571  0.9934499999999998  0.01001  1.0000
  Tb  Tb2       1.0  0.7537000000000003  0.007320000000000021  0.99023  1.0000
  H   H1        1.0  0.010710000000000013  0.60609  0.64576  1.0000
  H   H2        1.0  0.13791  0.59809  0.77368  1.0000
  H   H3        1.0  0.8505000000000003  0.58748  0.8261300000000001  1.0000
  H   H4        1.0  0.73751  0.61542  0.7083900000000001  1.0000
  H   H5        1.0  0.5527100000000005  0.2811  0.3991  1.0000
  H   H6        1.0  0.56154  0.1416  0.4133  1.0000
  H   H7        1.0  0.77377  0.23140999999999995  0.28868  1.0000
  H   H8        1.0  0.79777  0.09948999999999997  0.31385  1.0000
  H   H9        1.0  0.20484  0.23375  0.78033  1.0000
  H   H10       1.0  0.08801000000000002  0.10057  0.66109  1.0000
  H   H11       1.0  0.94302  0.24972999999999998  0.85716  1.0000
  H   H12       1.0  0.8294700000000003  0.11398  0.74331  1.0000
  H   H13       1.0  0.98946  0.39384  0.35403  1.0000
  H   H14       1.0  0.8620600000000003  0.40166  0.2261  1.0000
  H   H15       1.0  0.15010000000000007  0.41301  0.17405  1.0000
  H   H16       1.0  0.26256  0.3845499999999999  0.29159  1.0000
  H   H17       1.0  0.44691  0.7187599999999998  0.60056  1.0000
  H   H18       1.0  0.43843000000000004  0.8583  0.58648  1.0000
  H   H19       1.0  0.22639000000000004  0.76877  0.7112000000000002  1.0000
  H   H20       1.0  0.20191000000000006  0.9002699999999998  0.68578  1.0000
  H   H21       1.0  0.79496  0.7661299999999998  0.21916  1.0000
  H   H22       1.0  0.91218  0.8992999999999997  0.33873  1.0000
  H   H23       1.0  0.05707000000000002  0.75051  0.14241  1.0000
  H   H24       1.0  0.17051  0.88603  0.25653  1.0000
  C   C1        1.0  0.836  0.3943  0.55183  1.0000
  C   C2        1.0  0.86126  0.19740999999999995  0.56178  1.0000
  C   C3        1.0  0.035459999999999985  0.3816699999999999  0.7220899999999999  1.0000
  C   C4        1.0  0.006280000000000026  0.57652  0.71249  1.0000
  C   C5        1.0  0.8677400000000002  0.63126  0.77059  1.0000
  C   C6        1.0  0.91518  0.7642499999999999  0.8453899999999999  1.0000
  C   C7        1.0  0.63626  0.21292  0.40508  1.0000
  C   C8        1.0  0.7045200000000003  0.16136999999999999  0.30158  1.0000
  C   C9        1.0  0.5574100000000002  0.08963999999999997  0.19507999999999998  1.0000
  C   C10       1.0  0.07366999999999999  0.18494999999999995  0.72569  1.0000
  C   C11       1.0  0.9621500000000001  0.1633699999999999  0.79614  1.0000
  C   C12       1.0  0.05028  0.09668999999999997  0.86432  1.0000
  C   C13       1.0  0.16392000000000004  0.6056599999999998  0.44787  1.0000
  C   C14       1.0  0.13820000000000005  0.80243  0.43787  1.0000
  C   C15       1.0  0.9644100000000002  0.61804  0.27741  1.0000
  C   C16       1.0  0.9937100000000002  0.42347  0.28732  1.0000
  C   C17       1.0  0.13244000000000003  0.36902  0.22937  1.0000
  C   C18       1.0  0.08481  0.23614999999999994  0.15462  1.0000
  C   C19       1.0  0.36358  0.7870699999999999  0.5947  1.0000
  C   C20       1.0  0.29561000000000004  0.8387699999999999  0.6983100000000001  1.0000
  C   C21       1.0  0.4426600000000001  0.91051  0.80491  1.0000
  C   C22       1.0  0.9261200000000003  0.81488  0.27395  1.0000
  C   C23       1.0  0.03781999999999999  0.8366699999999999  0.20369  1.0000
  C   C24       1.0  0.9500900000000001  0.9037099999999998  0.13578  1.0000
  N   N1        1.0  0.9624400000000001  0.4450499999999999  0.65811  1.0000
  N   N2        1.0  0.9909100000000001  0.25717  0.66579  1.0000
  N   N3        1.0  0.7833100000000002  0.27094  0.51043  1.0000
  N   N4        1.0  0.037380000000000004  0.55487  0.3416100000000001  1.0000
  N   N5        1.0  0.008879999999999994  0.7425299999999999  0.33369  1.0000
  N   N6        1.0  0.21658000000000002  0.72903  0.48924000000000006  1.0000
  O   O1        1.0  0.77332  0.45413999999999993  0.49969  1.0000
  O   O2        1.0  0.13355000000000006  0.4309599999999999  0.81945  1.0000
  O   O3        1.0  0.8169700000000002  0.08849  0.5189  1.0000
  O   O4        1.0  0.79016  0.8170999999999998  0.87685  1.0000
  O   O5        1.0  0.07556  0.8131599999999999  0.87383  1.0000
  O   O6        1.0  0.9584300000000002  0.051669999999999966  0.90974  1.0000
  O   O7        1.0  0.21321  0.08598999999999994  0.87906  1.0000
  O   O8        1.0  0.5589200000000001  0.09576999999999997  0.10023  1.0000
  O   O9        1.0  0.43147000000000013  0.02463  0.19654000000000002  1.0000
  O   O10       1.0  0.22657000000000005  0.5459  0.5001  1.0000
  O   O11       1.0  0.8664100000000002  0.56856  0.18001  1.0000
  O   O12       1.0  0.18166000000000004  0.91143  0.48091  1.0000
  O   O13       1.0  0.20984000000000005  0.18344999999999995  0.123  1.0000
  O   O14       1.0  0.9245500000000002  0.18716  0.1265  1.0000
  O   O15       1.0  0.042169999999999985  0.9487399999999998  0.09056999999999998  1.0000
  O   O16       1.0  0.7872600000000001  0.91467  0.12102  1.0000
  O   O17       1.0  0.4409300000000001  0.90431  0.89967  1.0000
  O   O18       1.0  0.56861  0.97563  0.80351  1.0000
