data_image0
_chemical_formula_structural       Cu4H16C24N20
_chemical_formula_sum              "Cu4 H16 C24 N20"
_cell_length_a       4.40673
_cell_length_b       9.69141
_cell_length_c       17.72371
_cell_angle_alpha    89.99485
_cell_angle_beta     90.00091999999998
_cell_angle_gamma    104.18768

_space_group_name_H-M_alt    "P 1"
_space_group_IT_number       1

loop_
  _space_group_symop_operation_xyz
  'x, y, z'

loop_
  _atom_site_type_symbol
  _atom_site_label
  _atom_site_symmetry_multiplicity
  _atom_site_fract_x
  _atom_site_fract_y
  _atom_site_fract_z
  _atom_site_occupancy
  Cu  Cu1       1.0  0.83788  0.60491  0.56076  1.0000
  Cu  Cu2       1.0  0.1619399999999999  0.89525  0.06077  1.0000
  Cu  Cu3       1.0  0.16212  0.39509  0.43924  1.0000
  Cu  Cu4       1.0  0.8380599999999999  0.10475  0.93923  1.0000
  H   H1        1.0  0.70094  0.16602  0.66079  1.0000
  H   H2        1.0  0.91889  0.08481  0.77979  1.0000
  H   H3        1.0  0.18616  0.38978  0.80142  1.0000
  H   H4        1.0  0.42707  0.3009  0.9148599999999999  1.0000
  H   H5        1.0  0.29844  0.33378  0.16085  1.0000
  H   H6        1.0  0.08077999999999999  0.4151  0.27977  1.0000
  H   H7        1.0  0.81362  0.11015  0.30144  1.0000
  H   H8        1.0  0.57306  0.19912  0.4149  1.0000
  H   H9        1.0  0.29906  0.83399  0.3392  1.0000
  H   H10       1.0  0.08111000000000007  0.9151900000000001  0.22021  1.0000
  H   H11       1.0  0.8138399999999998  0.6102199999999999  0.19857000000000002  1.0000
  H   H12       1.0  0.57293  0.6991  0.08513  1.0000
  H   H13       1.0  0.70157  0.66622  0.83914  1.0000
  H   H14       1.0  0.9192200000000001  0.5849  0.72023  1.0000
  H   H15       1.0  0.1863800000000001  0.8898500000000001  0.69855  1.0000
  H   H16       1.0  0.4269499999999999  0.8008799999999999  0.5851  1.0000
  C   C1        1.0  0.27862  0.32843  0.6577  1.0000
  C   C2        1.0  0.42622  0.28338  0.72211  1.0000
  C   C3        1.0  0.64445  0.20282  0.71563  1.0000
  C   C4        1.0  0.77768  0.16207  0.7812900000000002  1.0000
  C   C5        1.0  0.3316  0.31536  0.79513  1.0000
  C   C6        1.0  0.47785999999999995  0.2724  0.85781  1.0000
  C   C7        1.0  0.72089  0.17146  0.1577  1.0000
  C   C8        1.0  0.57352  0.2165  0.22212  1.0000
  C   C9        1.0  0.35512  0.29707  0.21567  1.0000
  C   C10       1.0  0.22212  0.33785  0.28132  1.0000
  C   C11       1.0  0.6681299999999999  0.18457  0.29515  1.0000
  C   C12       1.0  0.52214  0.22756999999999997  0.35783  1.0000
  C   C13       1.0  0.72138  0.67157  0.3423  1.0000
  C   C14       1.0  0.57378  0.71662  0.27789  1.0000
  C   C15       1.0  0.35555  0.79718  0.28436  1.0000
  C   C16       1.0  0.22231999999999996  0.83793  0.21871  1.0000
  C   C17       1.0  0.6684  0.68465  0.20487000000000005  1.0000
  C   C18       1.0  0.5221399999999999  0.7275999999999999  0.14219  1.0000
  C   C19       1.0  0.27910999999999997  0.82855  0.8423  1.0000
  C   C20       1.0  0.42649  0.7835  0.77787  1.0000
  C   C21       1.0  0.64489  0.70293  0.78433  1.0000
  C   C22       1.0  0.77789  0.66215  0.71867  1.0000
  C   C23       1.0  0.33187  0.81543  0.7048500000000002  1.0000
  C   C24       1.0  0.47787  0.77243  0.64217  1.0000
  N   N1        1.0  0.31291  0.29104  0.58455  1.0000
  N   N2        1.0  0.1346  0.35828  0.5456800000000002  1.0000
  N   N3        1.0  0.99311  0.43444  0.59325  1.0000
  N   N4        1.0  0.08209  0.41498  0.66365  1.0000
  N   N5        1.0  0.69397  0.19595  0.85164  1.0000
  N   N6        1.0  0.6865  0.20875  0.08453000000000001  1.0000
  N   N7        1.0  0.86471  0.14144  0.04569  1.0000
  N   N8        1.0  0.006250000000000005  0.06535  0.09328  1.0000
  N   N9        1.0  0.91743  0.0849  0.16368  1.0000
  N   N10       1.0  0.30604  0.30407  0.35166  1.0000
  N   N11       1.0  0.68709  0.70897  0.41545  1.0000
  N   N12       1.0  0.8653999999999998  0.64172  0.45431  1.0000
  N   N13       1.0  0.006900000000000028  0.56556  0.40675  1.0000
  N   N14       1.0  0.91791  0.58502  0.33635  1.0000
  N   N15       1.0  0.30603  0.80405  0.14836  1.0000
  N   N16       1.0  0.3135  0.79125  0.91546  1.0000
  N   N17       1.0  0.13528999999999988  0.85856  0.9543100000000001  1.0000
  N   N18       1.0  0.9937499999999999  0.9346500000000001  0.90672  1.0000
  N   N19       1.0  0.08256999999999999  0.9151  0.83632  1.0000
  N   N20       1.0  0.69397  0.69593  0.64834  1.0000
