data_image0
_chemical_formula_structural       Ce4H24C24O30
_chemical_formula_sum              "Ce4 H24 C24 O30"
_cell_length_a       9.52588
_cell_length_b       9.53995
_cell_length_c       17.315429999999996
_cell_angle_alpha    90.00371
_cell_angle_beta     89.99955
_cell_angle_gamma    120.24345000000001

_space_group_name_H-M_alt    "P 1"
_space_group_IT_number       1

loop_
  _space_group_symop_operation_xyz
  'x, y, z'

loop_
  _atom_site_type_symbol
  _atom_site_label
  _atom_site_symmetry_multiplicity
  _atom_site_fract_x
  _atom_site_fract_y
  _atom_site_fract_z
  _atom_site_occupancy
  Ce  Ce1       1.0  0.6664399999999999  0.3328300000000001  0.24974  1.0000
  Ce  Ce2       1.0  0.33184  0.66552  0.74995  1.0000
  Ce  Ce3       1.0  0.99932  0.9983299999999999  0.00085  1.0000
  Ce  Ce4       1.0  0.99962  0.9989  0.50106  1.0000
  H   H1        1.0  0.43423  0.01742  0.08526  1.0000
  H   H2        1.0  0.50818  0.18279  0.01925  1.0000
  H   H3        1.0  0.9827399999999998  0.41704  0.08529  1.0000
  H   H4        1.0  0.8174499999999998  0.32519  0.01922  1.0000
  H   H5        1.0  0.58272  0.56538  0.0853  1.0000
  H   H6        1.0  0.67452  0.49195000000000005  0.01923  1.0000
  H   H7        1.0  0.43473  0.017520000000000004  0.4148  1.0000
  H   H8        1.0  0.50867  0.18286  0.48075000000000007  1.0000
  H   H9        1.0  0.9827399999999998  0.41745  0.41472000000000003  1.0000
  H   H10       1.0  0.81714  0.32544  0.48066  1.0000
  H   H11       1.0  0.58211  0.56498  0.41482  1.0000
  H   H12       1.0  0.6739199999999999  0.49151  0.48089000000000004  1.0000
  H   H13       1.0  0.017309999999999985  0.43416000000000005  0.9148  1.0000
  H   H14       1.0  0.18289999999999995  0.50841  0.9806600000000001  1.0000
  H   H15       1.0  0.41746000000000005  0.9830800000000001  0.9148600000000002  1.0000
  H   H16       1.0  0.3254  0.81761  0.9808400000000002  1.0000
  H   H17       1.0  0.5658  0.58281  0.9148300000000001  1.0000
  H   H18       1.0  0.4920399999999999  0.67432  0.98093  1.0000
  H   H19       1.0  0.017590000000000022  0.4348000000000001  0.5853  1.0000
  H   H20       1.0  0.18305999999999997  0.50881  0.51931  1.0000
  H   H21       1.0  0.41781  0.98279  0.58528  1.0000
  H   H22       1.0  0.3259  0.81753  0.51921  1.0000
  H   H23       1.0  0.56495  0.58227  0.58528  1.0000
  H   H24       1.0  0.4912099999999999  0.67378  0.51915  1.0000
  C   C1        1.0  0.3495899999999999  0.18553  0.10674  1.0000
  C   C2        1.0  0.40032999999999996  0.09439  0.05206  1.0000
  C   C3        1.0  0.8142599999999999  0.16387  0.10679  1.0000
  C   C4        1.0  0.9055999999999998  0.30588  0.05196  1.0000
  C   C5        1.0  0.83601  0.64998  0.10700000000000001  1.0000
  C   C6        1.0  0.69389  0.59933  0.05207  1.0000
  C   C7        1.0  0.34948  0.18514  0.39347  1.0000
  C   C8        1.0  0.40077  0.09436  0.44801  1.0000
  C   C9        1.0  0.8145599999999998  0.1641  0.39333  1.0000
  C   C10       1.0  0.9055499999999999  0.30631  0.4480400000000001  1.0000
  C   C11       1.0  0.83577  0.65031  0.39347  1.0000
  C   C12       1.0  0.69317  0.59891  0.4480900000000001  1.0000
  C   C13       1.0  0.18576  0.34982  0.8932500000000001  1.0000
  C   C14       1.0  0.09447  0.40043  0.94799  1.0000
  C   C15       1.0  0.16387999999999997  0.81408  0.89324  1.0000
  C   C16       1.0  0.3061299999999999  0.90567  0.94811  1.0000
  C   C17       1.0  0.65015  0.83589  0.89333  1.0000
  C   C18       1.0  0.59952  0.69372  0.94807  1.0000
  C   C19       1.0  0.18528999999999998  0.34983  0.60655  1.0000
  C   C20       1.0  0.09441  0.40087  0.55195  1.0000
  C   C21       1.0  0.16428000000000004  0.8141700000000002  0.60661  1.0000
  C   C22       1.0  0.3066099999999999  0.90567  0.55188  1.0000
  C   C23       1.0  0.6495499999999996  0.83525  0.6067100000000002  1.0000
  C   C24       1.0  0.59875  0.69311  0.55198  1.0000
  O   O1        1.0  0.45149999999999996  0.26539  0.16007  1.0000
  O   O2        1.0  0.216  0.17919  0.09525  1.0000
  O   O3        1.0  0.73483  0.18574  0.16018000000000002  1.0000
  O   O4        1.0  0.8204  0.03656  0.0954  1.0000
  O   O5        1.0  0.81331  0.54815  0.16027  1.0000
  O   O6        1.0  0.96411  0.7836  0.09586000000000001  1.0000
  O   O7        1.0  0.4508999999999999  0.26475  0.3398700000000001  1.0000
  O   O8        1.0  0.21601999999999996  0.17854  0.40557  1.0000
  O   O9        1.0  0.73508  0.18591  0.33981  1.0000
  O   O10       1.0  0.8211799999999999  0.03739  0.40504  1.0000
  O   O11       1.0  0.8140199999999996  0.54922  0.3399  1.0000
  O   O12       1.0  0.9630899999999999  0.78403  0.40569  1.0000
  O   O13       1.0  0.26589  0.4522  0.8401  1.0000
  O   O14       1.0  0.17955  0.21652  0.90419  1.0000
  O   O15       1.0  0.1858  0.73358  0.84037  1.0000
  O   O16       1.0  0.03698999999999998  0.82123  0.9039600000000002  1.0000
  O   O17       1.0  0.5477  0.81363  0.84028  1.0000
  O   O18       1.0  0.7843199999999999  0.96324  0.90486  1.0000
  O   O19       1.0  0.26559  0.45139  0.6599200000000002  1.0000
  O   O20       1.0  0.17852  0.21627  0.59513  1.0000
  O   O21       1.0  0.18557  0.73377  0.65975  1.0000
  O   O22       1.0  0.03738000000000002  0.8211  0.59543  1.0000
  O   O23       1.0  0.54771  0.81344  0.65998  1.0000
  O   O24       1.0  0.7836499999999998  0.96257  0.5950700000000001  1.0000
  O   O25       1.0  0.2702899999999999  0.99972  0.9999900000000002  1.0000
  O   O26       1.0  0.9999699999999999  0.2703900000000001  8.000000000000003e-05  1.0000
  O   O27       1.0  0.72988  0.72957  0.00012  1.0000
  O   O28       1.0  0.2708100000000001  0.9997300000000001  0.50011  1.0000
  O   O29       1.0  0.9997899999999996  0.27089  0.49999000000000005  1.0000
  O   O30       1.0  0.7289599999999998  0.72893  0.5000500000000002  1.0000
