data_image0
_chemical_formula_structural       Zn2H32C41N4O14
_chemical_formula_sum              "Zn2 H32 C41 N4 O14"
_cell_length_a       9.4307
_cell_length_b       10.40433
_cell_length_c       11.97486
_cell_angle_alpha    99.86244
_cell_angle_beta     90.82858
_cell_angle_gamma    89.12125999999999

_symmetry_space_group_name_H-M    'P 1'
_symmetry_Int_Tables_number       1

loop_
  _symmetry_equiv_pos_as_xyz
  'x,y,z'

loop_
  _atom_site_type_symbol
  _atom_site_label
  _atom_site_symmetry_multiplicity
  _atom_site_fract_x
  _atom_site_fract_y
  _atom_site_fract_z
  _atom_site_occupancy
  Zn  Zn1       1.0  0.62399  0.50377  0.99631  1.0000
  Zn  Zn2       1.0  0.96794  0.9960699999999998  0.50808  1.0000
  H   H1        1.0  0.7959799999999999  0.18197999999999998  0.38945  1.0000
  H   H2        1.0  0.59592  0.17089000000000001  0.25089000000000006  1.0000
  H   H3        1.0  0.62572  0.74997  0.20986000000000005  1.0000
  H   H4        1.0  0.82554  0.77913  0.35326  1.0000
  H   H5        1.0  0.50033  0.11945  0.08127  1.0000
  H   H6        1.0  0.36101  0.09485  0.1748  1.0000
  H   H7        1.0  0.30763999999999997  0.79507  0.023230000000000004  1.0000
  H   H8        1.0  0.19848999999999994  0.9108699999999997  0.11383  1.0000
  H   H9        1.0  0.9029599999999999  0.8393999999999998  0.82334  1.0000
  H   H10       1.0  0.69162  0.70591  0.8565800000000002  1.0000
  H   H11       1.0  0.8865299999999999  0.59075  0.13588  1.0000
  H   H12       1.0  0.09838  0.72159  0.1201  1.0000
  H   H13       1.0  0.33403999999999995  0.29799  0.7493000000000001  1.0000
  H   H14       1.0  0.9544199999999999  0.41701  0.5871100000000001  1.0000
  H   H15       1.0  0.23802  0.70627  0.7598  1.0000
  H   H16       1.0  0.78396  0.8103199999999999  0.61247  1.0000
  H   H17       1.0  0.57938  0.8245699999999999  0.74235  1.0000
  H   H18       1.0  0.61401  0.24515999999999993  0.7926700000000001  1.0000
  H   H19       1.0  0.81793  0.21301999999999996  0.65784  1.0000
  H   H20       1.0  0.50345  0.8798099999999999  0.9182100000000002  1.0000
  H   H21       1.0  0.35556999999999994  0.8956599999999998  0.8271600000000001  1.0000
  H   H22       1.0  0.29576  0.19923  0.97696  1.0000
  H   H23       1.0  0.18939999999999993  0.08134  0.88699  1.0000
  H   H24       1.0  0.90581  0.17019999999999996  0.18225000000000005  1.0000
  H   H25       1.0  0.6927999999999999  0.30789  0.14549000000000004  1.0000
  H   H26       1.0  0.8755700000000001  0.40253999999999995  0.8586800000000002  1.0000
  H   H27       1.0  0.08646  0.26428999999999997  0.8763200000000001  1.0000
  H   H28       1.0  0.3319699999999999  0.70667  0.25809  1.0000
  H   H29       1.0  0.99099  0.56502  0.43878000000000006  1.0000
  H   H30       1.0  0.2559899999999999  0.29420999999999997  0.22096000000000005  1.0000
  H   H31       1.0  0.03279  0.7214499999999998  0.59329  1.0000
  H   H32       1.0  0.05154999999999999  0.28102  0.42233  1.0000
  C   C1        1.0  0.75553  0.08805  0.34797  1.0000
  C   C2        1.0  0.6446799999999999  0.08151999999999997  0.26944  1.0000
  C   C3        1.0  0.59995  0.9578199999999999  0.21568000000000007  1.0000
  C   C4        1.0  0.66366  0.8462599999999999  0.24747  1.0000
  C   C5        1.0  0.7726799999999999  0.86283  0.3266800000000001  1.0000
  C   C6        1.0  0.42523  0.048330000000000005  0.10280000000000003  1.0000
  C   C7        1.0  0.24257999999999996  0.88436  0.028460000000000006  1.0000
  C   C8        1.0  0.017869999999999994  0.79102  0.96818  1.0000
  C   C9        1.0  0.90074  0.7867799999999998  0.89406  1.0000
  C   C10       1.0  0.78531  0.7126999999999999  0.9111700000000003  1.0000
  C   C11       1.0  0.89231  0.64867  0.06848  1.0000
  C   C12       1.0  0.012339999999999997  0.72137  0.05874000000000001  1.0000
  C   C13       1.0  0.43061999999999995  0.54373  0.83212  1.0000
  C   C14       1.0  0.30073  0.50598  0.7604100000000003  1.0000
  C   C15       1.0  0.26530000000000004  0.37461999999999995  0.7267900000000003  1.0000
  C   C16       1.0  0.14134  0.34253999999999996  0.66293  1.0000
  C   C17       1.0  0.05113999999999998  0.4413599999999999  0.63613  1.0000
  C   C18       1.0  0.21104999999999993  0.60461  0.73171  1.0000
  C   C19       1.0  0.10368999999999998  0.20328  0.62302  1.0000
  C   C20       1.0  0.08549999999999996  0.57261  0.6701800000000001  1.0000
  C   C21       1.0  0.74368  0.90502  0.65373  1.0000
  C   C22       1.0  0.63031  0.91305  0.72753  1.0000
  C   C23       1.0  0.58602  0.03721000000000005  0.7821500000000002  1.0000
  C   C24       1.0  0.6512699999999998  0.1481  0.7547  1.0000
  C   C25       1.0  0.76304  0.12995  0.68016  1.0000
  C   C26       1.0  0.4212000000000001  0.9471499999999999  0.8966500000000002  1.0000
  C   C27       1.0  0.23537  0.10896999999999998  0.97233  1.0000
  C   C28       1.0  0.012520000000000002  0.20580999999999994  0.03245000000000001  1.0000
  C   C29       1.0  0.8995599999999998  0.21834999999999993  0.10879000000000003  1.0000
  C   C30       1.0  0.7839799999999998  0.29521  0.08998  1.0000
  C   C31       1.0  0.88411  0.34761999999999993  0.92824  1.0000
  C   C32       1.0  0.003630000000000001  0.27127  0.9391700000000001  1.0000
  C   C33       1.0  0.42956  0.4663599999999999  0.15085  1.0000
  C   C34       1.0  0.30939999999999995  0.49716999999999995  0.23277  1.0000
  C   C35       1.0  0.27278  0.6257399999999999  0.27992000000000006  1.0000
  C   C36       1.0  0.15861  0.6504099999999997  0.35491  1.0000
  C   C37       1.0  0.08069999999999998  0.5460299999999999  0.3821000000000001  1.0000
  C   C38       1.0  0.2302  0.39378  0.2597400000000001  1.0000
  C   C39       1.0  0.11595000000000001  0.7892399999999998  0.3983000000000001  1.0000
  C   C40       1.0  0.11607999999999999  0.4171  0.33398  1.0000
  C   C41       1.0  0.33069999999999994  0.99752  0.00034  1.0000
  N   N1        1.0  0.8206199999999999  0.9815100000000001  0.37591  1.0000
  N   N2        1.0  0.7797  0.6429  0.99668  1.0000
  N   N3        1.0  0.8117899999999998  0.010559999999999986  0.63116  1.0000
  N   N4        1.0  0.77505  0.36041999999999996  0.00137  1.0000
  O   O1        1.0  0.4568499999999999  0.66183  0.8663000000000001  1.0000
  O   O2        1.0  0.50835  0.44780999999999993  0.85723  1.0000
  O   O3        1.0  0.029889999999999996  0.18098  0.52723  1.0000
  O   O4        1.0  0.13632  0.11560999999999999  0.67789  1.0000
  O   O5        1.0  0.1283  0.86282  0.9453000000000003  1.0000
  O   O6        1.0  0.49937999999999994  0.9359499999999997  0.13365  1.0000
  O   O7        1.0  0.99116  0.66536  0.64461  1.0000
  O   O8        1.0  0.45687  0.3503299999999999  0.10718000000000003  1.0000
  O   O9        1.0  0.50008  0.56539  0.12789  1.0000
  O   O10       1.0  0.04309000000000001  0.8124999999999998  0.4935800000000001  1.0000
  O   O11       1.0  0.14316  0.8775999999999999  0.34418  1.0000
  O   O12       1.0  0.12298  0.13032999999999997  0.05527000000000001  1.0000
  O   O13       1.0  0.48483999999999994  0.05950000000000003  0.8615800000000001  1.0000
  O   O14       1.0  0.03325  0.3135899999999999  0.3499500000000001  1.0000
