data_image0
_chemical_formula_structural       Mn5P4H8C8O24
_chemical_formula_sum              "Mn5 P4 H8 C8 O24"
_cell_length_a       5.69483
_cell_length_b       10.60429
_cell_length_c       12.751200000000003
_cell_angle_alpha    81.10561
_cell_angle_beta     83.35072
_cell_angle_gamma    68.36543

_space_group_name_H-M_alt    "P 1"
_space_group_IT_number       1

loop_
  _space_group_symop_operation_xyz
  'x, y, z'

loop_
  _atom_site_type_symbol
  _atom_site_label
  _atom_site_symmetry_multiplicity
  _atom_site_fract_x
  _atom_site_fract_y
  _atom_site_fract_z
  _atom_site_occupancy
  Mn  Mn1       1.0  0.2715699999999999  0.09677  0.42426  1.0000
  Mn  Mn2       1.0  0.50446  0.60278  0.31348  1.0000
  Mn  Mn3       1.0  0.72954  0.9030499999999999  0.57519  1.0000
  Mn  Mn4       1.0  0.49566  0.39741999999999994  0.6862700000000002  1.0000
  Mn  Mn5       1.0  0.99984  0.99913  0.00075  1.0000
  P   P1        1.0  0.5361400000000003  0.8536699999999999  0.1088  1.0000
  P   P2        1.0  0.65904  0.22792999999999997  0.4843  1.0000
  P   P3        1.0  0.46365000000000006  0.14716  0.89174  1.0000
  P   P4        1.0  0.34130000000000005  0.7720599999999999  0.51563  1.0000
  H   H1        1.0  0.71891  0.026489999999999993  0.21533000000000002  1.0000
  H   H2        1.0  0.9403999999999998  0.35579000000000005  0.32637  1.0000
  H   H3        1.0  0.38195  0.09475000000000003  0.10422  1.0000
  H   H4        1.0  0.68354  0.21774  0.29472  1.0000
  H   H5        1.0  0.28025  0.97336  0.78532  1.0000
  H   H6        1.0  0.05957000000000001  0.64429  0.67364  1.0000
  H   H7        1.0  0.6158699999999999  0.90615  0.89662  1.0000
  H   H8        1.0  0.31636999999999993  0.7824  0.70525  1.0000
  C   C1        1.0  0.39180000000000004  0.018670000000000003  0.17536  1.0000
  C   C2        1.0  0.13156999999999996  0.03262000000000002  0.22512  1.0000
  C   C3        1.0  0.61423  0.30306  0.34302  1.0000
  C   C4        1.0  0.33450999999999986  0.3775200000000001  0.32792  1.0000
  C   C5        1.0  0.6082800000000002  0.9809299999999999  0.82471  1.0000
  C   C6        1.0  0.8687099999999998  0.96733  0.77497  1.0000
  C   C7        1.0  0.38580000000000003  0.69703  0.65699  1.0000
  C   C8        1.0  0.66553  0.62254  0.67212  1.0000
  O   O1        1.0  0.36174  0.8800499999999999  0.01599  1.0000
  O   O2        1.0  0.80268  0.8478099999999998  0.07292  1.0000
  O   O3        1.0  0.51198  0.73876  0.19194  1.0000
  O   O4        1.0  0.54366  0.02522  0.24923  1.0000
  O   O5        1.0  0.96554  0.030929999999999992  0.16582  1.0000
  O   O6        1.0  0.07753999999999998  0.04521  0.32269000000000003  1.0000
  O   O7        1.0  0.46832000000000024  0.3320699999999999  0.55181  1.0000
  O   O8        1.0  0.9337600000000001  0.19316999999999998  0.50573  1.0000
  O   O9        1.0  0.58756  0.09586  0.48972  1.0000
  O   O10       1.0  0.7442800000000002  0.39455  0.31305  1.0000
  O   O11       1.0  0.20099999999999998  0.30073  0.33819  1.0000
  O   O12       1.0  0.24385000000000004  0.50559  0.30775  1.0000
  O   O13       1.0  0.6387399999999999  0.12023  0.98405  1.0000
  O   O14       1.0  0.19753000000000004  0.15225  0.927  1.0000
  O   O15       1.0  0.48837  0.26123  0.8079500000000001  1.0000
  O   O16       1.0  0.45605000000000007  0.97487  0.75132  1.0000
  O   O17       1.0  0.03451999999999989  0.96887  0.8344500000000001  1.0000
  O   O18       1.0  0.9222599999999999  0.95518  0.6773700000000001  1.0000
  O   O19       1.0  0.5319000000000002  0.66781  0.44825  1.0000
  O   O20       1.0  0.06660999999999995  0.8067  0.49418000000000006  1.0000
  O   O21       1.0  0.4123399999999999  0.9042200000000002  0.51026  1.0000
  O   O22       1.0  0.25572999999999985  0.60554  0.68698  1.0000
  O   O23       1.0  0.7990400000000001  0.69935  0.66186  1.0000
  O   O24       1.0  0.7561699999999999  0.49449000000000004  0.69227  1.0000
