data_image0
_chemical_formula_structural       Zn4H16C28N12O16
_chemical_formula_sum              "Zn4 H16 C28 N12 O16"
_cell_length_a       9.83968
_cell_length_b       9.61305
_cell_length_c       13.81171
_cell_angle_alpha    101.86487000000001
_cell_angle_beta     90.0
_cell_angle_gamma    90.0

_symmetry_space_group_name_H-M    'P 1'
_symmetry_Int_Tables_number       1

loop_
  _symmetry_equiv_pos_as_xyz
  'x,y,z'

loop_
  _atom_site_type_symbol
  _atom_site_label
  _atom_site_symmetry_multiplicity
  _atom_site_fract_x
  _atom_site_fract_y
  _atom_site_fract_z
  _atom_site_occupancy
  Zn  Zn1       1.0  0.06446  0.9076  0.59938  1.0000
  Zn  Zn2       1.0  0.56446  0.5924  0.40062  1.0000
  Zn  Zn3       1.0  0.93554  0.09240000000000001  0.40062  1.0000
  Zn  Zn4       1.0  0.43554  0.4076  0.59938  1.0000
  H   H1        1.0  0.88226  0.12023000000000007  0.8816200000000002  1.0000
  H   H2        1.0  0.7657  0.38675999999999994  0.1697  1.0000
  H   H3        1.0  0.20084  0.64677  0.6756400000000002  1.0000
  H   H4        1.0  0.30786  0.80547  0.42332  1.0000
  H   H5        1.0  0.38226  0.37977  0.11838000000000003  1.0000
  H   H6        1.0  0.26569  0.11324000000000004  0.8303  1.0000
  H   H7        1.0  0.70084  0.8532299999999999  0.32436  1.0000
  H   H8        1.0  0.80786  0.69453  0.57668  1.0000
  H   H9        1.0  0.11774  0.87977  0.11838000000000003  1.0000
  H   H10       1.0  0.23430000000000004  0.61324  0.8303  1.0000
  H   H11       1.0  0.79916  0.35323  0.32436  1.0000
  H   H12       1.0  0.69214  0.19453  0.57668  1.0000
  H   H13       1.0  0.61774  0.62023  0.8816200000000002  1.0000
  H   H14       1.0  0.73431  0.88676  0.1697  1.0000
  H   H15       1.0  0.29916  0.1467700000000001  0.6756400000000002  1.0000
  H   H16       1.0  0.19214  0.30547  0.42332  1.0000
  C   C1        1.0  0.93375  0.06532000000000003  0.9325500000000001  1.0000
  C   C2        1.0  0.0688  0.938  0.7915600000000002  1.0000
  C   C3        1.0  0.90386  0.10712000000000002  0.03331  1.0000
  C   C4        1.0  0.02998  0.9600600000000001  0.8984100000000003  1.0000
  C   C5        1.0  0.25114  0.66276  0.60898  1.0000
  C   C6        1.0  0.30599  0.7451900000000001  0.4816000000000001  1.0000
  C   C7        1.0  0.80842  0.22922  0.061780000000000015  1.0000
  C   C8        1.0  0.43375  0.43468  0.06745000000000001  1.0000
  C   C9        1.0  0.5688  0.562  0.20844  1.0000
  C   C10       1.0  0.40386  0.39288  0.96669  1.0000
  C   C11       1.0  0.52999  0.53995  0.10159000000000001  1.0000
  C   C12       1.0  0.75114  0.8372400000000001  0.3910200000000001  1.0000
  C   C13       1.0  0.80599  0.75482  0.5184  1.0000
  C   C14       1.0  0.30841  0.27078  0.9382200000000002  1.0000
  C   C15       1.0  0.06625  0.93468  0.06745000000000001  1.0000
  C   C16       1.0  0.9312  0.062  0.20844  1.0000
  C   C17       1.0  0.09613  0.89288  0.96669  1.0000
  C   C18       1.0  0.97002  0.039950000000000006  0.10159000000000001  1.0000
  C   C19       1.0  0.74886  0.33723999999999993  0.3910200000000001  1.0000
  C   C20       1.0  0.69401  0.25481  0.5184  1.0000
  C   C21       1.0  0.1916  0.77078  0.9382200000000002  1.0000
  C   C22       1.0  0.56625  0.56532  0.9325500000000001  1.0000
  C   C23       1.0  0.4312  0.4380000000000001  0.7915600000000002  1.0000
  C   C24       1.0  0.59614  0.60713  0.03331  1.0000
  C   C25       1.0  0.47001000000000004  0.46005000000000007  0.8984100000000003  1.0000
  C   C26       1.0  0.24885999999999997  0.16276  0.60898  1.0000
  C   C27       1.0  0.19401  0.24519  0.4816000000000001  1.0000
  C   C28       1.0  0.69158  0.72922  0.06179000000000001  1.0000
  N   N1        1.0  0.21317  0.76012  0.5557000000000001  1.0000
  N   N2        1.0  0.36103  0.59099  0.56999  1.0000
  N   N3        1.0  0.39649  0.64428  0.48818  1.0000
  N   N4        1.0  0.71317  0.73989  0.4443  1.0000
  N   N5        1.0  0.86104  0.90901  0.4300100000000001  1.0000
  N   N6        1.0  0.8964900000000001  0.85572  0.51182  1.0000
  N   N7        1.0  0.78683  0.23989  0.4443  1.0000
  N   N8        1.0  0.63897  0.40901  0.4300100000000001  1.0000
  N   N9        1.0  0.60351  0.35572  0.51182  1.0000
  N   N10       1.0  0.28683  0.26011000000000006  0.5557000000000001  1.0000
  N   N11       1.0  0.13896  0.09099  0.56999  1.0000
  N   N12       1.0  0.10351  0.14428  0.48818  1.0000
  O   O1        1.0  0.9786100000000001  0.8883600000000001  0.7253100000000002  1.0000
  O   O2        1.0  0.18451  0.97711  0.7670100000000001  1.0000
  O   O3        1.0  0.82682  0.30011  0.15622000000000005  1.0000
  O   O4        1.0  0.72634  0.26413  0.004690000000000001  1.0000
  O   O5        1.0  0.47861  0.61165  0.27469  1.0000
  O   O6        1.0  0.68452  0.52289  0.23299000000000006  1.0000
  O   O7        1.0  0.32682  0.19989000000000007  0.8437800000000002  1.0000
  O   O8        1.0  0.22635  0.23588  0.9953  1.0000
  O   O9        1.0  0.02139  0.11164  0.27469  1.0000
  O   O10       1.0  0.81549  0.022890000000000008  0.23299000000000006  1.0000
  O   O11       1.0  0.17318  0.69989  0.8437800000000002  1.0000
  O   O12       1.0  0.27365  0.7358800000000001  0.9953  1.0000
  O   O13       1.0  0.52139  0.3883600000000001  0.7253100000000002  1.0000
  O   O14       1.0  0.31548  0.4771100000000001  0.7670100000000001  1.0000
  O   O15       1.0  0.67318  0.8001100000000001  0.15622000000000005  1.0000
  O   O16       1.0  0.77367  0.76414  0.004690000000000001  1.0000
