data_image0
_chemical_formula_structural       Fe6H30C30O24
_chemical_formula_sum              "Fe6 H30 C30 O24"
_cell_length_a       6.78865
_cell_length_b       15.484
_cell_length_c       15.332780000000001
_cell_angle_alpha    118.54879999999999
_cell_angle_beta     100.15055000000001
_cell_angle_gamma    97.52162000000001

_symmetry_space_group_name_H-M    'P 1'
_symmetry_Int_Tables_number       1

loop_
  _symmetry_equiv_pos_as_xyz
  'x,y,z'

loop_
  _atom_site_type_symbol
  _atom_site_label
  _atom_site_symmetry_multiplicity
  _atom_site_fract_x
  _atom_site_fract_y
  _atom_site_fract_z
  _atom_site_occupancy
  Fe  Fe1       1.0  0.98628  0.59514  0.27275  1.0000
  Fe  Fe2       1.0  0.6987  0.73578  0.32839  1.0000
  Fe  Fe3       1.0  0.3433400000000001  0.67282  0.39577  1.0000
  Fe  Fe4       1.0  0.013269999999999952  0.40488999999999997  0.7269799999999998  1.0000
  Fe  Fe5       1.0  0.30196  0.26362  0.67247  1.0000
  Fe  Fe6       1.0  0.65494  0.3270100000000001  0.6034  1.0000
  H   H1        1.0  0.8719  0.56552  0.028849999999999997  1.0000
  H   H2        1.0  0.59706  0.47255  0.20333  1.0000
  H   H3        1.0  0.61763  0.2968099999999999  0.10391  1.0000
  H   H4        1.0  0.6791200000000001  0.37473000000000006  0.05027  1.0000
  H   H5        1.0  0.88148  0.3547199999999999  0.12486999999999998  1.0000
  H   H6        1.0  0.84973  0.97493  0.54173  1.0000
  H   H7        1.0  0.38409  0.79275  0.26017  1.0000
  H   H8        1.0  0.5095500000000002  0.89132  0.1858  1.0000
  H   H9        1.0  0.61535  0.94944  0.32323  1.0000
  H   H10       1.0  0.75662  0.8796899999999997  0.23684  1.0000
  H   H11       1.0  0.30072  0.4512399999999999  0.43478  1.0000
  H   H12       1.0  0.10659999999999997  0.7354799999999999  0.51647  1.0000
  H   H13       1.0  0.32643000000000005  0.8145099999999997  0.6965  1.0000
  H   H14       1.0  0.28862  0.6792499999999998  0.61628  1.0000
  H   H15       1.0  0.51695  0.7641699999999998  0.63288  1.0000
  H   H16       1.0  0.12774999999999992  0.43302999999999986  0.9718499999999999  1.0000
  H   H17       1.0  0.40178999999999987  0.5292199999999998  0.79699  1.0000
  H   H18       1.0  0.3840799999999999  0.7049699999999999  0.8979999999999999  1.0000
  H   H19       1.0  0.33229999999999993  0.62772  0.9534399999999998  1.0000
  H   H20       1.0  0.12334000000000005  0.64791  0.88243  1.0000
  H   H21       1.0  0.15039999999999995  0.02466999999999999  0.45708999999999994  1.0000
  H   H22       1.0  0.6172299999999998  0.20525  0.7388999999999999  1.0000
  H   H23       1.0  0.4929  0.10809999999999997  0.81521  1.0000
  H   H24       1.0  0.38482  0.050090000000000016  0.67784  1.0000
  H   H25       1.0  0.24584  0.12054999999999991  0.76478  1.0000
  H   H26       1.0  0.69606  0.54563  0.56205  1.0000
  H   H27       1.0  0.887  0.26362  0.47834  1.0000
  H   H28       1.0  0.66962  0.18645  0.30049  1.0000
  H   H29       1.0  0.7003400000000002  0.3211999999999999  0.37993  1.0000
  H   H30       1.0  0.47567000000000004  0.23422  0.36292  1.0000
  C   C1        1.0  0.6842100000000001  0.44177  0.83103  1.0000
  C   C2        1.0  0.58478  0.46838999999999986  0.91574  1.0000
  C   C3        1.0  0.63034  0.57046  0.10296999999999999  1.0000
  C   C4        1.0  0.7084200000000003  0.53716  0.01672  1.0000
  C   C5        1.0  0.72352  0.36413  0.1163  1.0000
  C   C6        1.0  0.8578  0.16874  0.61708  1.0000
  C   C7        1.0  0.6718  0.08412000000000006  0.5564  1.0000
  C   C8        1.0  0.5282  0.89988  0.46878  1.0000
  C   C9        1.0  0.69546  0.9853800000000001  0.52416  1.0000
  C   C10       1.0  0.60194  0.88391  0.24711  1.0000
  C   C11       1.0  0.24057000000000006  0.38581  0.56079  1.0000
  C   C12       1.0  0.11437999999999991  0.44555999999999996  0.53287  1.0000
  C   C13       1.0  0.05747000000000004  0.52456  0.42729  1.0000
  C   C14       1.0  0.16734  0.47161  0.46258  1.0000
  C   C15       1.0  0.35125  0.75362  0.6266  1.0000
  C   C16       1.0  0.31532  0.55687  0.16912  1.0000
  C   C17       1.0  0.41491  0.53018  0.08463999999999999  1.0000
  C   C18       1.0  0.3690400000000001  0.4285899999999999  0.8974  1.0000
  C   C19       1.0  0.29113  0.46128999999999987  0.98368  1.0000
  C   C20       1.0  0.28084  0.63795  0.88764  1.0000
  C   C21       1.0  0.14203999999999994  0.8311599999999999  0.38338999999999995  1.0000
  C   C22       1.0  0.32812000000000013  0.9158  0.44408  1.0000
  C   C23       1.0  0.47176  0.10007  0.53174  1.0000
  C   C24       1.0  0.30449  0.014510000000000007  0.47595  1.0000
  C   C25       1.0  0.40017  0.11579000000000003  0.75416  1.0000
  C   C26       1.0  0.75876  0.61269  0.43787  1.0000
  C   C27       1.0  0.88393  0.55229  0.46495  1.0000
  C   C28       1.0  0.94103  0.47347  0.57063  1.0000
  C   C29       1.0  0.8302400000000001  0.52579  0.53481  1.0000
  C   C30       1.0  0.6415800000000003  0.24654  0.3698000000000001  1.0000
  O   O1        1.0  0.8789200000000001  0.46799  0.84929  1.0000
  O   O2        1.0  0.56259  0.39343  0.73736  1.0000
  O   O3        1.0  0.7618200000000002  0.63712  0.19671  1.0000
  O   O4        1.0  0.72687  0.45306  0.21195  1.0000
  O   O5        1.0  0.03596999999999999  0.15214999999999998  0.61626  1.0000
  O   O6        1.0  0.8308300000000001  0.2594599999999999  0.67331  1.0000
  O   O7        1.0  0.5634199999999999  0.80743  0.44185  1.0000
  O   O8        1.0  0.5127700000000001  0.78951  0.23947  1.0000
  O   O9        1.0  0.41725  0.3849  0.54586  1.0000
  O   O10       1.0  0.15272  0.33244  0.59543  1.0000
  O   O11       1.0  0.12475000000000001  0.54642  0.36052000000000006  1.0000
  O   O12       1.0  0.25822  0.75905  0.53722  1.0000
  O   O13       1.0  0.12082000000000001  0.52989  0.15083  1.0000
  O   O14       1.0  0.43726000000000004  0.60637  0.26281  1.0000
  O   O15       1.0  0.23761  0.36275  0.80348  1.0000
  O   O16       1.0  0.27154999999999996  0.54892  0.79077  1.0000
  O   O17       1.0  0.9641600000000002  0.8475000000000001  0.38622000000000006  1.0000
  O   O18       1.0  0.16893  0.74077  0.32517  1.0000
  O   O19       1.0  0.43669000000000013  0.19256999999999996  0.5589  1.0000
  O   O20       1.0  0.4908  0.20990999999999987  0.7615099999999999  1.0000
  O   O21       1.0  0.58187  0.6135699999999998  0.45231  1.0000
  O   O22       1.0  0.84817  0.66719  0.40459  1.0000
  O   O23       1.0  0.87473  0.45215  0.63792  1.0000
  O   O24       1.0  0.73554  0.24173000000000003  0.4593900000000001  1.0000
