data_image0
_chemical_formula_structural       Cs2Eu2Mo2H8C18N16O2
_chemical_formula_sum              "Cs2 Eu2 Mo2 H8 C18 N16 O2"
_cell_length_a       10.36481
_cell_length_b       9.09504
_cell_length_c       15.0634
_cell_angle_alpha    80.77464
_cell_angle_beta     81.14538
_cell_angle_gamma    52.93198999999999

_space_group_name_H-M_alt    "P 1"
_space_group_IT_number       1

loop_
  _space_group_symop_operation_xyz
  'x, y, z'

loop_
  _atom_site_type_symbol
  _atom_site_label
  _atom_site_symmetry_multiplicity
  _atom_site_fract_x
  _atom_site_fract_y
  _atom_site_fract_z
  _atom_site_occupancy
  Cs  Cs1       1.0  0.04410999999999988  0.7542700000000002  0.41373  1.0000
  Cs  Cs2       1.0  0.9558900000000002  0.24573000000000003  0.58627  1.0000
  Eu  Eu1       1.0  0.37449000000000027  0.17399000000000006  0.11449  1.0000
  Eu  Eu2       1.0  0.6255100000000002  0.82601  0.88552  1.0000
  Mo  Mo1       1.0  0.73747  0.57623  0.25598  1.0000
  Mo  Mo2       1.0  0.26252999999999993  0.42377  0.7440200000000002  1.0000
  H   H1        1.0  0.5182199999999999  0.3766700000000001  0.11664000000000001  1.0000
  H   H2        1.0  0.30813999999999997  0.6753500000000002  0.03075  1.0000
  H   H3        1.0  0.32419999999999993  0.6662000000000002  0.14955000000000004  1.0000
  H   H4        1.0  0.17303999999999994  0.6572500000000002  0.1138  1.0000
  H   H5        1.0  0.4817800000000003  0.62333  0.88337  1.0000
  H   H6        1.0  0.69186  0.32465  0.9692500000000002  1.0000
  H   H7        1.0  0.6758000000000001  0.3338  0.85045  1.0000
  H   H8        1.0  0.8269600000000001  0.3427500000000001  0.8862  1.0000
  C   C1        1.0  0.84883  0.3190000000000001  0.33696  1.0000
  C   C2        1.0  0.76935  0.60784  0.3863  1.0000
  C   C3        1.0  0.5146100000000002  0.62089  0.31039  1.0000
  C   C4        1.0  0.5607599999999999  0.8656700000000003  0.2729800000000001  1.0000
  C   C5        1.0  0.70564  0.41035000000000016  0.18828  1.0000
  C   C6        1.0  0.35145000000000015  0.27667000000000014  0.87232  1.0000
  C   C7        1.0  0.9603400000000002  0.40144  0.17821  1.0000
  C   C8        1.0  0.8663199999999999  0.69586  0.22991000000000003  1.0000
  C   C9        1.0  0.2968999999999999  0.6166600000000001  0.0985  1.0000
  C   C10       1.0  0.1511799999999999  0.6810000000000003  0.6630400000000002  1.0000
  C   C11       1.0  0.23064999999999997  0.3921600000000001  0.6137  1.0000
  C   C12       1.0  0.48539  0.37911  0.68961  1.0000
  C   C13       1.0  0.4392400000000001  0.13433  0.7270300000000002  1.0000
  C   C14       1.0  0.29436000000000007  0.58965  0.81172  1.0000
  C   C15       1.0  0.64855  0.72333  0.12768  1.0000
  C   C16       1.0  0.03965999999999997  0.59856  0.8218000000000002  1.0000
  C   C17       1.0  0.13368000000000002  0.3041400000000001  0.7700900000000003  1.0000
  C   C18       1.0  0.7031000000000002  0.38334  0.9015  1.0000
  N   N1        1.0  0.9116300000000002  0.17804000000000003  0.38219  1.0000
  N   N2        1.0  0.79434  0.6273200000000002  0.4555500000000001  1.0000
  N   N3        1.0  0.38861000000000034  0.64922  0.33433  1.0000
  N   N4        1.0  0.46245  0.026799999999999994  0.27178  1.0000
  N   N5        1.0  0.68258  0.3290200000000001  0.14807  1.0000
  N   N6        1.0  0.40838  0.18198  0.9389400000000001  1.0000
  N   N7        1.0  0.08176999999999998  0.30749000000000004  0.13426  1.0000
  N   N8        1.0  0.93749  0.7611300000000002  0.21746  1.0000
  N   N9        1.0  0.08836999999999999  0.82196  0.61782  1.0000
  N   N10       1.0  0.20565999999999998  0.37268000000000007  0.54445  1.0000
  N   N11       1.0  0.6113900000000002  0.35078999999999994  0.6656800000000003  1.0000
  N   N12       1.0  0.53755  0.9732  0.7282200000000001  1.0000
  N   N13       1.0  0.31741999999999976  0.6709800000000005  0.85193  1.0000
  N   N14       1.0  0.59162  0.8180200000000002  0.06106000000000002  1.0000
  N   N15       1.0  0.91823  0.69251  0.8657400000000001  1.0000
  N   N16       1.0  0.06250999999999998  0.23887  0.78254  1.0000
  O   O1        1.0  0.40822  0.4158500000000001  0.10277  1.0000
  O   O2        1.0  0.5917799999999998  0.5841500000000002  0.89723  1.0000
