data_image0
_chemical_formula_structural       Cd4H12C36O24
_chemical_formula_sum              "Cd4 H12 C36 O24"
_cell_length_a       10.20345
_cell_length_b       13.04047
_cell_length_c       14.93126
_cell_angle_alpha    90.14281
_cell_angle_beta     101.87984000000002
_cell_angle_gamma    89.91391

_space_group_name_H-M_alt    "P 1"
_space_group_IT_number       1

loop_
  _space_group_symop_operation_xyz
  'x, y, z'

loop_
  _atom_site_type_symbol
  _atom_site_label
  _atom_site_symmetry_multiplicity
  _atom_site_fract_x
  _atom_site_fract_y
  _atom_site_fract_z
  _atom_site_occupancy
  Cd  Cd1       1.0  0.1853  0.95565  0.09211  1.0000
  Cd  Cd2       1.0  0.8152699999999999  0.45641  0.40885  1.0000
  Cd  Cd3       1.0  0.8147  0.044350000000000014  0.90788  1.0000
  Cd  Cd4       1.0  0.18473  0.54359  0.59115  1.0000
  H   H1        1.0  0.64175  0.9308800000000002  0.05097  1.0000
  H   H2        1.0  0.9381400000000001  0.7237800000000002  0.20026  1.0000
  H   H3        1.0  0.52535  0.70106  0.22684  1.0000
  H   H4        1.0  0.3583200000000001  0.4319100000000001  0.44928  1.0000
  H   H5        1.0  0.06313  0.22328000000000003  0.3005  1.0000
  H   H6        1.0  0.47578  0.20088000000000006  0.27365  1.0000
  H   H7        1.0  0.35824999999999996  0.06912  0.94904  1.0000
  H   H8        1.0  0.061859999999999984  0.27621  0.79974  1.0000
  H   H9        1.0  0.47465  0.29894  0.77317  1.0000
  H   H10       1.0  0.64168  0.56809  0.55072  1.0000
  H   H11       1.0  0.93687  0.77671  0.6995  1.0000
  H   H12       1.0  0.52422  0.7991200000000003  0.72635  1.0000
  C   C1        1.0  0.4297  0.8583  0.11628  1.0000
  C   C2        1.0  0.56899  0.81792  0.13497  1.0000
  C   C3        1.0  0.66806  0.8660800000000002  0.09704  1.0000
  C   C4        1.0  0.80095  0.8315600000000002  0.12076  1.0000
  C   C5        1.0  0.83469  0.74958  0.18175  1.0000
  C   C6        1.0  0.73528  0.70235  0.21986  1.0000
  C   C7        1.0  0.60216  0.7363900000000002  0.19635999999999998  1.0000
  C   C8        1.0  0.77068  0.6183800000000002  0.28745  1.0000
  C   C9        1.0  0.91032  0.88647  0.08608  1.0000
  C   C10       1.0  0.5707  0.36018  0.38529  1.0000
  C   C11       1.0  0.43186  0.31865  0.36561  1.0000
  C   C12       1.0  0.33222  0.36677  0.40336  1.0000
  C   C13       1.0  0.19954  0.3318800000000001  0.37984  1.0000
  C   C14       1.0  0.16632  0.24956000000000006  0.31898  1.0000
  C   C15       1.0  0.26621  0.20224000000000006  0.28099  1.0000
  C   C16       1.0  0.39919  0.23673000000000005  0.30421  1.0000
  C   C17       1.0  0.23159  0.11714  0.21416  1.0000
  C   C18       1.0  0.09032  0.3868  0.415  1.0000
  C   C19       1.0  0.5703  0.14169  0.88372  1.0000
  C   C20       1.0  0.43101  0.18208  0.86504  1.0000
  C   C21       1.0  0.33194999999999997  0.13391  0.9029699999999999  1.0000
  C   C22       1.0  0.19905000000000003  0.16844000000000006  0.87924  1.0000
  C   C23       1.0  0.16532  0.25042000000000003  0.81826  1.0000
  C   C24       1.0  0.26472  0.29765  0.78015  1.0000
  C   C25       1.0  0.3978400000000001  0.26361  0.80365  1.0000
  C   C26       1.0  0.22932  0.3816200000000001  0.71256  1.0000
  C   C27       1.0  0.08967999999999995  0.11352  0.91391  1.0000
  C   C28       1.0  0.4293  0.63981  0.61471  1.0000
  C   C29       1.0  0.56814  0.68134  0.63439  1.0000
  C   C30       1.0  0.66778  0.63323  0.59665  1.0000
  C   C31       1.0  0.8004599999999998  0.66811  0.62017  1.0000
  C   C32       1.0  0.83368  0.75043  0.68102  1.0000
  C   C33       1.0  0.7337900000000003  0.7977500000000001  0.71902  1.0000
  C   C34       1.0  0.60081  0.7632700000000002  0.69579  1.0000
  C   C35       1.0  0.7684099999999999  0.88285  0.78584  1.0000
  C   C36       1.0  0.90968  0.6132  0.58501  1.0000
  O   O1        1.0  0.38436  0.9088400000000002  0.04328  1.0000
  O   O2        1.0  0.35693  0.84412  0.17514  1.0000
  O   O3        1.0  0.6947099999999999  0.6012200000000001  0.34428999999999993  1.0000
  O   O4        1.0  0.87467  0.5637  0.2895  1.0000
  O   O5        1.0  0.02534  0.84359  0.10181  1.0000
  O   O6        1.0  0.88318  0.9739200000000001  0.04941  1.0000
  O   O7        1.0  0.61541  0.40846  0.4596799999999999  1.0000
  O   O8        1.0  0.643  0.34893  0.32556  1.0000
  O   O9        1.0  0.30548  0.10119000000000003  0.15582  1.0000
  O   O10       1.0  0.1301  0.06056000000000002  0.21438  1.0000
  O   O11       1.0  0.9759999999999999  0.3432900000000001  0.4019  1.0000
  O   O12       1.0  0.11711000000000003  0.4752200000000001  0.44991  1.0000
  O   O13       1.0  0.61565  0.09116000000000002  0.95672  1.0000
  O   O14       1.0  0.64307  0.15588  0.82486  1.0000
  O   O15       1.0  0.30529000000000006  0.3987700000000001  0.65572  1.0000
  O   O16       1.0  0.12533  0.43630000000000013  0.7105  1.0000
  O   O17       1.0  0.97467  0.15641000000000002  0.8982  1.0000
  O   O18       1.0  0.11682  0.026060000000000007  0.95057  1.0000
  O   O19       1.0  0.38459  0.59153  0.54031  1.0000
  O   O20       1.0  0.35701  0.65106  0.67444  1.0000
  O   O21       1.0  0.69452  0.8988100000000001  0.84418  1.0000
  O   O22       1.0  0.8699  0.9394400000000003  0.78562  1.0000
  O   O23       1.0  0.024000000000000014  0.6567100000000001  0.5981  1.0000
  O   O24       1.0  0.8828899999999998  0.52478  0.55009  1.0000
