data_image0
_chemical_formula_structural       La2U3H6C30O24
_chemical_formula_sum              "La2 U3 H6 C30 O24"
_cell_length_a       10.23083
_cell_length_b       10.8555
_cell_length_c       12.34561
_cell_angle_alpha    63.078590000000005
_cell_angle_beta     78.49603
_cell_angle_gamma    63.7663

_space_group_name_H-M_alt    "P 1"
_space_group_IT_number       1

loop_
  _space_group_symop_operation_xyz
  'x, y, z'

loop_
  _atom_site_type_symbol
  _atom_site_label
  _atom_site_symmetry_multiplicity
  _atom_site_fract_x
  _atom_site_fract_y
  _atom_site_fract_z
  _atom_site_occupancy
  La  La1       1.0  0.6132500000000001  0.24748  0.71609  1.0000
  La  La2       1.0  0.38095999999999997  0.76292  0.27969  1.0000
  U   U1        1.0  0.64597  0.73358  0.76403  1.0000
  U   U2        1.0  0.35674  0.26495  0.23657999999999998  1.0000
  U   U3        1.0  0.0008899999999999807  0.49800000000000005  0.50274  1.0000
  H   H1        1.0  0.11703999999999999  0.37299000000000004  0.96597  1.0000
  H   H2        1.0  0.18238000000000001  0.07490000000000001  0.74227  1.0000
  H   H3        1.0  0.7446700000000002  0.005489999999999995  0.44354  1.0000
  H   H4        1.0  0.8835  0.62607  0.03315  1.0000
  H   H5        1.0  0.8188700000000001  0.9238499999999998  0.25703  1.0000
  H   H6        1.0  0.25418999999999997  0.9950000000000001  0.55439  1.0000
  C   C1        1.0  0.010260000000000076  0.33247999999999994  0.8599899999999999  1.0000
  C   C2        1.0  0.13246999999999995  0.31292000000000003  0.9105599999999999  1.0000
  C   C3        1.0  0.27616  0.21844000000000002  0.8955899999999999  1.0000
  C   C4        1.0  0.29945999999999995  0.13392000000000007  0.82387  1.0000
  C   C5        1.0  0.16980000000000006  0.14362  0.78792  1.0000
  C   C6        1.0  0.031179999999999982  0.23708000000000004  0.80217  1.0000
  C   C7        1.0  0.6415399999999999  0.9988800000000001  0.48383  1.0000
  C   C8        1.0  0.6235200000000001  0.86213  0.5223  1.0000
  C   C9        1.0  0.47749000000000014  0.8668199999999999  0.53503  1.0000
  C   C10       1.0  0.8676800000000001  0.44826000000000005  0.86155  1.0000
  C   C11       1.0  0.3857  0.22701000000000002  0.9508999999999999  1.0000
  C   C12       1.0  0.43047  0.03922000000000001  0.78207  1.0000
  C   C13       1.0  0.91247  0.24368  0.74406  1.0000
  C   C14       1.0  0.44950000000000007  0.7257000000000001  0.60081  1.0000
  C   C15       1.0  0.75152  0.73385  0.52135  1.0000
  C   C16       1.0  0.9894700000000001  0.66622  0.13979  1.0000
  C   C17       1.0  0.86746  0.68661  0.08829  1.0000
  C   C18       1.0  0.72394  0.7819  0.10333999999999999  1.0000
  C   C19       1.0  0.70055  0.86711  0.17487  1.0000
  C   C20       1.0  0.83066  0.8564000000000002  0.21078  1.0000
  C   C21       1.0  0.96843  0.76043  0.19836999999999996  1.0000
  C   C22       1.0  0.3590600000000001  9.999999999961944e-06  0.51741  1.0000
  C   C23       1.0  0.3768500000000001  0.13705999999999996  0.47936  1.0000
  C   C24       1.0  0.5234  0.13174  0.4671  1.0000
  C   C25       1.0  0.13228000000000004  0.55075  0.14001  1.0000
  C   C26       1.0  0.6137700000000003  0.77332  0.04847  1.0000
  C   C27       1.0  0.5713500000000002  0.96234  0.21757  1.0000
  C   C28       1.0  0.08493999999999992  0.7539900000000002  0.25735  1.0000
  C   C29       1.0  0.55142  0.27175000000000005  0.4002  1.0000
  C   C30       1.0  0.25003  0.2666299999999999  0.47996  1.0000
  O   O1        1.0  0.8565300000000002  0.56061  0.8814999999999998  1.0000
  O   O2        1.0  0.7514900000000002  0.4534199999999999  0.82976  1.0000
  O   O3        1.0  0.86275  0.14085  0.7912  1.0000
  O   O4        1.0  0.86712  0.35122000000000003  0.63809  1.0000
  O   O5        1.0  0.42334000000000016  0.94038  0.75394  1.0000
  O   O6        1.0  0.5611899999999999  0.04657000000000005  0.7659  1.0000
  O   O7        1.0  0.5099599999999999  0.22544000000000003  0.89383  1.0000
  O   O8        1.0  0.3586  0.24552  0.04787999999999999  1.0000
  O   O9        1.0  0.49714  0.64629  0.7124  1.0000
  O   O10       1.0  0.3823300000000001  0.6922500000000001  0.55112  1.0000
  O   O11       1.0  0.7501499999999997  0.6544100000000003  0.46715  1.0000
  O   O12       1.0  0.8732899999999996  0.69534  0.57686  1.0000
  O   O13       1.0  0.14609  0.43982  0.11667  1.0000
  O   O14       1.0  0.24647  0.54458  0.17613  1.0000
  O   O15       1.0  0.13286  0.85966  0.20926  1.0000
  O   O16       1.0  0.13008000000000003  0.648  0.36319  1.0000
  O   O17       1.0  0.58086  0.05991000000000002  0.24539999999999998  1.0000
  O   O18       1.0  0.43918000000000007  0.95748  0.23488  1.0000
  O   O19       1.0  0.49002  0.7751799999999999  0.10642  1.0000
  O   O20       1.0  0.64195  0.7535100000000001  0.9519799999999999  1.0000
  O   O21       1.0  0.50577  0.35025999999999996  0.28873  1.0000
  O   O22       1.0  0.6193499999999998  0.3068699999999999  0.45071  1.0000
  O   O23       1.0  0.25158999999999987  0.34367  0.53658  1.0000
  O   O24       1.0  0.1290700000000001  0.30945  0.42136  1.0000
