data_image0
_chemical_formula_structural       Zn8H16C40N12O16
_chemical_formula_sum              "Zn8 H16 C40 N12 O16"
_cell_length_a       10.81943
_cell_length_b       10.13436
_cell_length_c       14.59456
_cell_angle_alpha    110.17611000000001
_cell_angle_beta     107.46929
_cell_angle_gamma    90.65925

_space_group_name_H-M_alt    "P 1"
_space_group_IT_number       1

loop_
  _space_group_symop_operation_xyz
  'x, y, z'

loop_
  _atom_site_type_symbol
  _atom_site_label
  _atom_site_symmetry_multiplicity
  _atom_site_fract_x
  _atom_site_fract_y
  _atom_site_fract_z
  _atom_site_occupancy
  Zn  Zn1       1.0  0.9445700000000001  0.07630999999999999  0.09926  1.0000
  Zn  Zn2       1.0  0.50958  0.9626200000000001  0.79752  1.0000
  Zn  Zn3       1.0  0.6493200000000002  0.4998  0.49563000000000007  1.0000
  Zn  Zn4       1.0  0.65362  0.49675  0.00843  1.0000
  Zn  Zn5       1.0  0.05543999999999997  0.9236899999999999  0.9007399999999999  1.0000
  Zn  Zn6       1.0  0.49042  0.03737999999999999  0.20248  1.0000
  Zn  Zn7       1.0  0.35069  0.5002  0.50437  1.0000
  Zn  Zn8       1.0  0.34639000000000003  0.50325  0.9915700000000001  1.0000
  H   H1        1.0  0.09319  0.83059  0.18651  1.0000
  H   H2        1.0  0.29357  0.74639  0.14833  1.0000
  H   H3        1.0  0.078  0.50305  0.84417  1.0000
  H   H4        1.0  0.86959  0.57584  0.87088  1.0000
  H   H5        1.0  0.9717100000000001  0.41705  0.62307  1.0000
  H   H6        1.0  0.17024  0.35854  0.57441  1.0000
  H   H7        1.0  0.2743  0.77592  0.6145  1.0000
  H   H8        1.0  0.08114000000000002  0.85251  0.6686  1.0000
  H   H9        1.0  0.9068100000000002  0.16941000000000006  0.8135  1.0000
  H   H10       1.0  0.70643  0.25361000000000006  0.8516800000000001  1.0000
  H   H11       1.0  0.9220000000000003  0.49694  0.15583  1.0000
  H   H12       1.0  0.13042  0.42416000000000004  0.12912  1.0000
  H   H13       1.0  0.028300000000000002  0.58295  0.37694  1.0000
  H   H14       1.0  0.8297600000000002  0.64146  0.42559  1.0000
  H   H15       1.0  0.7257  0.22408000000000003  0.3855  1.0000
  H   H16       1.0  0.9188600000000002  0.14748  0.33141  1.0000
  C   C1        1.0  0.5545400000000001  0.7528  0.11684  1.0000
  C   C2        1.0  0.66187  0.7994199999999999  0.09297  1.0000
  C   C3        1.0  0.73388  0.9331099999999999  0.11785  1.0000
  C   C4        1.0  0.70672  0.08162  0.13485  1.0000
  C   C5        1.0  0.84817  0.7638000000000001  0.058820000000000004  1.0000
  C   C6        1.0  0.9617400000000003  0.70697  0.03295  1.0000
  C   C7        1.0  0.08552  0.7556600000000001  0.11026  1.0000
  C   C8        1.0  0.19736  0.70935  0.09012  1.0000
  C   C9        1.0  0.07671999999999998  0.5729299999999999  0.9194999999999999  1.0000
  C   C10       1.0  0.9605100000000002  0.6137  0.93515  1.0000
  C   C11       1.0  0.7799600000000002  0.9329799999999999  0.87031  1.0000
  C   C12       1.0  0.7861700000000001  0.8347  0.77298  1.0000
  C   C13       1.0  0.69272  0.74205  0.67897  1.0000
  C   C14       1.0  0.5596700000000002  0.74336  0.62597  1.0000
  C   C15       1.0  0.8940600000000002  0.6923999999999999  0.6812799999999999  1.0000
  C   C16       1.0  0.00793999999999996  0.6418799999999999  0.6516899999999999  1.0000
  C   C17       1.0  0.03588000000000004  0.50067  0.62322  1.0000
  C   C18       1.0  0.14696000000000006  0.4668  0.59583  1.0000
  C   C19       1.0  0.20507  0.70083  0.61845  1.0000
  C   C20       1.0  0.09761000000000002  0.7419200000000001  0.64857  1.0000
  C   C21       1.0  0.44547  0.2472000000000001  0.88316  1.0000
  C   C22       1.0  0.3381300000000001  0.20057  0.90703  1.0000
  C   C23       1.0  0.26612  0.06689000000000005  0.88215  1.0000
  C   C24       1.0  0.2932900000000001  0.91838  0.86515  1.0000
  C   C25       1.0  0.15184  0.23620000000000008  0.94118  1.0000
  C   C26       1.0  0.03827000000000006  0.29302  0.96705  1.0000
  C   C27       1.0  0.9144800000000002  0.24433999999999992  0.88974  1.0000
  C   C28       1.0  0.80264  0.29063999999999995  0.90989  1.0000
  C   C29       1.0  0.92328  0.42706  0.08049999999999999  1.0000
  C   C30       1.0  0.039490000000000004  0.3863  0.06485  1.0000
  C   C31       1.0  0.22005  0.06702  0.12969  1.0000
  C   C32       1.0  0.21384  0.1653  0.22702000000000003  1.0000
  C   C33       1.0  0.3072900000000001  0.25794  0.32103  1.0000
  C   C34       1.0  0.44033  0.25663  0.37403  1.0000
  C   C35       1.0  0.10594  0.3076  0.31872  1.0000
  C   C36       1.0  0.9920600000000003  0.35812  0.34832  1.0000
  C   C37       1.0  0.9641300000000003  0.49931999999999993  0.37678  1.0000
  C   C38       1.0  0.85304  0.5332  0.40417  1.0000
  C   C39       1.0  0.79493  0.29917  0.38155  1.0000
  C   C40       1.0  0.90239  0.2580799999999999  0.35142999999999996  1.0000
  N   N1        1.0  0.7350600000000003  0.69435  0.05149  1.0000
  N   N2        1.0  0.8503  0.9052700000000001  0.10128  1.0000
  N   N3        1.0  0.19525000000000006  0.6164699999999997  0.9960099999999998  1.0000
  N   N4        1.0  0.7650000000000001  0.64863  0.62445  1.0000
  N   N5        1.0  0.9089200000000001  0.80489  0.76883  1.0000
  N   N6        1.0  0.23193000000000003  0.56403  0.59147  1.0000
  N   N7        1.0  0.26494  0.30564  0.94851  1.0000
  N   N8        1.0  0.14970000000000006  0.09473000000000004  0.8987200000000001  1.0000
  N   N9        1.0  0.80475  0.38353  0.00399  1.0000
  N   N10       1.0  0.23500000000000004  0.35136  0.37555  1.0000
  N   N11       1.0  0.09108  0.1951  0.23117  1.0000
  N   N12       1.0  0.76807  0.4359700000000001  0.40853  1.0000
  O   O1        1.0  0.49222  0.83376  0.17196  1.0000
  O   O2        1.0  0.52426  0.61173  0.08554  1.0000
  O   O3        1.0  0.60592  0.12706000000000003  0.15759000000000004  1.0000
  O   O4        1.0  0.7871800000000002  0.16548  0.12535  1.0000
  O   O5        1.0  0.8916300000000003  0.9999600000000001  0.9380300000000001  1.0000
  O   O6        1.0  0.6751900000000001  0.95352  0.89311  1.0000
  O   O7        1.0  0.4872400000000001  0.83931  0.65614  1.0000
  O   O8        1.0  0.50642  0.6392  0.53223  1.0000
  O   O9        1.0  0.5077900000000001  0.16623999999999997  0.8280400000000001  1.0000
  O   O10       1.0  0.47574  0.38827  0.9144700000000001  1.0000
  O   O11       1.0  0.39408  0.87293  0.84241  1.0000
  O   O12       1.0  0.21282000000000006  0.83451  0.8746500000000001  1.0000
  O   O13       1.0  0.10837  4.0000000000000105e-05  0.06197  1.0000
  O   O14       1.0  0.32482  0.04648  0.10689  1.0000
  O   O15       1.0  0.51276  0.16069  0.34386  1.0000
  O   O16       1.0  0.4935900000000001  0.3608  0.46777  1.0000
