data_image0
_chemical_formula_structural       Ni2H21C23N5O8
_chemical_formula_sum              "Ni2 H21 C23 N5 O8"
_cell_length_a       6.56963
_cell_length_b       7.7983
_cell_length_c       15.845790000000001
_cell_angle_alpha    101.68014
_cell_angle_beta     102.04197000000002
_cell_angle_gamma    89.8437

_space_group_name_H-M_alt    "P 1"
_space_group_IT_number       1

loop_
  _space_group_symop_operation_xyz
  'x, y, z'

loop_
  _atom_site_type_symbol
  _atom_site_label
  _atom_site_symmetry_multiplicity
  _atom_site_fract_x
  _atom_site_fract_y
  _atom_site_fract_z
  _atom_site_occupancy
  Ni  Ni1       1.0  0.54494  0.2799  0.56008  1.0000
  Ni  Ni2       1.0  0.98472  0.71995  0.44007  1.0000
  H   H1        1.0  0.013600000000000015  0.27567000000000014  0.75633  1.0000
  H   H2        1.0  0.69462  0.50472  0.73755  1.0000
  H   H3        1.0  0.14447  0.22137  0.61858  1.0000
  H   H4        1.0  0.5878  0.57865  0.8833399999999999  1.0000
  H   H5        1.0  0.29056  0.6802  0.55843  1.0000
  H   H6        1.0  0.23028999999999997  0.89319  0.58392  1.0000
  H   H7        1.0  0.14175999999999994  0.67514  0.681  1.0000
  H   H8        1.0  0.89876  0.43238  0.864  1.0000
  H   H9        1.0  0.01741999999999998  0.96803  0.70627  1.0000
  H   H10       1.0  0.8028999999999998  0.82256  0.68983  1.0000
  H   H11       1.0  0.25646  0.7243  0.24371  1.0000
  H   H12       1.0  0.9583500000000001  0.49581  0.26257  1.0000
  H   H13       1.0  0.52562  0.77877  0.38154  1.0000
  H   H14       1.0  0.70502  0.421  0.11693  1.0000
  H   H15       1.0  0.73273  0.31775  0.44154  1.0000
  H   H16       1.0  0.6466100000000001  0.10513999999999997  0.41636  1.0000
  H   H17       1.0  0.45965  0.32294  0.31905  1.0000
  H   H18       1.0  0.03466  0.56794  0.13589  1.0000
  H   H19       1.0  0.31107  0.030369999999999998  0.29477  1.0000
  H   H20       1.0  0.11300000000000003  0.17759  0.31055  1.0000
  H   H21       1.0  0.54347  0.50012  0.00012  1.0000
  C   C1        1.0  0.16690999999999995  0.33021  0.7576  1.0000
  C   C2        1.0  0.54709  0.45611  0.74674  1.0000
  C   C3        1.0  0.22938999999999996  0.46391  0.92044  1.0000
  C   C4        1.0  0.23893999999999996  0.29701  0.67941  1.0000
  C   C5        1.0  0.2929  0.42948000000000003  0.83454  1.0000
  C   C6        1.0  0.48546  0.49624  0.82683  1.0000
  C   C7        1.0  0.04486000000000007  0.71567  0.62336  1.0000
  C   C8        1.0  0.9003  0.55581  0.57329  1.0000
  C   C9        1.0  0.01725000000000005  0.46296000000000004  0.92467  1.0000
  C   C10       1.0  0.79409  0.96268  0.5865  1.0000
  C   C11       1.0  0.91613  0.8685000000000005  0.65618  1.0000
  C   C12       1.0  0.40894  0.6698400000000002  0.2425  1.0000
  C   C13       1.0  0.80112  0.54423  0.25341  1.0000
  C   C14       1.0  0.30891  0.53626  0.07964  1.0000
  C   C15       1.0  0.55941  0.70316  0.3207  1.0000
  C   C16       1.0  0.4583199999999999  0.5705500000000002  0.16559  1.0000
  C   C17       1.0  0.6590699999999999  0.50377  0.17336  1.0000
  C   C18       1.0  0.42142  0.28319  0.37695  1.0000
  C   C19       1.0  0.3270299999999999  0.4437200000000001  0.42685999999999996  1.0000
  C   C20       1.0  0.09246  0.5373200000000002  0.07525  1.0000
  C   C21       1.0  0.20727  0.037149999999999996  0.41401  1.0000
  C   C22       1.0  0.25968  0.13093  0.34444  1.0000
  C   C23       1.0  0.37678  0.50009  8e-05  1.0000
  N   N1        1.0  0.4281  0.35463  0.67393  1.0000
  N   N2        1.0  0.17241  0.76632  0.56525  1.0000
  N   N3        1.0  0.75457  0.6458  0.32617  1.0000
  N   N4        1.0  0.6077300000000001  0.23239000000000007  0.43496  1.0000
  N   N5        1.0  0.94806  0.50017  0.99993  1.0000
  O   O1        1.0  0.81116  0.4749  0.61824  1.0000
  O   O2        1.0  0.7096800000000001  0.09947  0.62114  1.0000
  O   O3        1.0  0.78025  0.90786  0.50423  1.0000
  O   O4        1.0  0.88059  0.5168100000000002  0.48984  1.0000
  O   O5        1.0  0.19297  0.52497  0.38181  1.0000
  O   O6        1.0  0.08916000000000004  0.90035  0.37924  1.0000
  O   O7        1.0  0.27597  0.09222  0.49626  1.0000
  O   O8        1.0  0.39046  0.48271  0.51038  1.0000
