data_image0
_chemical_formula_structural       Cu4H28C32N8O16
_chemical_formula_sum              "Cu4 H28 C32 N8 O16"
_cell_length_a       9.98216
_cell_length_b       9.98253
_cell_length_c       15.44141
_cell_angle_alpha    71.60111
_cell_angle_beta     71.70319
_cell_angle_gamma    84.90662

_symmetry_space_group_name_H-M    'P 1'
_symmetry_Int_Tables_number       1

loop_
  _symmetry_equiv_pos_as_xyz
  'x,y,z'

loop_
  _atom_site_type_symbol
  _atom_site_label
  _atom_site_symmetry_multiplicity
  _atom_site_fract_x
  _atom_site_fract_y
  _atom_site_fract_z
  _atom_site_occupancy
  Cu  Cu1       1.0  0.54591  0.01312999999999998  0.30341000000000007  1.0000
  Cu  Cu2       1.0  0.9868499999999999  0.45426  0.1963  1.0000
  Cu  Cu3       1.0  0.4540899999999999  0.9868700000000001  0.69659  1.0000
  Cu  Cu4       1.0  0.013150000000000007  0.54574  0.8037  1.0000
  H   H1        1.0  0.8058099999999999  0.16534999999999997  0.033740000000000006  1.0000
  H   H2        1.0  0.7817199999999997  0.20211  0.31005000000000005  1.0000
  H   H3        1.0  0.3991899999999998  0.26546999999999993  0.3766000000000001  1.0000
  H   H4        1.0  0.5489999999999998  0.22477  0.4208  1.0000
  H   H5        1.0  0.42502999999999996  0.28876  0.21114  1.0000
  H   H6        1.0  0.5957000000000001  0.2694  0.1318  1.0000
  H   H7        1.0  0.3770299999999999  0.48915  0.26901  1.0000
  H   H8        1.0  0.8349  0.19438  0.4660700000000001  1.0000
  H   H9        1.0  0.7974199999999998  0.21886999999999998  0.18914000000000006  1.0000
  H   H10       1.0  0.73377  0.60141  0.12300000000000003  1.0000
  H   H11       1.0  0.77437  0.45139999999999997  0.07891  1.0000
  H   H12       1.0  0.7112700000000001  0.57473  0.28875  1.0000
  H   H13       1.0  0.73087  0.4035399999999999  0.36789  1.0000
  H   H14       1.0  0.51093  0.62297  0.23068  1.0000
  H   H15       1.0  0.1941899999999999  0.83465  0.96626  1.0000
  H   H16       1.0  0.21828000000000014  0.7978900000000001  0.68995  1.0000
  H   H17       1.0  0.60081  0.73453  0.62341  1.0000
  H   H18       1.0  0.451  0.7752300000000001  0.5792  1.0000
  H   H19       1.0  0.5749599999999999  0.7112399999999998  0.7888700000000002  1.0000
  H   H20       1.0  0.40429999999999994  0.7305999999999999  0.8682000000000001  1.0000
  H   H21       1.0  0.62297  0.5108499999999999  0.73099  1.0000
  H   H22       1.0  0.1651  0.80562  0.53393  1.0000
  H   H23       1.0  0.20257999999999993  0.7811299999999999  0.8108600000000001  1.0000
  H   H24       1.0  0.2662299999999999  0.39858999999999994  0.8770100000000001  1.0000
  H   H25       1.0  0.22561999999999996  0.5486000000000001  0.92109  1.0000
  H   H26       1.0  0.2887299999999999  0.4252699999999998  0.7112600000000002  1.0000
  H   H27       1.0  0.2691299999999999  0.59646  0.6321100000000001  1.0000
  H   H28       1.0  0.4890599999999998  0.3770299999999998  0.7693200000000002  1.0000
  C   C1        1.0  0.8795299999999999  0.9535900000000002  0.08004  1.0000
  C   C2        1.0  0.9900899999999999  0.8594800000000001  0.06044  1.0000
  C   C3        1.0  0.8917499999999999  0.09283  0.019360000000000006  1.0000
  C   C4        1.0  0.74699  0.9121100000000001  0.16298  1.0000
  C   C5        1.0  0.9903399999999999  0.71145  0.12364000000000001  1.0000
  C   C6        1.0  0.51243  0.28369999999999995  0.35942  1.0000
  C   C7        1.0  0.5382  0.30953  0.19161  1.0000
  C   C8        1.0  0.046319999999999945  0.12089999999999994  0.4201200000000001  1.0000
  C   C9        1.0  0.14051  0.010189999999999996  0.43953  1.0000
  C   C10       1.0  0.9072400000000002  0.10836000000000003  0.48081  1.0000
  C   C11       1.0  0.08760999999999998  0.25360000000000005  0.3371  1.0000
  C   C12       1.0  0.2888299999999999  0.009740000000000013  0.37685  1.0000
  C   C13       1.0  0.71579  0.48803  0.14021  1.0000
  C   C14       1.0  0.69063  0.46148999999999996  0.30811000000000005  1.0000
  C   C15       1.0  0.12045999999999993  0.046410000000000055  0.91996  1.0000
  C   C16       1.0  0.00991000000000004  0.14051999999999992  0.93957  1.0000
  C   C17       1.0  0.10824999999999987  0.9071699999999998  0.9806400000000002  1.0000
  C   C18       1.0  0.25301  0.08788000000000003  0.83702  1.0000
  C   C19       1.0  0.009659999999999882  0.28855  0.8763700000000002  1.0000
  C   C20       1.0  0.48757000000000034  0.71629  0.64058  1.0000
  C   C21       1.0  0.46178999999999987  0.69047  0.8084  1.0000
  C   C22       1.0  0.95367  0.8791000000000001  0.57988  1.0000
  C   C23       1.0  0.8594799999999999  0.9898100000000001  0.56047  1.0000
  C   C24       1.0  0.09275999999999995  0.8916400000000001  0.51919  1.0000
  C   C25       1.0  0.9123799999999997  0.7464  0.66291  1.0000
  C   C26       1.0  0.7111699999999999  0.99026  0.62316  1.0000
  C   C27       1.0  0.28420999999999996  0.51197  0.8597900000000003  1.0000
  C   C28       1.0  0.3093699999999998  0.5385099999999999  0.6919000000000001  1.0000
  C   C29       1.0  0.7424399999999999  0.25769  0.24969  1.0000
  C   C30       1.0  0.49019999999999997  0.50976  0.24986000000000005  1.0000
  C   C31       1.0  0.25755999999999996  0.74231  0.75031  1.0000
  C   C32       1.0  0.5097900000000001  0.4902399999999999  0.75015  1.0000
  N   N1        1.0  0.5885299999999999  0.22888999999999998  0.2765  1.0000
  N   N2        1.0  0.54016  0.43457  0.33318  1.0000
  N   N3        1.0  0.7710399999999997  0.41169999999999995  0.22307  1.0000
  N   N4        1.0  0.56503  0.4601  0.1665  1.0000
  N   N5        1.0  0.41146999999999984  0.7711099999999997  0.7235000000000003  1.0000
  N   N6        1.0  0.45984  0.5654300000000001  0.66682  1.0000
  N   N7        1.0  0.22896  0.5882999999999999  0.77694  1.0000
  N   N8        1.0  0.43496999999999997  0.5399  0.8335100000000001  1.0000
  O   O1        1.0  0.7108799999999998  0.012470000000000005  0.20369  1.0000
  O   O2        1.0  0.68135  0.8002300000000001  0.18614  1.0000
  O   O3        1.0  0.019139999999999983  0.61272  0.08125000000000002  1.0000
  O   O4        1.0  0.96706  0.68089  0.21234  1.0000
  O   O5        1.0  0.98564  0.2921400000000001  0.29803  1.0000
  O   O6        1.0  0.20116999999999996  0.3170100000000001  0.31199  1.0000
  O   O7        1.0  0.38731999999999994  0.9808800000000001  0.41949  1.0000
  O   O8        1.0  0.31975  0.03247000000000001  0.28816  1.0000
  O   O9        1.0  0.28912  0.98753  0.79632  1.0000
  O   O10       1.0  0.3186499999999999  0.19976999999999992  0.8138700000000002  1.0000
  O   O11       1.0  0.98086  0.38727999999999996  0.9187600000000002  1.0000
  O   O12       1.0  0.03292999999999989  0.3191099999999999  0.7876600000000002  1.0000
  O   O13       1.0  0.01435999999999999  0.70786  0.70197  1.0000
  O   O14       1.0  0.79882  0.68299  0.68801  1.0000
  O   O15       1.0  0.6126800000000001  0.019109999999999978  0.58051  1.0000
  O   O16       1.0  0.6802499999999999  0.9675199999999999  0.7118500000000002  1.0000
