data_image0
_chemical_formula_structural       Mn4H16C32O16
_chemical_formula_sum              "Mn4 H16 C32 O16"
_cell_length_a       9.66129
_cell_length_b       12.46876
_cell_length_c       12.61937
_cell_angle_alpha    105.67905
_cell_angle_beta     111.39635
_cell_angle_gamma    108.03674

_space_group_name_H-M_alt    "P 1"
_space_group_IT_number       1

loop_
  _space_group_symop_operation_xyz
  'x, y, z'

loop_
  _atom_site_type_symbol
  _atom_site_label
  _atom_site_symmetry_multiplicity
  _atom_site_fract_x
  _atom_site_fract_y
  _atom_site_fract_z
  _atom_site_occupancy
  Mn  Mn1       1.0  0.24034000000000003  0.32553000000000004  0.14577  1.0000
  Mn  Mn2       1.0  0.7596600000000001  0.67447  0.8542300000000002  1.0000
  Mn  Mn3       1.0  0.0  0.0  0.0  1.0000
  Mn  Mn4       1.0  0.0  0.5  0.0  1.0000
  H   H1        1.0  0.48366000000000003  0.36609  0.5199  1.0000
  H   H2        1.0  0.568  0.15146999999999997  0.73117  1.0000
  H   H3        1.0  0.3443300000000001  0.9555600000000001  0.54004  1.0000
  H   H4        1.0  0.19463  0.96619  0.33685000000000004  1.0000
  H   H5        1.0  0.7093700000000001  0.013910000000000014  0.8460100000000002  1.0000
  H   H6        1.0  0.40680999999999984  0.8745099999999999  0.75045  1.0000
  H   H7        1.0  0.23550000000000004  0.95261  0.82713  1.0000
  H   H8        1.0  0.66081  0.31356  0.07122  1.0000
  H   H9        1.0  0.51634  0.63391  0.4801000000000001  1.0000
  H   H10       1.0  0.432  0.84853  0.26883  1.0000
  H   H11       1.0  0.6556700000000001  0.044440000000000014  0.45997000000000005  1.0000
  H   H12       1.0  0.80538  0.03382000000000003  0.66315  1.0000
  H   H13       1.0  0.29062999999999994  0.9861  0.154  1.0000
  H   H14       1.0  0.59319  0.1255  0.24956  1.0000
  H   H15       1.0  0.76451  0.04739  0.17287  1.0000
  H   H16       1.0  0.33919000000000005  0.68644  0.92878  1.0000
  C   C1        1.0  0.24907999999999997  0.17214  0.29348  1.0000
  C   C2        1.0  0.33295  0.16639  0.41591000000000006  1.0000
  C   C3        1.0  0.45493000000000006  0.27665  0.52465  1.0000
  C   C4        1.0  0.53993  0.271  0.63808  1.0000
  C   C5        1.0  0.5008199999999999  0.15481  0.64282  1.0000
  C   C6        1.0  0.37509  0.04523000000000002  0.53546  1.0000
  C   C7        1.0  0.29169  0.05060000000000002  0.422  1.0000
  C   C8        1.0  0.88728  0.25218  0.024570000000000005  1.0000
  C   C9        1.0  0.70566  0.17135  0.96651  1.0000
  C   C10       1.0  0.63271  0.047600000000000024  0.87583  1.0000
  C   C11       1.0  0.4626800000000001  0.96978  0.8219500000000001  1.0000
  C   C12       1.0  0.36634  0.013289999999999965  0.86282  1.0000
  C   C13       1.0  0.43783  0.13703  0.9533  1.0000
  C   C14       1.0  0.60639  0.21749  0.00221  1.0000
  C   C15       1.0  0.6685  0.38895  0.75369  1.0000
  C   C16       1.0  0.33458  0.17622  0.00311  1.0000
  C   C17       1.0  0.75093  0.82786  0.70652  1.0000
  C   C18       1.0  0.66706  0.83362  0.58409  1.0000
  C   C19       1.0  0.54507  0.72335  0.47535  1.0000
  C   C20       1.0  0.46008  0.729  0.36192  1.0000
  C   C21       1.0  0.49919  0.84519  0.35718  1.0000
  C   C22       1.0  0.62491  0.95478  0.46454  1.0000
  C   C23       1.0  0.70831  0.9494  0.578  1.0000
  C   C24       1.0  0.11273000000000005  0.74782  0.9754300000000001  1.0000
  C   C25       1.0  0.29434999999999995  0.82866  0.03349  1.0000
  C   C26       1.0  0.36729  0.9524099999999999  0.12417  1.0000
  C   C27       1.0  0.53732  0.030220000000000004  0.17805  1.0000
  C   C28       1.0  0.63366  0.98671  0.13718  1.0000
  C   C29       1.0  0.56217  0.8629699999999999  0.04671  1.0000
  C   C30       1.0  0.39361  0.78252  0.9977900000000001  1.0000
  C   C31       1.0  0.3315  0.61106  0.24631  1.0000
  C   C32       1.0  0.66543  0.8237799999999998  0.99689  1.0000
  O   O1        1.0  0.29708  0.28006  0.29311  1.0000
  O   O2        1.0  0.13729  0.06967  0.19743  1.0000
  O   O3        1.0  0.98485  0.20034  0.026230000000000003  1.0000
  O   O4        1.0  0.9467  0.37136  0.07391  1.0000
  O   O5        1.0  0.77878  0.38129  0.84262  1.0000
  O   O6        1.0  0.6583500000000001  0.48892000000000013  0.7568200000000002  1.0000
  O   O7        1.0  0.38311  0.29288  0.06575  1.0000
  O   O8        1.0  0.20289999999999994  0.08930000000000006  0.98287  1.0000
  O   O9        1.0  0.70292  0.71994  0.7069  1.0000
  O   O10       1.0  0.86271  0.9303299999999999  0.80257  1.0000
  O   O11       1.0  0.015150000000000087  0.7996600000000001  0.9737700000000001  1.0000
  O   O12       1.0  0.053299999999999924  0.62865  0.92609  1.0000
  O   O13       1.0  0.22122  0.61872  0.15738  1.0000
  O   O14       1.0  0.34165  0.51108  0.24318  1.0000
  O   O15       1.0  0.61689  0.7071200000000001  0.9342500000000001  1.0000
  O   O16       1.0  0.7971  0.9107  0.01714  1.0000
