data_image0
_chemical_formula_structural       Tb2H22C42O12
_chemical_formula_sum              "Tb2 H22 C42 O12"
_cell_length_a       8.68784
_cell_length_b       10.96682
_cell_length_c       12.46212
_cell_angle_alpha    68.05925
_cell_angle_beta     86.64319
_cell_angle_gamma    79.29538

_symmetry_space_group_name_H-M    'P 1'
_symmetry_Int_Tables_number       1

loop_
  _symmetry_equiv_pos_as_xyz
  'x,y,z'

loop_
  _atom_site_type_symbol
  _atom_site_label
  _atom_site_symmetry_multiplicity
  _atom_site_fract_x
  _atom_site_fract_y
  _atom_site_fract_z
  _atom_site_occupancy
  Tb  Tb1       1.0  0.70849  0.9777100000000001  0.45382  1.0000
  Tb  Tb2       1.0  0.29152  0.022719999999999966  0.54635  1.0000
  H   H1        1.0  0.22425  0.64079  0.76621  1.0000
  H   H2        1.0  0.9958299999999999  0.2994400000000001  0.8517599999999997  1.0000
  H   H3        1.0  0.85498  0.64866  0.54742  1.0000
  H   H4        1.0  0.9705  0.22104  0.68739  1.0000
  H   H5        1.0  0.78354  0.10078  0.64344  1.0000
  H   H6        1.0  0.40798000000000006  0.42882  0.61393  1.0000
  H   H7        1.0  0.59852  0.55385  0.65161  1.0000
  H   H8        1.0  0.9913299999999999  0.33294  0.024349999999999993  1.0000
  H   H9        1.0  0.11947  0.20935  0.21581  1.0000
  H   H10       1.0  0.56081  0.30921  0.0715  1.0000
  H   H11       1.0  0.43337  0.43601  0.8786799999999999  1.0000
  H   H12       1.0  0.7763799999999997  0.35897000000000007  0.23407  1.0000
  H   H13       1.0  0.003989999999999964  0.7007100000000002  0.14821  1.0000
  H   H14       1.0  0.14567000000000008  0.35172  0.45264  1.0000
  H   H15       1.0  0.029790000000000018  0.7797  0.31266  1.0000
  H   H16       1.0  0.21652999999999994  0.89972  0.35686999999999997  1.0000
  H   H17       1.0  0.5921999999999998  0.57185  0.38636999999999994  1.0000
  H   H18       1.0  0.4020199999999999  0.44687  0.34837999999999997  1.0000
  H   H19       1.0  0.008919999999999973  0.66667  0.97602  1.0000
  H   H20       1.0  0.8808700000000002  0.79039  0.7844099999999999  1.0000
  H   H21       1.0  0.4393599999999999  0.6907200000000001  0.9287499999999999  1.0000
  H   H22       1.0  0.56687  0.56371  0.1216  1.0000
  C   C1        1.0  0.05637000000000001  0.79565  0.57476  1.0000
  C   C2        1.0  0.042990000000000035  0.6557999999999999  0.64942  1.0000
  C   C3        1.0  0.13978999999999997  0.58891  0.74798  1.0000
  C   C4        1.0  0.12051000000000003  0.4613199999999999  0.82411  1.0000
  C   C5        1.0  0.009299999999999994  0.40005  0.79528  1.0000
  C   C6        1.0  0.91278  0.46551  0.6968  1.0000
  C   C7        1.0  0.92882  0.59518  0.62419  1.0000
  C   C8        1.0  0.79712  0.39548000000000005  0.67241  1.0000
  C   C9        1.0  0.84732  0.26605999999999996  0.67255  1.0000
  C   C10       1.0  0.7425  0.19898  0.64701  1.0000
  C   C11       1.0  0.58413  0.25774  0.6243  1.0000
  C   C12       1.0  0.53126  0.3843899999999999  0.62984  1.0000
  C   C13       1.0  0.6379500000000001  0.45387999999999995  0.65094  1.0000
  C   C14       1.0  0.47852999999999996  0.18631999999999996  0.59016  1.0000
  C   C15       1.0  0.20344  0.39211999999999997  0.9369799999999999  1.0000
  C   C16       1.0  0.11649000000000001  0.32694  0.03358  1.0000
  C   C17       1.0  0.18733999999999998  0.25803  0.14136  1.0000
  C   C18       1.0  0.34804  0.2502  0.15647  1.0000
  C   C19       1.0  0.43601  0.31503  0.06083  1.0000
  C   C20       1.0  0.36400000000000005  0.38702000000000003  0.95261  1.0000
  C   C21       1.0  0.4167799999999998  0.17207  0.27453  1.0000
  C   C22       1.0  0.9443099999999999  0.20435000000000006  0.42551999999999995  1.0000
  C   C23       1.0  0.9575699999999999  0.34418000000000004  0.35074  1.0000
  C   C24       1.0  0.8606499999999997  0.41106  0.25223  1.0000
  C   C25       1.0  0.8798500000000001  0.53865  0.17604999999999996  1.0000
  C   C26       1.0  0.9909599999999998  0.60005  0.20482999999999998  1.0000
  C   C27       1.0  0.08763000000000003  0.53474  0.30329  1.0000
  C   C28       1.0  0.07166  0.40499999999999997  0.37592  1.0000
  C   C29       1.0  0.20319000000000004  0.6050099999999999  0.32772  1.0000
  C   C30       1.0  0.15290000000000006  0.7344799999999999  0.32755  1.0000
  C   C31       1.0  0.25754  0.80159  0.35324  1.0000
  C   C32       1.0  0.4158299999999998  0.74298  0.37604  1.0000
  C   C33       1.0  0.46897  0.61641  0.37039  1.0000
  C   C34       1.0  0.36248999999999987  0.5468300000000001  0.34915999999999997  1.0000
  C   C35       1.0  0.5213199999999998  0.8142600000000001  0.41026  1.0000
  C   C36       1.0  0.7968399999999999  0.60772  0.06324  1.0000
  C   C37       1.0  0.8837700000000001  0.67282  0.96661  1.0000
  C   C38       1.0  0.81286  0.7418000000000001  0.85885  1.0000
  C   C39       1.0  0.6520199999999999  0.7497800000000002  0.8439399999999998  1.0000
  C   C40       1.0  0.56416  0.68476  0.9396  1.0000
  C   C41       1.0  0.63631  0.61269  0.04775999999999999  1.0000
  C   C42       1.0  0.58311  0.82811  0.72582  1.0000
  O   O1        1.0  0.95794  0.861  0.49167999999999995  1.0000
  O   O2        1.0  0.16689999999999997  0.8437400000000002  0.59824  1.0000
  O   O3        1.0  0.33175  0.20167  0.60749  1.0000
  O   O4        1.0  0.54007  0.1042  0.54006  1.0000
  O   O5        1.0  0.319  0.15492  0.35805999999999993  1.0000
  O   O6        1.0  0.56372  0.12679  0.28663  1.0000
  O   O7        1.0  0.04323999999999997  0.1392  0.50837  1.0000
  O   O8        1.0  0.8338  0.15592000000000003  0.40232999999999997  1.0000
  O   O9        1.0  0.6679  0.79908  0.39270999999999995  1.0000
  O   O10       1.0  0.46036  0.89633  0.4606  1.0000
  O   O11       1.0  0.6812  0.8447900000000003  0.64236  1.0000
  O   O12       1.0  0.43624999999999997  0.8735600000000001  0.7136399999999999  1.0000
