data_image0
_chemical_formula_structural       Cd6H8C40O32
_chemical_formula_sum              "Cd6 H8 C40 O32"
_cell_length_a       7.89225
_cell_length_b       14.33888
_cell_length_c       14.33893
_cell_angle_alpha    76.09652999999999
_cell_angle_beta     73.37182
_cell_angle_gamma    73.37176

_space_group_name_H-M_alt    "P 1"
_space_group_IT_number       1

loop_
  _space_group_symop_operation_xyz
  'x, y, z'

loop_
  _atom_site_type_symbol
  _atom_site_label
  _atom_site_symmetry_multiplicity
  _atom_site_fract_x
  _atom_site_fract_y
  _atom_site_fract_z
  _atom_site_occupancy
  Cd  Cd1       1.0  0.50001  0.74873  0.25127  1.0000
  Cd  Cd2       1.0  0.50001  0.25127000000000005  0.74873  1.0000
  Cd  Cd3       1.0  0.29584999999999945  0.45516  0.9576700000000002  1.0000
  Cd  Cd4       1.0  0.7041699999999996  0.042330000000000007  0.54484  1.0000
  Cd  Cd5       1.0  0.7041699999999999  0.54484  0.04233000000000001  1.0000
  Cd  Cd6       1.0  0.29584999999999984  0.95767  0.4551600000000001  1.0000
  H   H1        1.0  0.5854099999999999  0.9456799999999999  0.9456800000000002  1.0000
  H   H2        1.0  0.1456599999999999  0.7522200000000001  0.7522100000000003  1.0000
  H   H3        1.0  0.41460999999999987  0.05431999999999999  0.05432000000000001  1.0000
  H   H4        1.0  0.85436  0.24778000000000008  0.24778  1.0000
  H   H5        1.0  0.47844999999999993  0.55511  0.55511  1.0000
  H   H6        1.0  0.6477499999999997  0.7459800000000002  0.7459800000000002  1.0000
  H   H7        1.0  0.52157  0.44489  0.4448800000000001  1.0000
  H   H8        1.0  0.35227  0.25402  0.25402  1.0000
  C   C1        1.0  0.69081  0.77112  0.04893  1.0000
  C   C2        1.0  0.7867899999999999  0.80789  0.9457700000000002  1.0000
  C   C3        1.0  0.9472699999999996  0.75269  0.8909400000000002  1.0000
  C   C4        1.0  0.03985000000000003  0.65177  0.93438  1.0000
  C   C5        1.0  0.30921000000000004  0.95107  0.22888000000000006  1.0000
  C   C6        1.0  0.21322999999999995  0.054219999999999983  0.19211000000000006  1.0000
  C   C7        1.0  0.05274999999999994  0.10905  0.24731000000000006  1.0000
  C   C8        1.0  0.96017  0.06561999999999998  0.34822000000000003  1.0000
  C   C9        1.0  0.5123499999999996  0.72803  0.45131  1.0000
  C   C10       1.0  0.5399899999999995  0.69217  0.55424  1.0000
  C   C11       1.0  0.5892299999999999  0.74679  0.60828  1.0000
  C   C12       1.0  0.6259499999999999  0.8471000000000001  0.5647800000000001  1.0000
  C   C13       1.0  0.4876699999999998  0.54868  0.27197  1.0000
  C   C14       1.0  0.46003  0.44576  0.3078300000000001  1.0000
  C   C15       1.0  0.41079  0.39170999999999995  0.25320000000000004  1.0000
  C   C16       1.0  0.37406999999999985  0.43522  0.15290000000000004  1.0000
  C   C17       1.0  0.30920999999999993  0.22887999999999997  0.9510700000000001  1.0000
  C   C18       1.0  0.21323  0.19211  0.05422  1.0000
  C   C19       1.0  0.05275000000000001  0.24731  0.10905000000000001  1.0000
  C   C20       1.0  0.9601699999999995  0.34823  0.06561  1.0000
  C   C21       1.0  0.69081  0.048929999999999994  0.77112  1.0000
  C   C22       1.0  0.78678  0.94578  0.8078900000000001  1.0000
  C   C23       1.0  0.9472699999999994  0.8909500000000002  0.75269  1.0000
  C   C24       1.0  0.039849999999999976  0.9343799999999999  0.6517700000000002  1.0000
  C   C25       1.0  0.48766999999999994  0.27197  0.54868  1.0000
  C   C26       1.0  0.46002999999999983  0.30783000000000005  0.44575  1.0000
  C   C27       1.0  0.41078999999999966  0.25321  0.3917100000000001  1.0000
  C   C28       1.0  0.37407  0.15290000000000006  0.43522  1.0000
  C   C29       1.0  0.5123499999999996  0.45132  0.7280200000000002  1.0000
  C   C30       1.0  0.5399899999999999  0.55424  0.69217  1.0000
  C   C31       1.0  0.5892299999999999  0.6082900000000001  0.74679  1.0000
  C   C32       1.0  0.6259499999999999  0.5647800000000001  0.8471000000000001  1.0000
  C   C33       1.0  0.7081799999999997  0.90325  0.9032500000000002  1.0000
  C   C34       1.0  0.023439999999999975  0.79486  0.7948500000000001  1.0000
  C   C35       1.0  0.29183999999999993  0.09675  0.09675000000000003  1.0000
  C   C36       1.0  0.9765799999999997  0.20514  0.20514  1.0000
  C   C37       1.0  0.51456  0.59721  0.59721  1.0000
  C   C38       1.0  0.6107699999999995  0.7041  0.7041000000000001  1.0000
  C   C39       1.0  0.48545999999999984  0.40279  0.40279  1.0000
  C   C40       1.0  0.38924999999999993  0.29590000000000005  0.2959  1.0000
  O   O1        1.0  0.7148699999999999  0.80141  0.11931000000000003  1.0000
  O   O2        1.0  0.57715  0.71957  0.06017000000000001  1.0000
  O   O3        1.0  0.9605599999999995  0.6054400000000002  0.014670000000000004  1.0000
  O   O4        1.0  0.20158999999999994  0.61573  0.88895  1.0000
  O   O5        1.0  0.2851499999999999  0.8806900000000001  0.19859000000000004  1.0000
  O   O6        1.0  0.42286999999999975  0.9398300000000003  0.2804200000000001  1.0000
  O   O7        1.0  0.03945999999999972  0.98533  0.39456000000000013  1.0000
  O   O8        1.0  0.79843  0.11105  0.38427  1.0000
  O   O9        1.0  0.63756  0.694  0.38151  1.0000
  O   O10       1.0  0.3588599999999998  0.78233  0.43962  1.0000
  O   O11       1.0  0.5856599999999998  0.89392  0.48366  1.0000
  O   O12       1.0  0.70241  0.88196  0.61159  1.0000
  O   O13       1.0  0.36246  0.61849  0.306  1.0000
  O   O14       1.0  0.6411599999999998  0.56038  0.21767000000000006  1.0000
  O   O15       1.0  0.41435999999999995  0.51634  0.10608  1.0000
  O   O16       1.0  0.2976099999999998  0.38841  0.11804  1.0000
  O   O17       1.0  0.28514999999999996  0.19859  0.88069  1.0000
  O   O18       1.0  0.42286999999999986  0.2804300000000001  0.93983  1.0000
  O   O19       1.0  0.03945999999999992  0.39456000000000013  0.98533  1.0000
  O   O20       1.0  0.7984299999999999  0.38427000000000006  0.11105  1.0000
  O   O21       1.0  0.7148700000000001  0.11931  0.80141  1.0000
  O   O22       1.0  0.5771499999999999  0.06017  0.71957  1.0000
  O   O23       1.0  0.9605599999999999  0.014670000000000004  0.60543  1.0000
  O   O24       1.0  0.20158999999999994  0.8889499999999998  0.6157300000000002  1.0000
  O   O25       1.0  0.36245999999999995  0.3059999999999999  0.6184900000000002  1.0000
  O   O26       1.0  0.6411599999999998  0.21767  0.5603800000000001  1.0000
  O   O27       1.0  0.4143599999999999  0.10608000000000001  0.5163400000000001  1.0000
  O   O28       1.0  0.29760999999999976  0.11804000000000003  0.3884000000000001  1.0000
  O   O29       1.0  0.63756  0.38151  0.694  1.0000
  O   O30       1.0  0.35885999999999996  0.43962  0.78233  1.0000
  O   O31       1.0  0.5856599999999998  0.48366000000000003  0.8939100000000002  1.0000
  O   O32       1.0  0.70241  0.6115900000000001  0.8819600000000002  1.0000
