data_image0
_chemical_formula_structural       Zn3H24C36N6O12
_chemical_formula_sum              "Zn3 H24 C36 N6 O12"
_cell_length_a       4.63704
_cell_length_b       16.64815
_cell_length_c       16.64922
_cell_angle_alpha    119.70606000000001
_cell_angle_beta     90.0
_cell_angle_gamma    90.0

_space_group_name_H-M_alt    "P 1"
_space_group_IT_number       1

loop_
  _space_group_symop_operation_xyz
  'x, y, z'

loop_
  _atom_site_type_symbol
  _atom_site_label
  _atom_site_symmetry_multiplicity
  _atom_site_fract_x
  _atom_site_fract_y
  _atom_site_fract_z
  _atom_site_occupancy
  Zn  Zn1       1.0  0.85633  0.5  0.0  1.0000
  Zn  Zn2       1.0  0.17841  0.5  0.5  1.0000
  Zn  Zn3       1.0  0.50761  0.0  0.5  1.0000
  H   H1        1.0  0.11749000000000001  0.6274500000000001  0.86008  1.0000
  H   H2        1.0  0.35151  0.6036  0.98447  1.0000
  H   H3        1.0  0.9881900000000001  0.43853  0.80491  1.0000
  H   H4        1.0  0.78417  0.45933000000000007  0.67476  1.0000
  H   H5        1.0  0.44324  0.23321  0.37241  1.0000
  H   H6        1.0  0.67238  0.38234  0.39785  1.0000
  H   H7        1.0  0.31483  0.36564  0.56083  1.0000
  H   H8        1.0  0.11657000000000001  0.21344999999999995  0.53806  1.0000
  H   H9        1.0  0.77864  0.14192999999999983  0.7694999999999997  1.0000
  H   H10       1.0  0.9997899999999998  0.017339999999999987  0.62016  1.0000
  H   H11       1.0  0.65001  0.19296  0.6325  1.0000
  H   H12       1.0  0.46107999999999993  0.32268  0.78505  1.0000
  H   H13       1.0  0.11749000000000001  0.37255  0.13992  1.0000
  H   H14       1.0  0.35151  0.39639  0.01553  1.0000
  H   H15       1.0  0.9881900000000001  0.56147  0.19508999999999999  1.0000
  H   H16       1.0  0.78417  0.54067  0.32524  1.0000
  H   H17       1.0  0.44324  0.76679  0.6276  1.0000
  H   H18       1.0  0.67238  0.61766  0.60216  1.0000
  H   H19       1.0  0.31483  0.63436  0.43917  1.0000
  H   H20       1.0  0.11657000000000001  0.78654  0.46195  1.0000
  H   H21       1.0  0.77864  0.85807  0.2305  1.0000
  H   H22       1.0  0.9997899999999998  0.9826600000000001  0.37984  1.0000
  H   H23       1.0  0.65001  0.80704  0.3675  1.0000
  H   H24       1.0  0.46107999999999993  0.67732  0.21495  1.0000
  C   C1        1.0  0.29293  0.54976  0.68075  1.0000
  C   C2        1.0  0.43185000000000007  0.54135  0.75703  1.0000
  C   C3        1.0  0.30035  0.5815  0.84471  1.0000
  C   C4        1.0  0.43604  0.57186  0.91455  1.0000
  C   C5        1.0  0.80731  0.48381999999999986  0.8152299999999999  1.0000
  C   C6        1.0  0.6852  0.49185  0.74259  1.0000
  C   C7        1.0  0.62456  0.12969999999999998  0.44864999999999994  1.0000
  C   C8        1.0  0.7609  0.21487999999999996  0.45739  1.0000
  C   C9        1.0  0.62655  0.26323  0.4181699999999999  1.0000
  C   C10       1.0  0.75968  0.34329  0.42859  1.0000
  C   C11       1.0  0.13422  0.33092  0.51546  1.0000
  C   C12       1.0  0.01464  0.24969  0.50666  1.0000
  C   C13       1.0  0.96749  0.3202  0.87035  1.0000
  C   C14       1.0  0.10009  0.24316  0.78525  1.0000
  C   C15       1.0  0.9621699999999999  0.15646999999999994  0.73834  1.0000
  C   C16       1.0  0.09129  0.08631000000000004  0.65821  1.0000
  C   C17       1.0  0.46958  0.18325999999999995  0.66811  1.0000
  C   C18       1.0  0.3543  0.2561  0.74934  1.0000
  C   C19       1.0  0.29293  0.45024  0.31925  1.0000
  C   C20       1.0  0.43185000000000007  0.45865000000000006  0.24298  1.0000
  C   C21       1.0  0.30035  0.4185  0.15529  1.0000
  C   C22       1.0  0.43604  0.42814  0.08545  1.0000
  C   C23       1.0  0.80731  0.51618  0.18476999999999993  1.0000
  C   C24       1.0  0.6852  0.50815  0.25742  1.0000
  C   C25       1.0  0.62456  0.8703000000000001  0.55135  1.0000
  C   C26       1.0  0.7609  0.78512  0.54261  1.0000
  C   C27       1.0  0.62655  0.73677  0.58183  1.0000
  C   C28       1.0  0.75968  0.65671  0.57141  1.0000
  C   C29       1.0  0.13422  0.66908  0.48454  1.0000
  C   C30       1.0  0.01464  0.75031  0.49335  1.0000
  C   C31       1.0  0.96749  0.6798  0.12965  1.0000
  C   C32       1.0  0.10009  0.7568400000000001  0.21476  1.0000
  C   C33       1.0  0.9621699999999999  0.8435300000000001  0.26166  1.0000
  C   C34       1.0  0.09129  0.9136899999999999  0.3418  1.0000
  C   C35       1.0  0.46958  0.81674  0.3319  1.0000
  C   C36       1.0  0.3543  0.7439000000000001  0.25067  1.0000
  N   N1        1.0  0.67914  0.52258  0.89989  1.0000
  N   N2        1.0  0.00312  0.37758  0.47757999999999995  1.0000
  N   N3        1.0  0.33449  0.09971000000000005  0.62251  1.0000
  N   N4        1.0  0.67914  0.47742  0.10011  1.0000
  N   N5        1.0  0.00312  0.62242  0.52242  1.0000
  N   N6        1.0  0.33449  0.9002900000000003  0.37749  1.0000
  O   O1        1.0  0.43382  0.5117899999999999  0.6025599999999999  1.0000
  O   O2        1.0  0.05473  0.58956  0.6947  1.0000
  O   O3        1.0  0.76824  0.08941999999999996  0.4865  1.0000
  O   O4        1.0  0.38623  0.10371000000000002  0.40899  1.0000
  O   O5        1.0  0.11362999999999998  0.3974299999999999  0.9094399999999998  1.0000
  O   O6        1.0  0.72856  0.30774  0.8971599999999997  1.0000
  O   O7        1.0  0.43382  0.48821  0.39745  1.0000
  O   O8        1.0  0.05473  0.41044000000000014  0.3053  1.0000
  O   O9        1.0  0.76824  0.91058  0.51351  1.0000
  O   O10       1.0  0.38623  0.89629  0.59102  1.0000
  O   O11       1.0  0.11362999999999998  0.60257  0.09056  1.0000
  O   O12       1.0  0.72856  0.69226  0.10283999999999997  1.0000
