data_image0
_chemical_formula_structural       Cu6H16C32N24O8
_chemical_formula_sum              "Cu6 H16 C32 N24 O8"
_cell_length_a       11.21525
_cell_length_b       11.20775
_cell_length_c       13.54751
_cell_angle_alpha    114.53731
_cell_angle_beta     114.33141
_cell_angle_gamma    89.96652

_space_group_name_H-M_alt    "P 1"
_space_group_IT_number       1

loop_
  _space_group_symop_operation_xyz
  'x, y, z'

loop_
  _atom_site_type_symbol
  _atom_site_label
  _atom_site_symmetry_multiplicity
  _atom_site_fract_x
  _atom_site_fract_y
  _atom_site_fract_z
  _atom_site_occupancy
  Cu  Cu1       1.0  0.89101  0.89114  0.78214  1.0000
  Cu  Cu2       1.0  0.10974999999999997  0.10869000000000001  0.21833  1.0000
  Cu  Cu3       1.0  0.36153999999999986  0.8597  0.71877  1.0000
  Cu  Cu4       1.0  0.13981999999999997  0.64207  0.28195  1.0000
  Cu  Cu5       1.0  0.75143  0.2485  0.50007  1.0000
  Cu  Cu6       1.0  0.5013099999999999  0.49837999999999993  0.0  1.0000
  H   H1        1.0  0.9144099999999998  0.22311  0.38284000000000007  1.0000
  H   H2        1.0  0.9813199999999999  0.32362  0.34123  1.0000
  H   H3        1.0  0.4719499999999999  0.15919999999999998  0.38404  1.0000
  H   H4        1.0  0.36232999999999993  0.018379999999999997  0.34316  1.0000
  H   H5        1.0  0.8413299999999999  0.08570999999999998  0.61657  1.0000
  H   H6        1.0  0.9831399999999998  0.01851000000000005  0.65836  1.0000
  H   H7        1.0  0.7765699999999998  0.52912  0.61649  1.0000
  H   H8        1.0  0.6763699999999999  0.63841  0.65757  1.0000
  H   H9        1.0  0.33737999999999996  0.58974  0.11642  1.0000
  H   H10       1.0  0.26969  0.73175  0.15756  1.0000
  H   H11       1.0  0.77989  0.52591  0.11588  1.0000
  H   H12       1.0  0.8895499999999998  0.42673  0.15878  1.0000
  H   H13       1.0  0.41042  0.21900999999999998  0.88383  1.0000
  H   H14       1.0  0.2677999999999999  0.11074000000000009  0.84164  1.0000
  H   H15       1.0  0.47455999999999987  0.66218  0.88414  1.0000
  H   H16       1.0  0.57423  0.7306699999999999  0.84259  1.0000
  C   C1        1.0  0.9728399999999998  0.55485  0.5017  1.0000
  C   C2        1.0  0.02931999999999999  0.57946  0.4357  1.0000
  C   C3        1.0  0.9596199999999999  0.66339  0.59408  1.0000
  C   C4        1.0  0.9237299999999998  0.4214399999999999  0.47558  1.0000
  C   C5        1.0  0.5292  0.9453900000000001  0.50165  1.0000
  C   C6        1.0  0.4061  0.85607  0.43561  1.0000
  C   C7        1.0  0.63428  0.9287500000000001  0.59351  1.0000
  C   C8        1.0  0.55372  0.05262999999999999  0.47611  1.0000
  C   C9        1.0  0.055500000000000035  0.026570000000000017  0.49894000000000005  1.0000
  C   C10       1.0  0.1456  0.97043  0.56533  1.0000
  C   C11       1.0  0.07187000000000003  0.039939999999999996  0.40686000000000005  1.0000
  C   C12       1.0  0.94805  0.07592  0.52451  1.0000
  C   C13       1.0  0.44564  0.46984  0.49806000000000006  1.0000
  C   C14       1.0  0.42145999999999995  0.59289  0.56405  1.0000
  C   C15       1.0  0.33725  0.36455  0.40603000000000006  1.0000
  C   C16       1.0  0.57868  0.44623  0.52383  1.0000
  C   C17       1.0  0.27796999999999994  0.8026199999999999  0.99771  1.0000
  C   C18       1.0  0.22120999999999993  0.89273  0.06403  1.0000
  C   C19       1.0  0.29178999999999994  0.8195400000000002  0.9060400000000001  1.0000
  C   C20       1.0  0.32754  0.6953099999999998  0.02353  1.0000
  C   C21       1.0  0.7228899999999998  0.19415999999999997  0.9984  1.0000
  C   C22       1.0  0.8453799999999998  0.17028  0.06471  1.0000
  C   C23       1.0  0.61785  0.08550000000000003  0.90629  1.0000
  C   C24       1.0  0.69874  0.32719  0.02393  1.0000
  C   C25       1.0  0.19665999999999997  0.27925  0.00199  1.0000
  C   C26       1.0  0.10623999999999999  0.15663000000000005  0.93562  1.0000
  C   C27       1.0  0.18002  0.38494  0.09406  1.0000
  C   C28       1.0  0.30462000000000006  0.3022800000000001  0.97668  1.0000
  C   C29       1.0  0.8056499999999999  0.72343  0.0021  1.0000
  C   C30       1.0  0.8293199999999998  0.78008  0.93588  1.0000
  C   C31       1.0  0.91421  0.71059  0.09415000000000001  1.0000
  C   C32       1.0  0.67294  0.67327  0.9765  1.0000
  N   N1        1.0  0.92813  0.31379  0.38357  1.0000
  N   N2        1.0  0.07463999999999997  0.59864  0.3781  1.0000
  N   N3        1.0  0.9465999999999998  0.7522400000000001  0.67165  1.0000
  N   N4        1.0  0.4580499999999999  0.06944999999999997  0.38491  1.0000
  N   N5        1.0  0.30258  0.7805300000000001  0.37827  1.0000
  N   N6        1.0  0.72523  0.91822  0.6709  1.0000
  N   N7        1.0  0.9312399999999998  0.07156999999999998  0.61591  1.0000
  N   N8        1.0  0.22227999999999995  0.92537  0.62303  1.0000
  N   N9        1.0  0.08246999999999997  0.053459999999999994  0.32933  1.0000
  N   N10       1.0  0.6860199999999999  0.54255  0.61573  1.0000
  N   N11       1.0  0.40325  0.6965699999999998  0.62174  1.0000
  N   N12       1.0  0.24861999999999995  0.27406  0.32869  1.0000
  N   N13       1.0  0.32277  0.67934  0.11510999999999999  1.0000
  N   N14       1.0  0.17522  0.9689  0.12152000000000002  1.0000
  N   N15       1.0  0.30559  0.8309600000000001  0.82893  1.0000
  N   N16       1.0  0.7939099999999999  0.43557  0.11576  1.0000
  N   N17       1.0  0.9483699999999998  0.15184  0.12261  1.0000
  N   N18       1.0  0.52722  0.9970299999999999  0.82891  1.0000
  N   N19       1.0  0.3205999999999999  0.20610000000000003  0.88474  1.0000
  N   N20       1.0  0.02986000000000002  0.05349000000000011  0.8780800000000001  1.0000
  N   N21       1.0  0.16868999999999998  0.47589999999999993  0.17138  1.0000
  N   N22       1.0  0.56507  0.67732  0.88499  1.0000
  N   N23       1.0  0.8480799999999998  0.8259899999999999  0.87851  1.0000
  N   N24       1.0  0.002350000000000008  0.69749  0.1717  1.0000
  O   O1        1.0  0.8728499999999998  0.40676999999999996  0.54094  1.0000
  O   O2        1.0  0.67072  0.13102  0.54101  1.0000
  O   O3        1.0  0.86921  0.12719000000000003  0.45909  1.0000
  O   O4        1.0  0.59337  0.32963  0.45872  1.0000
  O   O5        1.0  0.37953000000000003  0.61605  0.9586600000000001  1.0000
  O   O6        1.0  0.5821  0.34042  0.95813  1.0000
  O   O7        1.0  0.38475  0.41847  0.04246  1.0000
  O   O8        1.0  0.6594199999999999  0.62157  0.04174  1.0000
