data_image0
_chemical_formula_structural       Er2Zn2H12C30N4O20
_chemical_formula_sum              "Er2 Zn2 H12 C30 N4 O20"
_cell_length_a       10.07781
_cell_length_b       11.12654
_cell_length_c       9.77341
_cell_angle_alpha    85.00513
_cell_angle_beta     74.73471
_cell_angle_gamma    72.60333

_space_group_name_H-M_alt    "P 1"
_space_group_IT_number       1

loop_
  _space_group_symop_operation_xyz
  'x, y, z'

loop_
  _atom_site_type_symbol
  _atom_site_label
  _atom_site_symmetry_multiplicity
  _atom_site_fract_x
  _atom_site_fract_y
  _atom_site_fract_z
  _atom_site_occupancy
  Er  Er1       1.0  0.17575999999999997  0.16628  0.05342  1.0000
  Er  Er2       1.0  0.82416  0.83373  0.94659  1.0000
  Zn  Zn1       1.0  0.25259  0.35885  0.61871  1.0000
  Zn  Zn2       1.0  0.74736  0.6411499999999999  0.38138  1.0000
  H   H1        1.0  0.02173000000000002  0.21344999999999995  0.7521199999999999  1.0000
  H   H2        1.0  0.81135  0.18922  0.67856  1.0000
  H   H3        1.0  0.77063  0.28268999999999994  0.44277  1.0000
  H   H4        1.0  0.4847199999999999  0.27226  0.35258999999999996  1.0000
  H   H5        1.0  0.71697  0.09515  0.2828499999999999  1.0000
  H   H6        1.0  0.8091599999999999  0.9603099999999999  0.47458  1.0000
  H   H7        1.0  0.9782400000000001  0.78652  0.24794  1.0000
  H   H8        1.0  0.18863000000000005  0.8107599999999999  0.32148  1.0000
  H   H9        1.0  0.22934999999999992  0.71729  0.5572899999999997  1.0000
  H   H10       1.0  0.51533  0.72771  0.64744  1.0000
  H   H11       1.0  0.28312000000000004  0.9048299999999998  0.7171599999999998  1.0000
  H   H12       1.0  0.19084  0.03962999999999999  0.52547  1.0000
  C   C1        1.0  0.00011999999999999385  0.24944999999999998  0.65078  1.0000
  C   C2        1.0  0.8835599999999999  0.23688999999999996  0.60838  1.0000
  C   C3        1.0  0.8626  0.28787  0.47768  1.0000
  C   C4        1.0  0.9593499999999999  0.34762  0.39094  1.0000
  C   C5        1.0  0.07374000000000003  0.3570199999999999  0.44101  1.0000
  C   C6        1.0  0.17891000000000012  0.4279399999999999  0.35965999999999987  1.0000
  C   C7        1.0  0.93428  0.4013099999999999  0.24974  1.0000
  C   C8        1.0  0.52887  0.20688999999999996  0.42994  1.0000
  C   C9        1.0  0.6567399999999999  0.11009  0.39314  1.0000
  C   C10       1.0  0.7072699999999998  0.03382999999999999  0.50013  1.0000
  C   C11       1.0  0.62791  0.05261999999999999  0.64177  1.0000
  C   C12       1.0  0.4965200000000001  0.14737  0.66913  1.0000
  C   C13       1.0  0.3908499999999997  0.16460999999999998  0.81085  1.0000
  C   C14       1.0  0.6926900000000001  0.9757  0.7550499999999998  1.0000
  C   C15       1.0  0.94694  0.01897  0.07194999999999999  1.0000
  C   C16       1.0  0.99986  0.75052  0.34927  1.0000
  C   C17       1.0  0.11641000000000006  0.7630999999999999  0.39167  1.0000
  C   C18       1.0  0.13739  0.71212  0.52236  1.0000
  C   C19       1.0  0.04066999999999999  0.65234  0.6090999999999999  1.0000
  C   C20       1.0  0.92625  0.64297  0.55906  1.0000
  C   C21       1.0  0.8210799999999999  0.57206  0.64042  1.0000
  C   C22       1.0  0.06565999999999994  0.59871  0.75031  1.0000
  C   C23       1.0  0.47115999999999986  0.79306  0.57008  1.0000
  C   C24       1.0  0.34330999999999984  0.88987  0.6068699999999999  1.0000
  C   C25       1.0  0.29278000000000004  0.9661399999999998  0.49989  1.0000
  C   C26       1.0  0.37211999999999995  0.94732  0.35825  1.0000
  C   C27       1.0  0.50353  0.8525999999999998  0.33086  1.0000
  C   C28       1.0  0.6092099999999999  0.8354199999999999  0.18916999999999998  1.0000
  C   C29       1.0  0.30733  0.02422  0.24498  1.0000
  C   C30       1.0  0.05339  0.98079  0.92799  1.0000
  N   N1        1.0  0.09185  0.30804  0.56858  1.0000
  N   N2        1.0  0.4511199999999999  0.22387999999999997  0.56535  1.0000
  N   N3        1.0  0.9081099999999998  0.69196  0.43149999999999994  1.0000
  N   N4        1.0  0.5488999999999999  0.7760799999999999  0.4346499999999999  1.0000
  O   O1        1.0  0.15966  0.47858  0.24559  1.0000
  O   O2        1.0  0.27836  0.4309799999999999  0.41971999999999987  1.0000
  O   O3        1.0  0.010729999999999991  0.33829  0.13888  1.0000
  O   O4        1.0  0.8290399999999999  0.49752  0.24639  1.0000
  O   O5        1.0  0.26698000000000005  0.24749999999999994  0.82122  1.0000
  O   O6        1.0  0.4192099999999999  0.09567999999999999  0.9144799999999998  1.0000
  O   O7        1.0  0.7060600000000001  0.85738  0.76513  1.0000
  O   O8        1.0  0.7445099999999997  0.029039999999999996  0.82974  1.0000
  O   O9        1.0  0.96751  0.09931999999999999  0.14181  1.0000
  O   O10       1.0  0.8472099999999999  0.96575  0.10834  1.0000
  O   O11       1.0  0.84038  0.52141  0.7545  1.0000
  O   O12       1.0  0.72164  0.569  0.58038  1.0000
  O   O13       1.0  0.98921  0.6617  0.86112  1.0000
  O   O14       1.0  0.17094  0.50246  0.7536699999999998  1.0000
  O   O15       1.0  0.7330199999999999  0.75251  0.17879  1.0000
  O   O16       1.0  0.58085  0.9043899999999999  0.08552  1.0000
  O   O17       1.0  0.29396999999999995  0.14254999999999998  0.23486  1.0000
  O   O18       1.0  0.25543  0.97092  0.17039999999999994  1.0000
  O   O19       1.0  0.03275999999999998  0.9004599999999999  0.85813  1.0000
  O   O20       1.0  0.15312000000000003  0.03398  0.8916199999999999  1.0000
