data_image0
_chemical_formula_structural       La4H8C20O24
_chemical_formula_sum              "La4 H8 C20 O24"
_cell_length_a       8.83858
_cell_length_b       8.85646
_cell_length_c       16.040339999999997
_cell_angle_alpha    100.16139999999999
_cell_angle_beta     99.59411
_cell_angle_gamma    112.13783

_space_group_name_H-M_alt    "P 1"
_space_group_IT_number       1

loop_
  _space_group_symop_operation_xyz
  'x, y, z'

loop_
  _atom_site_type_symbol
  _atom_site_label
  _atom_site_symmetry_multiplicity
  _atom_site_fract_x
  _atom_site_fract_y
  _atom_site_fract_z
  _atom_site_occupancy
  La  La1       1.0  0.7305  0.97898  0.4566  1.0000
  La  La2       1.0  0.52138  0.77186  0.04276999999999999  1.0000
  La  La3       1.0  0.2695099999999999  0.02102999999999986  0.5433999999999998  1.0000
  La  La4       1.0  0.47862999999999994  0.2281399999999999  0.9572299999999998  1.0000
  H   H1        1.0  0.9010399999999998  0.44228  0.56539  1.0000
  H   H2        1.0  0.6644699999999999  0.6243999999999997  0.56382  1.0000
  H   H3        1.0  0.060149999999999954  0.5998  0.9352599999999999  1.0000
  H   H4        1.0  0.87574  0.8342  0.9350299999999999  1.0000
  H   H5        1.0  0.09896999999999997  0.55773  0.43461  1.0000
  H   H6        1.0  0.33554  0.3756  0.4361799999999999  1.0000
  H   H7        1.0  0.93986  0.4002  0.06473999999999998  1.0000
  H   H8        1.0  0.12426999999999999  0.16579999999999995  0.06496999999999999  1.0000
  C   C1        1.0  0.63226  0.30694  0.56077  1.0000
  C   C2        1.0  0.78513  0.4584599999999999  0.56602  1.0000
  C   C3        1.0  0.9309499999999996  0.7534499999999995  0.5614499999999998  1.0000
  C   C4        1.0  0.78112  0.6084  0.56582  1.0000
  C   C5        1.0  0.19300999999999985  0.8681399999999998  0.9391899999999999  1.0000
  C   C6        1.0  0.04242999999999996  0.71457  0.93409  1.0000
  C   C7        1.0  0.74586  0.5697  0.9387799999999997  1.0000
  C   C8        1.0  0.8918799999999999  0.71805  0.9339499999999997  1.0000
  C   C9        1.0  0.36775  0.69306  0.43923  1.0000
  C   C10       1.0  0.21488  0.54154  0.43398  1.0000
  C   C11       1.0  0.06905999999999993  0.24654999999999988  0.4385499999999999  1.0000
  C   C12       1.0  0.21889  0.3915999999999999  0.43418  1.0000
  C   C13       1.0  0.80699  0.13185999999999995  0.060819999999999985  1.0000
  C   C14       1.0  0.9575800000000001  0.2854299999999999  0.06590999999999997  1.0000
  C   C15       1.0  0.25415  0.43029999999999996  0.06121999999999998  1.0000
  C   C16       1.0  0.10813  0.28195  0.06605999999999997  1.0000
  C   C17       1.0  0.5723  0.92801  0.25005  1.0000
  C   C18       1.0  0.6779599999999999  0.8212399999999997  0.24935999999999994  1.0000
  C   C19       1.0  0.42771  0.07198999999999998  0.74995  1.0000
  C   C20       1.0  0.32205000000000006  0.17875999999999995  0.75064  1.0000
  O   O1        1.0  0.56058  0.99374  0.3242599999999999  1.0000
  O   O2        1.0  0.64484  0.16401  0.54875  1.0000
  O   O3        1.0  0.49441999999999997  0.3163699999999999  0.5663299999999998  1.0000
  O   O4        1.0  0.7631899999999999  0.8282899999999999  0.3229999999999999  1.0000
  O   O5        1.0  0.9088800000000001  0.8834800000000002  0.54574  1.0000
  O   O6        1.0  0.07478999999999993  0.7499099999999997  0.57084  1.0000
  O   O7        1.0  0.5066000000000002  0.9400500000000002  0.17638  1.0000
  O   O8        1.0  0.3371199999999999  0.8577799999999999  0.9517699999999998  1.0000
  O   O9        1.0  0.18212999999999988  0.004829999999999873  0.9332899999999997  1.0000
  O   O10       1.0  0.66998  0.73583  0.17518999999999996  1.0000
  O   O11       1.0  0.61408  0.59261  0.95127  1.0000
  O   O12       1.0  0.7505200000000001  0.4268499999999999  0.9327799999999998  1.0000
  O   O13       1.0  0.4394299999999998  0.006259999999999924  0.6757499999999997  1.0000
  O   O14       1.0  0.35517  0.8359899999999998  0.45125  1.0000
  O   O15       1.0  0.50559  0.6836299999999998  0.4336699999999999  1.0000
  O   O16       1.0  0.23682  0.17170999999999995  0.677  1.0000
  O   O17       1.0  0.09112999999999997  0.11652  0.45425999999999994  1.0000
  O   O18       1.0  0.92522  0.2501  0.42916  1.0000
  O   O19       1.0  0.49341  0.059950000000000024  0.82363  1.0000
  O   O20       1.0  0.6628900000000002  0.14222  0.04822999999999999  1.0000
  O   O21       1.0  0.81788  0.99517  0.06670999999999998  1.0000
  O   O22       1.0  0.33003  0.26417  0.82481  1.0000
  O   O23       1.0  0.38593  0.40738999999999975  0.04873  1.0000
  O   O24       1.0  0.24949  0.57315  0.06722  1.0000
