data_image0
_chemical_formula_structural       Tb4H36C30O24
_chemical_formula_sum              "Tb4 H36 C30 O24"
_cell_length_a       8.0056
_cell_length_b       8.42997
_cell_length_c       19.2687
_cell_angle_alpha    88.13073
_cell_angle_beta     86.26003
_cell_angle_gamma    61.7183

_symmetry_space_group_name_H-M    'P 1'
_symmetry_Int_Tables_number       1

loop_
  _symmetry_equiv_pos_as_xyz
  'x,y,z'

loop_
  _atom_site_type_symbol
  _atom_site_label
  _atom_site_symmetry_multiplicity
  _atom_site_fract_x
  _atom_site_fract_y
  _atom_site_fract_z
  _atom_site_occupancy
  Tb  Tb1       1.0  0.7863400000000004  0.9419100000000002  0.48379000000000005  1.0000
  Tb  Tb2       1.0  0.26913  0.94176  0.01655  1.0000
  Tb  Tb3       1.0  0.20836999999999997  0.05991  0.51635  1.0000
  Tb  Tb4       1.0  0.7316800000000002  0.05714000000000002  0.9836300000000001  1.0000
  H   H1        1.0  0.24496000000000004  0.52002  0.32961  1.0000
  H   H2        1.0  0.0406999999999999  0.5421300000000002  0.29359  1.0000
  H   H3        1.0  0.9939  0.82445  0.23  1.0000
  H   H4        1.0  0.6593099999999998  0.55205  0.47006000000000003  1.0000
  H   H5        1.0  0.8625800000000002  0.4566400000000001  0.41341  1.0000
  H   H6        1.0  0.65746  0.4518000000000001  0.31771  1.0000
  H   H7        1.0  0.45663999999999993  0.54988  0.37619  1.0000
  H   H8        1.0  0.48487  0.77354  0.29319000000000006  1.0000
  H   H9        1.0  0.7016700000000001  0.73121  0.32957  1.0000
  H   H10       1.0  0.2319100000000001  0.51959  0.17165  1.0000
  H   H11       1.0  0.41489999999999994  0.54237  0.20696  1.0000
  H   H12       1.0  0.18152999999999997  0.8234700000000001  0.27075  1.0000
  H   H13       1.0  0.78729  0.55243  0.029440000000000004  1.0000
  H   H14       1.0  0.6786400000000002  0.45584000000000013  0.08544  1.0000
  H   H15       1.0  0.8890799999999999  0.4472300000000001  0.18156  1.0000
  H   H16       1.0  0.9918799999999999  0.54763  0.12378  1.0000
  H   H17       1.0  0.73972  0.7689700000000003  0.20694000000000004  1.0000
  H   H18       1.0  0.5662500000000003  0.72657  0.17004  1.0000
  H   H19       1.0  0.7534899999999998  0.48115000000000013  0.67079  1.0000
  H   H20       1.0  0.9584600000000001  0.4585800000000001  0.70681  1.0000
  H   H21       1.0  0.00446  0.17715  0.77062  1.0000
  H   H22       1.0  0.3376400000000001  0.4507400000000001  0.52946  1.0000
  H   H23       1.0  0.13504999999999986  0.5438700000000002  0.58642  1.0000
  H   H24       1.0  0.34093999999999997  0.5494000000000001  0.68187  1.0000
  H   H25       1.0  0.5413300000000001  0.45098  0.62319  1.0000
  H   H26       1.0  0.51251  0.22779000000000005  0.70642  1.0000
  H   H27       1.0  0.29571  0.27061  0.67008  1.0000
  H   H28       1.0  0.76614  0.4810300000000001  0.82929  1.0000
  H   H29       1.0  0.5832799999999999  0.45923000000000014  0.79349  1.0000
  H   H30       1.0  0.8171999999999999  0.17755000000000007  0.72982  1.0000
  H   H31       1.0  0.21217999999999998  0.44672  0.97066  1.0000
  H   H32       1.0  0.32069  0.54305  0.9144599999999999  1.0000
  H   H33       1.0  0.11108999999999994  0.55063  0.8183000000000001  1.0000
  H   H34       1.0  0.007649999999999948  0.45118  0.8761900000000001  1.0000
  H   H35       1.0  0.25942000000000004  0.22889000000000007  0.79335  1.0000
  H   H36       1.0  0.43362  0.27125000000000005  0.82993  1.0000
  C   C1        1.0  0.9884300000000004  0.7351300000000002  0.37149000000000004  1.0000
  C   C2        1.0  0.10849999999999999  0.62109  0.31021  1.0000
  C   C3        1.0  0.74596  0.28322  0.44609000000000004  1.0000
  C   C4        1.0  0.7227099999999999  0.4644100000000001  0.42399  1.0000
  C   C5        1.0  0.5951299999999998  0.5430200000000002  0.36249  1.0000
  C   C6        1.0  0.56534  0.73157  0.34034  1.0000
  C   C7        1.0  0.45078999999999997  0.8668700000000003  0.39622  1.0000
  C   C8        1.0  0.27374999999999994  0.73467  0.1289  1.0000
  C   C9        1.0  0.26796999999999993  0.6208200000000003  0.1905  1.0000
  C   C10       1.0  0.96882  0.28248  0.05342000000000001  1.0000
  C   C11       1.0  0.8110000000000002  0.46338  0.07518  1.0000
  C   C12       1.0  0.8604600000000003  0.53998  0.13714  1.0000
  C   C13       1.0  0.7018000000000001  0.72777  0.15952  1.0000
  C   C14       1.0  0.6805800000000002  0.8643700000000002  0.10384  1.0000
  C   C15       1.0  0.009989999999999983  0.26595  0.62884  1.0000
  C   C16       1.0  0.8900800000000001  0.38012  0.69017  1.0000
  C   C17       1.0  0.24985  0.7193  0.5547  1.0000
  C   C18       1.0  0.27438000000000007  0.53725  0.57583  1.0000
  C   C19       1.0  0.40276  0.4581900000000001  0.63708  1.0000
  C   C20       1.0  0.4321699999999999  0.26984000000000014  0.65927  1.0000
  C   C21       1.0  0.5466900000000002  0.13394000000000003  0.60359  1.0000
  C   C22       1.0  0.72461  0.2655500000000001  0.8713500000000001  1.0000
  C   C23       1.0  0.73009  0.38025  0.80997  1.0000
  C   C24       1.0  0.031070000000000007  0.7164  0.94649  1.0000
  C   C25       1.0  0.18852000000000008  0.53529  0.9247600000000001  1.0000
  C   C26       1.0  0.13934000000000002  0.4583000000000001  0.8628400000000002  1.0000
  C   C27       1.0  0.29794  0.27029  0.84057  1.0000
  C   C28       1.0  0.31922  0.13385  0.89628  1.0000
  C   C29       1.0  0.13254999999999995  0.7335  0.25035  1.0000
  C   C30       1.0  0.8659400000000002  0.26781  0.75011  1.0000
  O   O1        1.0  0.8912100000000002  0.9056700000000002  0.36467  1.0000
  O   O2        1.0  0.9824200000000001  0.65887  0.43009  1.0000
  O   O3        1.0  0.6097400000000001  0.24645000000000006  0.44436  1.0000
  O   O4        1.0  0.90607  0.16123  0.46868000000000004  1.0000
  O   O5        1.0  0.5330199999999999  0.91341  0.44102  1.0000
  O   O6        1.0  0.27211999999999986  0.9289100000000002  0.40224  1.0000
  O   O7        1.0  0.20001999999999986  0.9053700000000002  0.13535  1.0000
  O   O8        1.0  0.35657999999999995  0.65836  0.07052000000000001  1.0000
  O   O9        1.0  0.14148000000000008  0.24624  0.05553  1.0000
  O   O10       1.0  0.9317200000000001  0.15953000000000006  0.031170000000000003  1.0000
  O   O11       1.0  0.5506399999999999  0.9129200000000002  0.05937  1.0000
  O   O12       1.0  0.79819  0.92551  0.09769  1.0000
  O   O13       1.0  0.10783000000000001  0.09542000000000003  0.63554  1.0000
  O   O14       1.0  0.01535999999999999  0.34213  0.57013  1.0000
  O   O15       1.0  0.3843499999999999  0.7576900000000002  0.55834  1.0000
  O   O16       1.0  0.09077000000000003  0.84055  0.5311100000000001  1.0000
  O   O17       1.0  0.46502000000000016  0.0865  0.55891  1.0000
  O   O18       1.0  0.72551  0.0717  0.5977  1.0000
  O   O19       1.0  0.79969  0.09485  0.8647  1.0000
  O   O20       1.0  0.6416100000000001  0.34115  0.92984  1.0000
  O   O21       1.0  0.8581900000000008  0.7532800000000002  0.9444  1.0000
  O   O22       1.0  0.06876999999999996  0.83895  0.96877  1.0000
  O   O23       1.0  0.4493499999999999  0.08561000000000002  0.94065  1.0000
  O   O24       1.0  0.20176000000000008  0.07247  0.9024400000000001  1.0000
