data_image0
_chemical_formula_structural       Co4H28C36N16O8
_chemical_formula_sum              "Co4 H28 C36 N16 O8"
_cell_length_a       9.45078
_cell_length_b       10.06892
_cell_length_c       15.72356
_cell_angle_alpha    100.63788
_cell_angle_beta     90.0
_cell_angle_gamma    90.0

_symmetry_space_group_name_H-M    'P 1'
_symmetry_Int_Tables_number       1

loop_
  _symmetry_equiv_pos_as_xyz
  'x,y,z'

loop_
  _atom_site_type_symbol
  _atom_site_label
  _atom_site_symmetry_multiplicity
  _atom_site_fract_x
  _atom_site_fract_y
  _atom_site_fract_z
  _atom_site_occupancy
  Co  Co1       1.0  0.41515  0.35789  0.91786  1.0000
  Co  Co2       1.0  0.08485  0.8578900000000002  0.91786  1.0000
  Co  Co3       1.0  0.91515  0.14211  0.08214  1.0000
  Co  Co4       1.0  0.58485  0.64211  0.08214  1.0000
  H   H1        1.0  0.8670599999999998  0.3817399999999999  0.5901299999999998  1.0000
  H   H2        1.0  0.13295  0.6182699999999999  0.4098699999999999  1.0000
  H   H3        1.0  0.75875  0.54759  0.92366  1.0000
  H   H4        1.0  0.31022  0.04965999999999994  0.8660399999999998  1.0000
  H   H5        1.0  0.73129  0.6164999999999999  0.3502499999999999  1.0000
  H   H6        1.0  0.60724  0.11782  0.86652  1.0000
  H   H7        1.0  0.23128999999999997  0.88351  0.6497599999999998  1.0000
  H   H8        1.0  0.8102299999999999  0.45033999999999996  0.13396  1.0000
  H   H9        1.0  0.39276  0.88218  0.13347999999999996  1.0000
  H   H10       1.0  0.7687199999999997  0.11649999999999999  0.3502499999999999  1.0000
  H   H11       1.0  0.4695  0.9617400000000002  0.3472999999999999  1.0000
  H   H12       1.0  0.89276  0.61783  0.86652  1.0000
  H   H13       1.0  0.5305099999999999  0.03826  0.6527  1.0000
  H   H14       1.0  0.030499999999999996  0.46174000000000004  0.3472999999999999  1.0000
  H   H15       1.0  0.6329499999999998  0.88174  0.5901299999999998  1.0000
  H   H16       1.0  0.25875  0.95241  0.07634  1.0000
  H   H17       1.0  0.7412499999999997  0.047589999999999986  0.92366  1.0000
  H   H18       1.0  0.68978  0.95035  0.13396  1.0000
  H   H19       1.0  0.26871  0.38349999999999995  0.6497599999999998  1.0000
  H   H20       1.0  0.74498  0.18214  0.51122  1.0000
  H   H21       1.0  0.25501999999999997  0.8178700000000001  0.48878  1.0000
  H   H22       1.0  0.24497999999999998  0.31786  0.48878  1.0000
  H   H23       1.0  0.24124999999999996  0.45240999999999987  0.07634  1.0000
  H   H24       1.0  0.18978  0.5496599999999999  0.8660399999999998  1.0000
  H   H25       1.0  0.10724  0.38218  0.13347999999999996  1.0000
  H   H26       1.0  0.7550199999999999  0.68214  0.51122  1.0000
  H   H27       1.0  0.9695  0.53826  0.6527  1.0000
  H   H28       1.0  0.36706  0.11826999999999999  0.4098699999999999  1.0000
  C   C1        1.0  0.9618899999999999  0.43967  0.47641  1.0000
  C   C2        1.0  0.4170099999999999  0.24465999999999993  0.7550199999999998  1.0000
  C   C3        1.0  0.81579  0.74076  0.9740599999999999  1.0000
  C   C4        1.0  0.91702  0.25534  0.24498  1.0000
  C   C5        1.0  0.37859999999999994  0.14282  0.47986  1.0000
  C   C6        1.0  0.82096  0.20619  0.38571  1.0000
  C   C7        1.0  0.18421  0.25925  0.02594  1.0000
  C   C8        1.0  0.47014  0.09722000000000003  0.61409  1.0000
  C   C9        1.0  0.5829899999999999  0.75535  0.24498  1.0000
  C   C10       1.0  0.9701399999999999  0.40278  0.38591  1.0000
  C   C11       1.0  0.5298599999999999  0.9027800000000001  0.38591  1.0000
  C   C12       1.0  0.02986  0.59722  0.61409  1.0000
  C   C13       1.0  0.8785999999999999  0.35718  0.52014  1.0000
  C   C14       1.0  0.6214099999999999  0.8571800000000002  0.52014  1.0000
  C   C15       1.0  0.191  0.7570599999999998  0.5245199999999998  1.0000
  C   C16       1.0  0.75393  0.39753  0.07782999999999997  1.0000
  C   C17       1.0  0.6790399999999999  0.70619  0.38571  1.0000
  C   C18       1.0  0.31579  0.75925  0.02594  1.0000
  C   C19       1.0  0.32095999999999997  0.29381  0.61429  1.0000
  C   C20       1.0  0.1214  0.64282  0.47986  1.0000
  C   C21       1.0  0.17904  0.7938100000000002  0.61429  1.0000
  C   C22       1.0  0.03811  0.56033  0.52359  1.0000
  C   C23       1.0  0.9016399999999999  0.28774  0.34079  1.0000
  C   C24       1.0  0.59836  0.78774  0.34079  1.0000
  C   C25       1.0  0.53811  0.93967  0.47641  1.0000
  C   C26       1.0  0.24607  0.60247  0.92218  1.0000
  C   C27       1.0  0.691  0.74295  0.4754799999999999  1.0000
  C   C28       1.0  0.25393  0.10247000000000003  0.92218  1.0000
  C   C29       1.0  0.46188999999999997  0.06033  0.52359  1.0000
  C   C30       1.0  0.6842099999999998  0.24075999999999995  0.9740599999999999  1.0000
  C   C31       1.0  0.08298999999999998  0.74466  0.7550199999999998  1.0000
  C   C32       1.0  0.8090099999999998  0.24294999999999997  0.4754799999999999  1.0000
  C   C33       1.0  0.40164  0.21226  0.65921  1.0000
  C   C34       1.0  0.7460699999999998  0.89754  0.07782999999999997  1.0000
  C   C35       1.0  0.30901  0.25706  0.5245199999999998  1.0000
  C   C36       1.0  0.09836  0.71227  0.65921  1.0000
  N   N1        1.0  0.89647  0.8510400000000001  0.9704599999999998  1.0000
  N   N2        1.0  0.6505299999999998  0.45179  0.03868  1.0000
  N   N3        1.0  0.7200599999999999  0.76668  0.04041  1.0000
  N   N4        1.0  0.39647  0.64897  0.02954  1.0000
  N   N5        1.0  0.27995  0.23332999999999998  0.9595899999999998  1.0000
  N   N6        1.0  0.8316799999999998  0.62041  0.92081  1.0000
  N   N7        1.0  0.22005  0.7333299999999999  0.9595899999999998  1.0000
  N   N8        1.0  0.15052999999999997  0.048210000000000024  0.96132  1.0000
  N   N9        1.0  0.60354  0.35103999999999996  0.9704599999999998  1.0000
  N   N10       1.0  0.16831999999999997  0.37959  0.07919  1.0000
  N   N11       1.0  0.10353999999999998  0.14896  0.02954  1.0000
  N   N12       1.0  0.66832  0.12040999999999996  0.92081  1.0000
  N   N13       1.0  0.7799499999999999  0.26668  0.04041  1.0000
  N   N14       1.0  0.33168  0.8796  0.07919  1.0000
  N   N15       1.0  0.34946999999999995  0.54822  0.96132  1.0000
  N   N16       1.0  0.8494699999999998  0.9517900000000001  0.03868  1.0000
  O   O1        1.0  0.9722299999999999  0.33963999999999994  0.20401999999999995  1.0000
  O   O2        1.0  0.62763  0.63911  0.20435  1.0000
  O   O3        1.0  0.027769999999999996  0.66036  0.7959799999999998  1.0000
  O   O4        1.0  0.37237  0.36089000000000004  0.79566  1.0000
  O   O5        1.0  0.8723699999999999  0.13911  0.20435  1.0000
  O   O6        1.0  0.12763  0.8608899999999999  0.79566  1.0000
  O   O7        1.0  0.52777  0.83965  0.20401999999999995  1.0000
  O   O8        1.0  0.47223  0.16035999999999997  0.7959799999999998  1.0000
