data_image0
_chemical_formula_structural       Eu4H16C48O24
_chemical_formula_sum              "Eu4 H16 C48 O24"
_cell_length_a       8.99323
_cell_length_b       9.36966
_cell_length_c       18.48838
_cell_angle_alpha    89.91716
_cell_angle_beta     89.98826999999999
_cell_angle_gamma    108.85714000000002

_symmetry_space_group_name_H-M    'P 1'
_symmetry_Int_Tables_number       1

loop_
  _symmetry_equiv_pos_as_xyz
  'x,y,z'

loop_
  _atom_site_type_symbol
  _atom_site_label
  _atom_site_symmetry_multiplicity
  _atom_site_fract_x
  _atom_site_fract_y
  _atom_site_fract_z
  _atom_site_occupancy
  Eu  Eu1       1.0  0.29841  0.51632  0.94701  1.0000
  Eu  Eu2       1.0  0.7024400000000001  0.9837500000000001  0.4456  1.0000
  Eu  Eu3       1.0  0.29756  0.01629  0.55439  1.0000
  Eu  Eu4       1.0  0.7016000000000001  0.48368000000000005  0.05299  1.0000
  H   H1        1.0  0.27425  0.04131  0.06354  1.0000
  H   H2        1.0  0.94896  0.42043  0.78975  1.0000
  H   H3        1.0  0.22666000000000003  0.66109  0.31899  1.0000
  H   H4        1.0  0.7249200000000002  0.45838000000000007  0.56421  1.0000
  H   H5        1.0  0.58564  0.9530300000000002  0.18384  1.0000
  H   H6        1.0  0.27511  0.54169  0.43577  1.0000
  H   H7        1.0  0.05261  0.07953  0.29008  1.0000
  H   H8        1.0  0.9474  0.92047  0.70992  1.0000
  H   H9        1.0  0.72576  0.9586800000000001  0.93645  1.0000
  H   H10       1.0  0.77343  0.33905  0.68103  1.0000
  H   H11       1.0  0.41305  0.54628  0.68397  1.0000
  H   H12       1.0  0.22815  0.16149  0.18128  1.0000
  H   H13       1.0  0.4144  0.04703  0.81613  1.0000
  H   H14       1.0  0.58696  0.45373  0.31602  1.0000
  H   H15       1.0  0.77184  0.8385  0.81872  1.0000
  H   H16       1.0  0.05113  0.57956  0.21029  1.0000
  C   C1        1.0  0.7349200000000002  0.29333  0.7344499999999998  1.0000
  C   C2        1.0  0.39275  0.75066  0.53598  1.0000
  C   C3        1.0  0.53143  0.12923  0.8110599999999999  1.0000
  C   C4        1.0  0.5840200000000001  0.1892  0.74267  1.0000
  C   C5        1.0  0.57135  0.09433  0.94114  1.0000
  C   C6        1.0  0.11699  0.16505000000000003  0.4269999999999999  1.0000
  C   C7        1.0  0.41598  0.81097  0.25733  1.0000
  C   C8        1.0  0.22102  0.22274  0.3632399999999999  1.0000
  C   C9        1.0  0.26513  0.70678  0.26556  1.0000
  C   C10       1.0  0.83085  0.83739  0.7051899999999998  1.0000
  C   C11       1.0  0.44172  0.11496  0.97776  1.0000
  C   C12       1.0  0.26666  0.20696  0.23468  1.0000
  C   C13       1.0  0.62907  0.47954  0.5351199999999998  1.0000
  C   C14       1.0  0.4701000000000001  0.37122  0.3111  1.0000
  C   C15       1.0  0.39298  0.25071  0.9639799999999998  1.0000
  C   C16       1.0  0.5582900000000001  0.8850300000000002  0.02224  1.0000
  C   C17       1.0  0.52115  0.36125  0.17832  1.0000
  C   C18       1.0  0.3707000000000001  0.82815  0.12838  1.0000
  C   C19       1.0  0.42865  0.90565  0.058839999999999996  1.0000
  C   C20       1.0  0.6292  0.97949  0.9650799999999999  1.0000
  C   C21       1.0  0.16765  0.6626  0.20549999999999996  1.0000
  C   C22       1.0  0.73334  0.79303  0.7653099999999998  1.0000
  C   C23       1.0  0.8324200000000002  0.3374200000000001  0.7945099999999999  1.0000
  C   C24       1.0  0.44122000000000006  0.61481  0.5219999999999999  1.0000
  C   C25       1.0  0.8839400000000002  0.3349800000000001  0.92686  1.0000
  C   C26       1.0  0.60729  0.24941000000000002  0.4640099999999999  1.0000
  C   C27       1.0  0.37081000000000003  0.0205  0.03491  1.0000
  C   C28       1.0  0.47885000000000005  0.63874  0.82167  1.0000
  C   C29       1.0  0.7790000000000001  0.77727  0.63676  1.0000
  C   C30       1.0  0.60703  0.74928  0.03600999999999999  1.0000
  C   C31       1.0  0.37097000000000013  0.5205500000000002  0.46485999999999994  1.0000
  C   C32       1.0  0.62933  0.17185  0.87161  1.0000
  C   C33       1.0  0.78062  0.27738000000000007  0.86299  1.0000
  C   C34       1.0  0.11608  0.665  0.07315  1.0000
  C   C35       1.0  0.47983000000000003  0.13954  0.67847  1.0000
  C   C36       1.0  0.21942000000000006  0.72261  0.13701  1.0000
  C   C37       1.0  0.62793  0.67159  0.62827  1.0000
  C   C38       1.0  0.42938000000000004  0.40597000000000005  0.44119  1.0000
  C   C39       1.0  0.5201300000000002  0.86051  0.32154  1.0000
  C   C40       1.0  0.57066  0.59411  0.55879  1.0000
  C   C41       1.0  0.4686100000000001  0.87085  0.18893  1.0000
  C   C42       1.0  0.52991  0.62878  0.68889  1.0000
  C   C43       1.0  0.16916000000000003  0.16261000000000003  0.29481  1.0000
  C   C44       1.0  0.41758  0.31131  0.24282  1.0000
  C   C45       1.0  0.55883  0.38528  0.47797  1.0000
  C   C46       1.0  0.88303  0.83497  0.573  1.0000
  C   C47       1.0  0.58242  0.6886800000000002  0.75718  1.0000
  C   C48       1.0  0.37209  0.32844  0.3717199999999999  1.0000
  O   O1        1.0  0.5038000000000001  0.87765  0.54593  1.0000
  O   O2        1.0  0.25036  0.24252  0.96744  1.0000
  O   O3        1.0  0.7496400000000002  0.7574800000000003  0.03256  1.0000
  O   O4        1.0  0.53292  0.18641000000000002  0.61538  1.0000
  O   O5        1.0  0.46702000000000005  0.81356  0.38461  1.0000
  O   O6        1.0  0.17864  0.67973  0.010169999999999998  1.0000
  O   O7        1.0  0.17769000000000001  0.1793  0.49040999999999996  1.0000
  O   O8        1.0  0.9706700000000001  0.59906  0.0837  1.0000
  O   O9        1.0  0.33965000000000006  0.04916  0.68656  1.0000
  O   O10       1.0  0.46657  0.31409  0.11566  1.0000
  O   O11       1.0  0.49622000000000005  0.12243  0.45407  1.0000
  O   O12       1.0  0.82137  0.32027  0.9898399999999999  1.0000
  O   O13       1.0  0.50362  0.37769  0.95267  1.0000
  O   O14       1.0  0.8223200000000002  0.82072  0.50959  1.0000
  O   O15       1.0  0.029340000000000043  0.40093000000000006  0.9163  1.0000
  O   O16       1.0  0.2499000000000001  0.7423600000000002  0.53432  1.0000
  O   O17       1.0  0.9719100000000002  0.09922  0.4153199999999999  1.0000
  O   O18       1.0  0.66036  0.9508200000000001  0.31348  1.0000
  O   O19       1.0  0.33837  0.54852  0.8146399999999998  1.0000
  O   O20       1.0  0.6616300000000003  0.4514699999999999  0.18536  1.0000
  O   O21       1.0  0.49639  0.6223  0.04732  1.0000
  O   O22       1.0  0.75013  0.25768  0.46568  1.0000
  O   O23       1.0  0.53344  0.68591  0.8843299999999998  1.0000
  O   O24       1.0  0.028110000000000076  0.9007800000000001  0.58468  1.0000
