data_image0
_chemical_formula_structural       Gd2H6C16N2O10
_chemical_formula_sum              "Gd2 H6 C16 N2 O10"
_cell_length_a       4.24426
_cell_length_b       12.34349
_cell_length_c       8.76207
_cell_angle_alpha    65.8374
_cell_angle_beta     95.77668
_cell_angle_gamma    89.11144000000002

_space_group_name_H-M_alt    "P 1"
_space_group_IT_number       1

loop_
  _space_group_symop_operation_xyz
  'x, y, z'

loop_
  _atom_site_type_symbol
  _atom_site_label
  _atom_site_symmetry_multiplicity
  _atom_site_fract_x
  _atom_site_fract_y
  _atom_site_fract_z
  _atom_site_occupancy
  Gd  Gd1       1.0  0.146  0.08630000000000003  0.6196  1.0000
  Gd  Gd2       1.0  0.8382600000000001  0.9134100000000003  0.3899300000000001  1.0000
  H   H1        1.0  0.9848400000000002  0.39659  0.81956  1.0000
  H   H2        1.0  0.42657  0.3664800000000001  0.21643000000000007  1.0000
  H   H3        1.0  0.31362  0.12706999999999993  0.9751800000000003  1.0000
  H   H4        1.0  0.9975699999999998  0.60336  0.18836000000000006  1.0000
  H   H5        1.0  0.55712  0.63426  0.79166  1.0000
  H   H6        1.0  0.66848  0.8726600000000001  0.03484  1.0000
  C   C1        1.0  0.7616899999999998  0.21122  0.7662100000000002  1.0000
  C   C2        1.0  0.64836  0.25966999999999996  0.8791200000000002  1.0000
  C   C3        1.0  0.80935  0.35097000000000006  0.9010300000000002  1.0000
  C   C4        1.0  0.7148600000000002  0.39422  0.017790000000000007  1.0000
  C   C5        1.0  0.47311  0.34313  0.11387000000000003  1.0000
  C   C6        1.0  0.30864  0.25075  0.09064  1.0000
  C   C7        1.0  0.4142  0.20601  0.9794400000000002  1.0000
  C   C8        1.0  0.09873  0.17917000000000002  0.21510000000000007  1.0000
  C   C9        1.0  0.21918999999999997  0.78799  0.24322000000000005  1.0000
  C   C10       1.0  0.33352  0.74017  0.12975000000000006  1.0000
  C   C11       1.0  0.17285  0.6491  0.10692000000000003  1.0000
  C   C12       1.0  0.2679500000000001  0.6058899999999999  0.9901600000000003  1.0000
  C   C13       1.0  0.51058  0.6569700000000005  0.89481  1.0000
  C   C14       1.0  0.67455  0.7492499999999997  0.9186200000000002  1.0000
  C   C15       1.0  0.56825  0.79387  0.02994000000000001  1.0000
  C   C16       1.0  0.8842  0.8206799999999999  0.7938700000000002  1.0000
  N   N1        1.0  0.88597  0.4767600000000001  0.05496  1.0000
  N   N2        1.0  0.09734000000000001  0.52338  0.9525500000000002  1.0000
  O   O1        1.0  0.00686000000000005  0.25147  0.6950700000000002  1.0000
  O   O2        1.0  0.6253800000000002  0.12252999999999994  0.7472500000000002  1.0000
  O   O3        1.0  0.9681700000000001  0.09412  0.19173000000000007  1.0000
  O   O4        1.0  0.61431  0.04399999999999997  0.4806300000000001  1.0000
  O   O5        1.0  0.061180000000000026  0.20503  0.3394600000000001  1.0000
  O   O6        1.0  0.97165  0.74805  0.31228  1.0000
  O   O7        1.0  0.35711  0.87546  0.26507  1.0000
  O   O8        1.0  0.014650000000000005  0.9059900000000002  0.81637  1.0000
  O   O9        1.0  0.36147000000000007  0.9558700000000001  0.5275600000000003  1.0000
  O   O10       1.0  0.92158  0.79428  0.6698500000000002  1.0000
