data_image0
_chemical_formula_structural       U4H8C16O16
_chemical_formula_sum              "U4 H8 C16 O16"
_cell_length_a       6.2245
_cell_length_b       7.75439
_cell_length_c       14.11699
_cell_angle_alpha    81.83793999999999
_cell_angle_beta     88.04655
_cell_angle_gamma    90.01971

_space_group_name_H-M_alt    "P 1"
_space_group_IT_number       1

loop_
  _space_group_symop_operation_xyz
  'x, y, z'

loop_
  _atom_site_type_symbol
  _atom_site_label
  _atom_site_symmetry_multiplicity
  _atom_site_fract_x
  _atom_site_fract_y
  _atom_site_fract_z
  _atom_site_occupancy
  U   U1        1.0  0.61583  0.5313700000000002  0.16497  1.0000
  U   U2        1.0  0.0018199999999999976  0.84217  0.22561000000000006  1.0000
  U   U3        1.0  0.37600000000000006  0.4594300000000001  0.83576  1.0000
  U   U4        1.0  0.99838  0.14069999999999996  0.7731500000000001  1.0000
  H   H1        1.0  0.37926000000000004  0.2983800000000001  0.45106  1.0000
  H   H2        1.0  0.74847  0.35654  0.4724  1.0000
  H   H3        1.0  0.82558  0.97548  0.97738  1.0000
  H   H4        1.0  0.54839  0.7751700000000002  0.04414  1.0000
  H   H5        1.0  0.6224700000000001  0.6925300000000002  0.5486  1.0000
  H   H6        1.0  0.25521  0.6339900000000002  0.52652  1.0000
  H   H7        1.0  0.16631000000000004  0.017190000000000007  0.0245  1.0000
  H   H8        1.0  0.44301  0.2188300000000001  0.95661  1.0000
  C   C1        1.0  0.32063  0.52572  0.3541300000000001  1.0000
  C   C2        1.0  0.40909000000000006  0.4384700000000001  0.44671000000000005  1.0000
  C   C3        1.0  0.6562  0.4782800000000002  0.4627  1.0000
  C   C4        1.0  0.7672400000000001  0.6066300000000002  0.3861  1.0000
  C   C5        1.0  0.77781  0.16798  0.0702  1.0000
  C   C6        1.0  0.74828  0.09884999999999997  0.98524  1.0000
  C   C7        1.0  0.40943  0.8293600000000002  0.08124  1.0000
  C   C8        1.0  0.4553600000000001  0.8852400000000002  0.16897  1.0000
  C   C9        1.0  0.68077  0.46748000000000023  0.64934  1.0000
  C   C10       1.0  0.59268  0.55185  0.55539  1.0000
  C   C11       1.0  0.3467400000000001  0.51259  0.53909  1.0000
  C   C12       1.0  0.23364999999999997  0.38983000000000007  0.61657  1.0000
  C   C13       1.0  0.21757  0.81983  0.9339100000000002  1.0000
  C   C14       1.0  0.24232000000000004  0.89285  0.018200000000000008  1.0000
  C   C15       1.0  0.58364  0.16335999999999998  0.9212100000000001  1.0000
  C   C16       1.0  0.54044  0.10696999999999998  0.8332  1.0000
  O   O1        1.0  0.35918000000000005  0.4457700000000002  0.28064  1.0000
  O   O2        1.0  0.22291  0.6687300000000003  0.35024  1.0000
  O   O3        1.0  0.8184500000000002  0.54722  0.30581  1.0000
  O   O4        1.0  0.8098300000000003  0.76086  0.39674  1.0000
  O   O5        1.0  0.6814600000000001  0.3162000000000001  0.08367  1.0000
  O   O6        1.0  0.89388  0.09223000000000003  0.13998  1.0000
  O   O7        1.0  0.62969  0.81504  0.21191  1.0000
  O   O8        1.0  0.32956  0.9827400000000001  0.2139  1.0000
  O   O9        1.0  0.63888  0.5489700000000002  0.72173  1.0000
  O   O10       1.0  0.7782900000000003  0.32380000000000003  0.6567  1.0000
  O   O11       1.0  0.18049000000000007  0.45236999999999994  0.69573  1.0000
  O   O12       1.0  0.19066999999999998  0.23431  0.60787  1.0000
  O   O13       1.0  0.31925  0.6723600000000002  0.92342  1.0000
  O   O14       1.0  0.10301999999999999  0.8922300000000003  0.86273  1.0000
  O   O15       1.0  0.36783  0.17803999999999995  0.7888700000000002  1.0000
  O   O16       1.0  0.6641200000000002  0.007299999999999984  0.78893  1.0000
