data_image0
_chemical_formula_structural       Y4H12C24O24
_chemical_formula_sum              "Y4 H12 C24 O24"
_cell_length_a       8.14591
_cell_length_b       9.85315
_cell_length_c       18.3248
_cell_angle_alpha    90.00153999999999
_cell_angle_beta     89.99329999999999
_cell_angle_gamma    110.74075

_space_group_name_H-M_alt    "P 1"
_space_group_IT_number       1

loop_
  _space_group_symop_operation_xyz
  'x, y, z'

loop_
  _atom_site_type_symbol
  _atom_site_label
  _atom_site_symmetry_multiplicity
  _atom_site_fract_x
  _atom_site_fract_y
  _atom_site_fract_z
  _atom_site_occupancy
  Y   Y1        1.0  0.84896  0.03172  0.23608  1.0000
  Y   Y2        1.0  0.15097  0.46864  0.7361000000000001  1.0000
  Y   Y3        1.0  0.15129000000000006  0.9685600000000001  0.7640500000000002  1.0000
  Y   Y4        1.0  0.8484800000000001  0.53176  0.26414  1.0000
  H   H1        1.0  0.88138  0.08641  0.97924  1.0000
  H   H2        1.0  0.28863  0.6662  0.18587  1.0000
  H   H3        1.0  0.39545  0.90552  0.26989  1.0000
  H   H4        1.0  0.11862999999999997  0.41459  0.4794100000000001  1.0000
  H   H5        1.0  0.71151  0.83415  0.6857700000000002  1.0000
  H   H6        1.0  0.60463  0.59478  0.7698500000000003  1.0000
  H   H7        1.0  0.11866999999999998  0.91348  0.02076  1.0000
  H   H8        1.0  0.71128  0.33411  0.81426  1.0000
  H   H9        1.0  0.60459  0.09461000000000003  0.7300500000000001  1.0000
  H   H10       1.0  0.88164  0.5877  0.5208000000000002  1.0000
  H   H11       1.0  0.28856  0.166  0.31422  1.0000
  H   H12       1.0  0.3955000000000001  0.4057500000000001  0.23000000000000004  1.0000
  C   C1        1.0  0.91008  0.02763  0.09341  1.0000
  C   C2        1.0  0.94592  0.031190000000000002  0.014180000000000002  1.0000
  C   C3        1.0  0.56363  0.6915  0.20845  1.0000
  C   C4        1.0  0.37383  0.60603  0.19925  1.0000
  C   C5        1.0  0.30879000000000006  0.96305  0.28565  1.0000
  C   C6        1.0  0.11855000000000007  0.8761800000000001  0.2841  1.0000
  C   C7        1.0  0.08964999999999997  0.47304  0.5935  1.0000
  C   C8        1.0  0.05407000000000003  0.46975000000000006  0.51432  1.0000
  C   C9        1.0  0.43651  0.80865  0.70856  1.0000
  C   C10       1.0  0.62628  0.89424  0.6993200000000003  1.0000
  C   C11       1.0  0.69119  0.53718  0.78569  1.0000
  C   C12       1.0  0.88147  0.62399  0.7842600000000002  1.0000
  C   C13       1.0  0.08984000000000003  0.9725  0.9066200000000001  1.0000
  C   C14       1.0  0.05408  0.96877  0.9858600000000001  1.0000
  C   C15       1.0  0.43666  0.30874  0.7913000000000001  1.0000
  C   C16       1.0  0.62634  0.39432000000000006  0.80054  1.0000
  C   C17       1.0  0.69121  0.03699  0.7143000000000003  1.0000
  C   C18       1.0  0.88153  0.12377  0.71588  1.0000
  C   C19       1.0  0.91029  0.5281  0.40668  1.0000
  C   C20       1.0  0.9461400000000001  0.53225  0.4859400000000001  1.0000
  C   C21       1.0  0.56339  0.19137  0.2914500000000001  1.0000
  C   C22       1.0  0.37366  0.10587000000000002  0.3006500000000001  1.0000
  C   C23       1.0  0.30882  0.46331  0.21433  1.0000
  C   C24       1.0  0.11856  0.37646  0.21612000000000006  1.0000
  O   O1        1.0  0.97876  0.96084  0.13719  1.0000
  O   O2        1.0  0.80957  0.093  0.11805  1.0000
  O   O3        1.0  0.6746100000000003  0.62638  0.20781000000000005  1.0000
  O   O4        1.0  0.60525  0.82752  0.21844  1.0000
  O   O5        1.0  0.00544999999999997  0.93397  0.3019500000000001  1.0000
  O   O6        1.0  0.07786000000000001  0.74524  0.2631  1.0000
  O   O7        1.0  0.018340000000000065  0.5375400000000001  0.6374  1.0000
  O   O8        1.0  0.19223000000000007  0.4095400000000001  0.6180300000000002  1.0000
  O   O9        1.0  0.3254  0.87366  0.70788  1.0000
  O   O10       1.0  0.395  0.67263  0.71855  1.0000
  O   O11       1.0  0.99437  0.5661500000000002  0.80232  1.0000
  O   O12       1.0  0.9223500000000001  0.7548900000000002  0.7631  1.0000
  O   O13       1.0  0.0211  0.03927  0.86286  1.0000
  O   O14       1.0  0.19046  0.9072200000000001  0.8819700000000001  1.0000
  O   O15       1.0  0.32565  0.37384  0.79197  1.0000
  O   O16       1.0  0.39516  0.17266  0.78142  1.0000
  O   O17       1.0  0.99453  0.06593  0.69797  1.0000
  O   O18       1.0  0.9224  0.25472  0.73693  1.0000
  O   O19       1.0  0.9784300000000001  0.46092  0.36289  1.0000
  O   O20       1.0  0.80972  0.59333  0.3819700000000001  1.0000
  O   O21       1.0  0.6743400000000003  0.1262  0.29213  1.0000
  O   O22       1.0  0.60495  0.32741  0.2815  1.0000
  O   O23       1.0  0.005320000000000001  0.43425  0.19869  1.0000
  O   O24       1.0  0.0779  0.2454  0.23696000000000003  1.0000
