data_image0
_chemical_formula_structural       Cd3H26C40S6N16O4
_chemical_formula_sum              "Cd3 H26 C40 S6 N16 O4"
_cell_length_a       11.41814
_cell_length_b       11.05886
_cell_length_c       15.4221
_cell_angle_alpha    94.60633000000001
_cell_angle_beta     109.63934
_cell_angle_gamma    117.21164

_symmetry_space_group_name_H-M    'P 1'
_symmetry_Int_Tables_number       1

loop_
  _symmetry_equiv_pos_as_xyz
  'x,y,z'

loop_
  _atom_site_type_symbol
  _atom_site_label
  _atom_site_symmetry_multiplicity
  _atom_site_fract_x
  _atom_site_fract_y
  _atom_site_fract_z
  _atom_site_occupancy
  Cd  Cd1       1.0  0.21502000000000002  0.27562  0.37888  1.0000
  Cd  Cd2       1.0  0.78498  0.72438  0.62113  1.0000
  Cd  Cd3       1.0  0.0  0.0  0.0  1.0000
  H   H1        1.0  0.66452  0.63066  0.14409999999999995  1.0000
  H   H2        1.0  0.4890399999999999  0.26278  0.38097  1.0000
  H   H3        1.0  0.7233499999999998  0.35042  0.4629999999999999  1.0000
  H   H4        1.0  0.27519999999999994  0.43035  0.20650999999999994  1.0000
  H   H5        1.0  0.19898  0.25006  0.58373  1.0000
  H   H6        1.0  0.9443600000000001  0.30301  0.34397  1.0000
  H   H7        1.0  0.8086  0.76096  0.07706  1.0000
  H   H8        1.0  0.6767899999999999  0.4898  0.20512  1.0000
  H   H9        1.0  0.04967999999999981  0.2574599999999999  0.6718999999999998  1.0000
  H   H10       1.0  0.37591  0.69284  0.98843  1.0000
  H   H11       1.0  0.84861  0.29998  0.59273  1.0000
  H   H12       1.0  0.68575  0.9689100000000002  0.8877099999999998  1.0000
  H   H13       1.0  0.43540000000000006  0.8552600000000001  0.88539  1.0000
  H   H14       1.0  0.33548000000000006  0.36934000000000006  0.8559  1.0000
  H   H15       1.0  0.5109599999999999  0.7372199999999999  0.6190399999999998  1.0000
  H   H16       1.0  0.27665  0.6495699999999999  0.537  1.0000
  H   H17       1.0  0.7248  0.56965  0.79349  1.0000
  H   H18       1.0  0.80101  0.74993  0.41627  1.0000
  H   H19       1.0  0.05564000000000013  0.6969900000000001  0.65603  1.0000
  H   H20       1.0  0.1913999999999999  0.23904  0.92294  1.0000
  H   H21       1.0  0.32320999999999994  0.5102  0.7948899999999998  1.0000
  H   H22       1.0  0.95032  0.74254  0.32811  1.0000
  H   H23       1.0  0.62409  0.30716000000000004  0.011569999999999997  1.0000
  H   H24       1.0  0.15139000000000008  0.7000200000000001  0.4072799999999999  1.0000
  H   H25       1.0  0.3142499999999999  0.03107999999999998  0.11229999999999997  1.0000
  H   H26       1.0  0.5645999999999999  0.14474  0.11461999999999997  1.0000
  C   C1        1.0  0.4922100000000001  0.32728  0.331  1.0000
  C   C2        1.0  0.47387  0.62717  0.44298  1.0000
  C   C3        1.0  0.60375  0.38238  0.30065  1.0000
  C   C4        1.0  0.006769999999999994  0.22602000000000003  0.16055  1.0000
  C   C5        1.0  0.73108  0.3619800000000001  0.33165  1.0000
  C   C6        1.0  0.5881500000000001  0.7147600000000001  0.04161  1.0000
  C   C7        1.0  0.12867999999999982  0.9889599999999997  0.23649999999999993  1.0000
  C   C8        1.0  0.36839999999999995  0.41666  0.23161  1.0000
  C   C9        1.0  0.10708999999999998  0.2643  0.5518  1.0000
  C   C10       1.0  0.45030000000000003  0.54689  0.11902999999999998  1.0000
  C   C11       1.0  0.8825099999999999  0.30942  0.4627699999999999  1.0000
  C   C12       1.0  0.96571  0.29657999999999995  0.4170199999999999  1.0000
  C   C13       1.0  0.4734700000000001  0.47296000000000005  0.19496  1.0000
  C   C14       1.0  0.72269  0.77928  0.03589999999999999  1.0000
  C   C15       1.0  0.5919200000000001  0.45464000000000004  0.23082999999999995  1.0000
  C   C16       1.0  0.02654999999999988  0.27176  0.6004599999999998  1.0000
  C   C17       1.0  0.48160000000000003  0.7419  0.9864599999999998  1.0000
  C   C18       1.0  0.91339  0.2946  0.5560799999999999  1.0000
  C   C19       1.0  0.6532200000000002  0.89519  0.92945  1.0000
  C   C20       1.0  0.5162300000000002  0.8333900000000001  0.92979  1.0000
  C   C21       1.0  0.50779  0.67271  0.66901  1.0000
  C   C22       1.0  0.5261299999999998  0.37282999999999994  0.5570199999999998  1.0000
  C   C23       1.0  0.39624999999999994  0.6176199999999998  0.6993499999999999  1.0000
  C   C24       1.0  0.99323  0.77398  0.83946  1.0000
  C   C25       1.0  0.2689199999999998  0.63801  0.6683599999999997  1.0000
  C   C26       1.0  0.4118399999999998  0.28524  0.95839  1.0000
  C   C27       1.0  0.87132  0.011039999999999923  0.7635099999999998  1.0000
  C   C28       1.0  0.6316  0.58334  0.7684  1.0000
  C   C29       1.0  0.8929100000000001  0.7357  0.4481999999999999  1.0000
  C   C30       1.0  0.5497  0.45310000000000006  0.8809699999999998  1.0000
  C   C31       1.0  0.11749000000000001  0.69057  0.53724  1.0000
  C   C32       1.0  0.034289999999999925  0.7034099999999999  0.58299  1.0000
  C   C33       1.0  0.52653  0.5270400000000001  0.80504  1.0000
  C   C34       1.0  0.27731000000000006  0.22071000000000002  0.9641  1.0000
  C   C35       1.0  0.40807999999999994  0.54536  0.7691799999999998  1.0000
  C   C36       1.0  0.97345  0.72824  0.39955  1.0000
  C   C37       1.0  0.5184  0.25809  0.013539999999999996  1.0000
  C   C38       1.0  0.08661000000000003  0.7054000000000001  0.44393  1.0000
  C   C39       1.0  0.34678  0.10481000000000001  0.07055  1.0000
  C   C40       1.0  0.4837699999999999  0.16661  0.07021  1.0000
  S   S1        1.0  0.29972  0.56872  0.39972  1.0000
  S   S2        1.0  0.20461999999999994  0.026279999999999984  0.35389999999999994  1.0000
  S   S3        1.0  0.98483  0.23202  0.05115  1.0000
  S   S4        1.0  0.7002800000000002  0.43127000000000004  0.60028  1.0000
  S   S5        1.0  0.79538  0.97372  0.6461  1.0000
  S   S6        1.0  0.015169999999999977  0.7679800000000001  0.9488499999999997  1.0000
  N   N1        1.0  0.07514000000000001  0.27527  0.46159  1.0000
  N   N2        1.0  0.37773  0.34507  0.29742  1.0000
  N   N3        1.0  0.59953  0.66707  0.47174999999999995  1.0000
  N   N4        1.0  0.57257  0.6293  0.10425  1.0000
  N   N5        1.0  0.76914  0.33439  0.41915  1.0000
  N   N6        1.0  0.75434  0.86729  0.98181  1.0000
  N   N7        1.0  0.023089999999999996  0.22368  0.24062999999999996  1.0000
  N   N8        1.0  0.07318000000000002  0.96052  0.15172  1.0000
  N   N9        1.0  0.9248600000000001  0.7247300000000002  0.53841  1.0000
  N   N10       1.0  0.6222699999999998  0.6549299999999999  0.7025899999999998  1.0000
  N   N11       1.0  0.40047000000000005  0.33292  0.52825  1.0000
  N   N12       1.0  0.4274299999999999  0.37069999999999986  0.8957599999999998  1.0000
  N   N13       1.0  0.23085000000000006  0.6656100000000001  0.58085  1.0000
  N   N14       1.0  0.24565999999999996  0.13269999999999996  0.018199999999999994  1.0000
  N   N15       1.0  0.97691  0.77632  0.75937  1.0000
  N   N16       1.0  0.9268199999999996  0.039479999999999904  0.8482799999999998  1.0000
  O   O1        1.0  0.33169  0.53464  0.07426  1.0000
  O   O2        1.0  0.7942  0.3700300000000001  0.27907  1.0000
  O   O3        1.0  0.6683099999999997  0.46536  0.92575  1.0000
  O   O4        1.0  0.20579999999999996  0.62996  0.7209299999999997  1.0000
