data_image0
_chemical_formula_structural       Cd6H16C8Cl12O4
_chemical_formula_sum              "Cd6 H16 C8 Cl12 O4"
_cell_length_a       10.216
_cell_length_b       10.21246
_cell_length_c       11.44819
_cell_angle_alpha    80.50696
_cell_angle_beta     80.54164
_cell_angle_gamma    84.66674

_space_group_name_H-M_alt    "P 1"
_space_group_IT_number       1

loop_
  _space_group_symop_operation_xyz
  'x, y, z'

loop_
  _atom_site_type_symbol
  _atom_site_label
  _atom_site_symmetry_multiplicity
  _atom_site_fract_x
  _atom_site_fract_y
  _atom_site_fract_z
  _atom_site_occupancy
  Cd  Cd1       1.0  0.5397799999999999  0.13532  0.57318  1.0000
  Cd  Cd2       1.0  0.86478  0.46021999999999996  0.9267100000000001  1.0000
  Cd  Cd3       1.0  0.46020999999999995  0.8646800000000001  0.4268200000000001  1.0000
  Cd  Cd4       1.0  0.13522000000000003  0.53978  0.07329000000000001  1.0000
  Cd  Cd5       1.0  0.74161  0.25838  0.75  1.0000
  Cd  Cd6       1.0  0.25838999999999995  0.74162  0.25  1.0000
  H   H1        1.0  0.34321000000000007  0.40269999999999995  0.66622  1.0000
  H   H2        1.0  0.30406000000000005  0.50021  0.5295  1.0000
  H   H3        1.0  0.5449899999999998  0.5271  0.65363  1.0000
  H   H4        1.0  0.4031499999999999  0.6432  0.64346  1.0000
  H   H5        1.0  0.5969599999999999  0.65674  0.8334900000000001  1.0000
  H   H6        1.0  0.50003  0.6959000000000001  0.9704100000000001  1.0000
  H   H7        1.0  0.4723399999999999  0.45488  0.8466900000000002  1.0000
  H   H8        1.0  0.3564399999999999  0.5969599999999999  0.8567300000000001  1.0000
  H   H9        1.0  0.65678  0.5973  0.33378  1.0000
  H   H10       1.0  0.6959299999999999  0.49979000000000007  0.4705  1.0000
  H   H11       1.0  0.4549999999999999  0.47290000000000004  0.34637  1.0000
  H   H12       1.0  0.59684  0.3568  0.3565400000000001  1.0000
  H   H13       1.0  0.40302999999999994  0.34326  0.16651  1.0000
  H   H14       1.0  0.49996000000000007  0.3041  0.029590000000000005  1.0000
  H   H15       1.0  0.5276600000000001  0.5451200000000002  0.15331  1.0000
  H   H16       1.0  0.64355  0.40304  0.14327  1.0000
  C   C1        1.0  0.38502  0.4588  0.58018  1.0000
  C   C2        1.0  0.4668099999999999  0.56748  0.59949  1.0000
  C   C3        1.0  0.54114  0.61493  0.9196700000000001  1.0000
  C   C4        1.0  0.43221  0.53324  0.9007  1.0000
  C   C5        1.0  0.61498  0.5412  0.41982  1.0000
  C   C6        1.0  0.53319  0.43252  0.40051  1.0000
  C   C7        1.0  0.45885  0.38507999999999987  0.08033  1.0000
  C   C8        1.0  0.56779  0.46676  0.09930000000000001  1.0000
  Cl  Cl1       1.0  0.49866999999999995  0.19831  0.78771  1.0000
  Cl  Cl2       1.0  0.82117  0.21009  0.94938  1.0000
  Cl  Cl3       1.0  0.49124999999999996  0.11440999999999997  0.3642000000000001  1.0000
  Cl  Cl4       1.0  0.8017799999999999  0.50138  0.71217  1.0000
  Cl  Cl5       1.0  0.7898099999999999  0.17886  0.55065  1.0000
  Cl  Cl6       1.0  0.8855799999999999  0.50877  0.13571  1.0000
  Cl  Cl7       1.0  0.5013199999999999  0.80169  0.21229000000000006  1.0000
  Cl  Cl8       1.0  0.17881999999999998  0.7899100000000001  0.05062  1.0000
  Cl  Cl9       1.0  0.50874  0.8855900000000001  0.6358  1.0000
  Cl  Cl10      1.0  0.19820999999999994  0.49862000000000006  0.28783  1.0000
  Cl  Cl11      1.0  0.21018  0.8211400000000001  0.44935  1.0000
  Cl  Cl12      1.0  0.11442000000000001  0.4912299999999999  0.8642900000000001  1.0000
  O   O1        1.0  0.4691  0.36465  0.51397  1.0000
  O   O2        1.0  0.63538  0.53064  0.98568  1.0000
  O   O3        1.0  0.5309  0.63535  0.4860300000000001  1.0000
  O   O4        1.0  0.36460999999999993  0.46936  0.014320000000000001  1.0000
