data_image0
_chemical_formula_structural       Mn4H8C40S12O18
_chemical_formula_sum              "Mn4 H8 C40 S12 O18"
_cell_length_a       12.13166
_cell_length_b       8.88273
_cell_length_c       14.2242
_cell_angle_alpha    109.40875
_cell_angle_beta     107.31652
_cell_angle_gamma    88.9551

_space_group_name_H-M_alt    "P 1"
_space_group_IT_number       1

loop_
  _space_group_symop_operation_xyz
  'x, y, z'

loop_
  _atom_site_type_symbol
  _atom_site_label
  _atom_site_symmetry_multiplicity
  _atom_site_fract_x
  _atom_site_fract_y
  _atom_site_fract_z
  _atom_site_occupancy
  Mn  Mn1       1.0  0.88258  0.07597  0.01469  1.0000
  Mn  Mn2       1.0  0.6129400000000002  0.06185000000000002  0.98176  1.0000
  Mn  Mn3       1.0  0.1168100000000001  0.9234999999999999  0.9850800000000001  1.0000
  Mn  Mn4       1.0  0.3867  0.9386600000000002  0.01803  1.0000
  H   H1        1.0  0.019409999999999965  0.9100700000000002  0.77664  1.0000
  H   H2        1.0  0.96724  0.59054  0.27404  1.0000
  H   H3        1.0  0.47807  0.13765  0.22954000000000002  1.0000
  H   H4        1.0  0.52409  0.31859  0.72575  1.0000
  H   H5        1.0  0.98005  0.08974000000000003  0.22319  1.0000
  H   H6        1.0  0.033310000000000076  0.4096700000000001  0.7259200000000002  1.0000
  H   H7        1.0  0.52109  0.86295  0.77101  1.0000
  H   H8        1.0  0.47704  0.68162  0.27537  1.0000
  C   C1        1.0  0.86343  0.7623000000000001  0.8475500000000002  1.0000
  C   C2        1.0  0.8719299999999999  0.7473900000000001  0.7442400000000002  1.0000
  C   C3        1.0  0.95157  0.8220200000000001  0.7177300000000002  1.0000
  C   C4        1.0  0.84275  0.64207  0.5546100000000002  1.0000
  C   C5        1.0  0.93579  0.76265  0.60894  1.0000
  C   C6        1.0  0.8299  0.57434  0.44693  1.0000
  C   C7        1.0  0.91591  0.63932  0.41946000000000006  1.0000
  C   C8        1.0  0.91077  0.56202  0.31345  1.0000
  C   C9        1.0  0.82253  0.43949  0.26294  1.0000
  C   C10       1.0  0.7888  0.31786  0.15861  1.0000
  C   C11       1.0  0.64521  0.92807  0.15468  1.0000
  C   C12       1.0  0.62904  0.0059799999999999975  0.25747  1.0000
  C   C13       1.0  0.5465099999999999  0.10513999999999998  0.28632  1.0000
  C   C14       1.0  0.6580600000000001  0.08691999999999998  0.4480700000000001  1.0000
  C   C15       1.0  0.56283  0.1525700000000001  0.3948700000000001  1.0000
  C   C16       1.0  0.66791  0.12631  0.55525  1.0000
  C   C17       1.0  0.5786  0.21783000000000005  0.5825300000000001  1.0000
  C   C18       1.0  0.58227  0.24730000000000002  0.68764  1.0000
  C   C19       1.0  0.67278  0.17688000000000004  0.73825  1.0000
  C   C20       1.0  0.70766  0.16448000000000007  0.8430800000000003  1.0000
  C   C21       1.0  0.13484  0.23712  0.15202  1.0000
  C   C22       1.0  0.12783000000000003  0.25192000000000003  0.25572000000000006  1.0000
  C   C23       1.0  0.047960000000000017  0.17756999999999998  0.28218  1.0000
  C   C24       1.0  0.15726  0.35726  0.44504  1.0000
  C   C25       1.0  0.06395000000000006  0.23711000000000004  0.3909700000000001  1.0000
  C   C26       1.0  0.17026000000000002  0.42497000000000007  0.5526400000000001  1.0000
  C   C27       1.0  0.08413000000000002  0.36049000000000003  0.5802500000000002  1.0000
  C   C28       1.0  0.08963  0.43788000000000005  0.6862900000000001  1.0000
  C   C29       1.0  0.17811  0.56021  0.73665  1.0000
  C   C30       1.0  0.21139000000000008  0.6822800000000001  0.8410400000000002  1.0000
  C   C31       1.0  0.35497000000000006  0.07352000000000009  0.8454100000000002  1.0000
  C   C32       1.0  0.37044000000000005  0.99444  0.7425100000000001  1.0000
  C   C33       1.0  0.45289000000000007  0.8951800000000001  0.7139100000000003  1.0000
  C   C34       1.0  0.34189  0.9133099999999998  0.5521000000000001  1.0000
  C   C35       1.0  0.43688999999999995  0.84749  0.60544  1.0000
  C   C36       1.0  0.3323  0.8737800000000001  0.44496  1.0000
  C   C37       1.0  0.42162  0.78217  0.41789  1.0000
  C   C38       1.0  0.41839  0.75287  0.31284000000000006  1.0000
  C   C39       1.0  0.32804  0.82308  0.26199000000000006  1.0000
  C   C40       1.0  0.29285  0.83554  0.15738  1.0000
  S   S1        1.0  0.7773200000000001  0.60066  0.6358600000000002  1.0000
  S   S2        1.0  0.74212  0.42214000000000007  0.34298000000000006  1.0000
  S   S3        1.0  0.010359999999999996  0.78915  0.52627  1.0000
  S   S4        1.0  0.7270199999999999  0.9679999999999999  0.36422000000000004  1.0000
  S   S5        1.0  0.75582  0.07820000000000002  0.65856  1.0000
  S   S6        1.0  0.4850999999999999  0.26217  0.47684  1.0000
  S   S7        1.0  0.22285  0.3982600000000001  0.3638300000000001  1.0000
  S   S8        1.0  0.25838  0.57699  0.6563600000000003  1.0000
  S   S9        1.0  0.98933  0.21107  0.47348  1.0000
  S   S10       1.0  0.27288  0.03265999999999999  0.63575  1.0000
  S   S11       1.0  0.24471  0.9218200000000001  0.34147  1.0000
  S   S12       1.0  0.51462  0.7374299999999999  0.52366  1.0000
  O   O1        1.0  0.68614  0.25178  0.12421  1.0000
  O   O2        1.0  0.86815  0.28105  0.1123  1.0000
  O   O3        1.0  0.79249  0.68386  0.8603000000000002  1.0000
  O   O4        1.0  0.9401900000000002  0.8817900000000001  0.9289300000000003  1.0000
  O   O5        1.0  0.81214  0.13718999999999995  0.87826  1.0000
  O   O6        1.0  0.6287600000000001  0.17539000000000005  0.8896000000000002  1.0000
  O   O7        1.0  0.7267899999999999  0.84802  0.14455  1.0000
  O   O8        1.0  0.56322  0.9536  0.07005000000000002  1.0000
  O   O9        1.0  0.31409  0.7481500000000001  0.8757200000000002  1.0000
  O   O10       1.0  0.13116000000000008  0.71902  0.8864000000000002  1.0000
  O   O11       1.0  0.2035  0.31839  0.13788  1.0000
  O   O12       1.0  0.059179999999999996  0.11705999999999998  0.07091  1.0000
  O   O13       1.0  0.18834  0.86237  0.12213  1.0000
  O   O14       1.0  0.37133  0.82511  0.11038  1.0000
  O   O15       1.0  0.2733900000000001  0.15343000000000007  0.8554800000000001  1.0000
  O   O16       1.0  0.43648  0.04739000000000014  0.9299100000000002  1.0000
  O   O17       1.0  0.7465200000000002  0.9750300000000002  0.9898300000000002  1.0000
  O   O18       1.0  0.25278  0.024850000000000004  0.009810000000000001  1.0000
