data_image0
_chemical_formula_structural       Co2H16C24N4O8
_chemical_formula_sum              "Co2 H16 C24 N4 O8"
_cell_length_a       5.38804
_cell_length_b       10.64999
_cell_length_c       12.90265
_cell_angle_alpha    89.99719
_cell_angle_beta     89.98195
_cell_angle_gamma    91.11469

_space_group_name_H-M_alt    "P 1"
_space_group_IT_number       1

loop_
  _space_group_symop_operation_xyz
  'x, y, z'

loop_
  _atom_site_type_symbol
  _atom_site_label
  _atom_site_symmetry_multiplicity
  _atom_site_fract_x
  _atom_site_fract_y
  _atom_site_fract_z
  _atom_site_occupancy
  Co  Co1       1.0  0.8369099999999999  0.7370599999999998  0.25378  1.0000
  Co  Co2       1.0  0.33812  0.23716999999999996  0.7459799999999998  1.0000
  H   H1        1.0  0.20654  0.8845599999999998  0.50089  1.0000
  H   H2        1.0  0.8102099999999999  0.09044999999999999  0.9827099999999999  1.0000
  H   H3        1.0  0.85715  0.12373  0.49074  1.0000
  H   H4        1.0  0.38867999999999997  0.7605699999999997  0.35561  1.0000
  H   H5        1.0  0.6666  0.9787799999999998  0.14481  1.0000
  H   H6        1.0  0.27547  0.74596  0.1353  1.0000
  H   H7        1.0  0.012779999999999993  0.9941599999999999  0.34101  1.0000
  H   H8        1.0  0.45861  0.8611099999999998  0.98392  1.0000
  H   H9        1.0  0.70746  0.38386  0.49948  1.0000
  H   H10       1.0  0.3097  0.58972  0.01718  1.0000
  H   H11       1.0  0.358  0.62322  0.50947  1.0000
  H   H12       1.0  0.88884  0.26027  0.6443399999999999  1.0000
  H   H13       1.0  0.16703  0.47865999999999986  0.8549599999999998  1.0000
  H   H14       1.0  0.7754999999999999  0.24575999999999998  0.8644299999999998  1.0000
  H   H15       1.0  0.51316  0.49376  0.6589999999999999  1.0000
  H   H16       1.0  0.95835  0.36033  0.01586  1.0000
  C   C1        1.0  0.15204  0.992  0.97579  1.0000
  C   C2        1.0  0.37956  0.9141999999999998  0.46528999999999987  1.0000
  C   C3        1.0  0.92276  0.01944  0.01881  1.0000
  C   C4        1.0  0.74635  0.04735999999999999  0.45923  1.0000
  C   C5        1.0  0.4117100000000001  0.09599999999999997  0.58889  1.0000
  C   C6        1.0  0.48226999999999987  0.8433699999999997  0.3863599999999999  1.0000
  C   C7        1.0  0.51274  0.01978  0.5018099999999999  1.0000
  C   C8        1.0  0.8367399999999999  0.9540299999999998  0.10575  1.0000
  C   C9        1.0  0.18398  0.8260999999999998  0.10111  1.0000
  C   C10       1.0  0.83637  0.97406  0.37841  1.0000
  C   C11       1.0  0.28527  0.89075  0.01716  1.0000
  C   C12       1.0  0.25162  0.06996  0.88667  1.0000
  C   C13       1.0  0.65197  0.49177  0.024  1.0000
  C   C14       1.0  0.8799999999999999  0.41423  0.5348799999999999  1.0000
  C   C15       1.0  0.42264  0.51912  0.98099  1.0000
  C   C16       1.0  0.24642  0.54716  0.54106  1.0000
  C   C17       1.0  0.91029  0.59629  0.4113  1.0000
  C   C18       1.0  0.98243  0.34328  0.6138099999999999  1.0000
  C   C19       1.0  0.013219999999999994  0.5198399999999999  0.49835  1.0000
  C   C20       1.0  0.33715  0.45374  0.8938599999999999  1.0000
  C   C21       1.0  0.68424  0.32598  0.8985599999999999  1.0000
  C   C22       1.0  0.33641  0.47371  0.62178  1.0000
  C   C23       1.0  0.78513  0.39061  0.9826699999999999  1.0000
  C   C24       1.0  0.75085  0.5704399999999998  0.11271  1.0000
  N   N1        1.0  0.9659099999999999  0.8558299999999999  0.14449  1.0000
  N   N2        1.0  0.7036599999999998  0.8722099999999998  0.3439599999999999  1.0000
  N   N3        1.0  0.46591  0.35540999999999995  0.8553299999999998  1.0000
  N   N4        1.0  0.20415999999999998  0.3716  0.6559899999999997  1.0000
  O   O1        1.0  0.10086999999999999  0.14833  0.8454099999999998  1.0000
  O   O2        1.0  0.46814  0.057569999999999996  0.8537799999999998  1.0000
  O   O3        1.0  0.56351  0.17027  0.63693  1.0000
  O   O4        1.0  0.1892  0.08408  0.61496  1.0000
  O   O5        1.0  0.59988  0.64829  0.15471  1.0000
  O   O6        1.0  0.96811  0.5595499999999999  0.14516  1.0000
  O   O7        1.0  0.06262  0.6708799999999999  0.36326  1.0000
  O   O8        1.0  0.6895399999999999  0.58418  0.38523  1.0000
