data_image0
_chemical_formula_structural       Dy2H18C24N6O12
_chemical_formula_sum              "Dy2 H18 C24 N6 O12"
_cell_length_a       10.86015
_cell_length_b       11.1709
_cell_length_c       12.96796
_cell_angle_alpha    69.68606
_cell_angle_beta     67.97765
_cell_angle_gamma    80.00427

_space_group_name_H-M_alt    "P 1"
_space_group_IT_number       1

loop_
  _space_group_symop_operation_xyz
  'x, y, z'

loop_
  _atom_site_type_symbol
  _atom_site_label
  _atom_site_symmetry_multiplicity
  _atom_site_fract_x
  _atom_site_fract_y
  _atom_site_fract_z
  _atom_site_occupancy
  Dy  Dy1       1.0  0.04891  0.05267000000000001  0.33561  1.0000
  Dy  Dy2       1.0  0.94533  0.94787  0.6642  1.0000
  H   H1        1.0  0.8592400000000001  0.3448100000000001  0.67719  1.0000
  H   H2        1.0  0.8264099999999999  0.34049999999999997  0.10137  1.0000
  H   H3        1.0  0.7123599999999998  0.07084  0.34599  1.0000
  H   H4        1.0  0.18465999999999996  0.4967500000000001  0.22204000000000002  1.0000
  H   H5        1.0  0.12687000000000007  0.34601999999999994  0.29359  1.0000
  H   H6        1.0  0.3272100000000001  0.48786999999999997  0.95634  1.0000
  H   H7        1.0  0.27221  0.34439000000000003  0.05995  1.0000
  H   H8        1.0  0.3853300000000001  0.8985900000000004  0.7959499999999999  1.0000
  H   H9        1.0  0.55503  0.90222  0.75785  1.0000
  H   H10       1.0  0.13941000000000003  0.6536300000000002  0.3231  1.0000
  H   H11       1.0  0.17155  0.6599800000000001  0.8982399999999999  1.0000
  H   H12       1.0  0.28261000000000003  0.9296000000000002  0.65478  1.0000
  H   H13       1.0  0.8143399999999998  0.50249  0.77911  1.0000
  H   H14       1.0  0.87359  0.6527800000000001  0.7065999999999999  1.0000
  H   H15       1.0  0.67054  0.51283  0.04367  1.0000
  H   H16       1.0  0.7258299999999999  0.6563100000000002  0.9396900000000001  1.0000
  H   H17       1.0  0.60887  0.10088999999999998  0.20507000000000003  1.0000
  H   H18       1.0  0.43909999999999993  0.09715000000000001  0.24358  1.0000
  C   C1        1.0  0.97403  0.24348999999999998  0.50848  1.0000
  C   C2        1.0  0.04514  0.2457  0.14229  1.0000
  C   C3        1.0  0.7351199999999998  0.9820100000000003  0.5558  1.0000
  C   C4        1.0  0.9898799999999998  0.37491000000000013  0.50094  1.0000
  C   C5        1.0  0.025619999999999973  0.3771000000000001  0.06874  1.0000
  C   C6        1.0  0.6125999999999999  0.9874100000000001  0.5302  1.0000
  C   C7        1.0  0.07246999999999994  0.46182000000000006  0.39692000000000005  1.0000
  C   C8        1.0  0.12794  0.4667  0.01148  1.0000
  C   C9        1.0  0.48888  0.9471400000000001  0.62077  1.0000
  C   C10       1.0  0.9210299999999998  0.41383  0.60044  1.0000
  C   C11       1.0  0.90065  0.41252  0.05603  1.0000
  C   C12       1.0  0.61782  0.038169999999999996  0.41329  1.0000
  C   C13       1.0  0.021689999999999997  0.75628  0.49133  1.0000
  C   C14       1.0  0.95261  0.7547900000000002  0.8569400000000001  1.0000
  C   C15       1.0  0.25883  0.01911000000000001  0.44578  1.0000
  C   C16       1.0  0.008700000000000001  0.62388  0.4995  1.0000
  C   C17       1.0  0.9722799999999999  0.6234400000000002  0.93069  1.0000
  C   C18       1.0  0.3821700000000001  0.012370000000000016  0.47070999999999996  1.0000
  C   C19       1.0  0.9268499999999998  0.5366100000000001  0.60392  1.0000
  C   C20       1.0  0.8699199999999998  0.5338900000000002  0.98813  1.0000
  C   C21       1.0  0.50594  0.05246000000000001  0.38007  1.0000
  C   C22       1.0  0.07798999999999995  0.5847200000000002  0.40021  1.0000
  C   C23       1.0  0.09725  0.5880600000000001  0.94351  1.0000
  C   C24       1.0  0.37715  0.96157  0.58743  1.0000
  N   N1        1.0  0.15031999999999998  0.4270100000000001  0.29918  1.0000
  N   N2        1.0  0.25186  0.43961  0.0253  1.0000
  N   N3        1.0  0.4770699999999999  0.8901800000000001  0.7374100000000001  1.0000
  N   N4        1.0  0.8496300000000002  0.5716  0.7016899999999999  1.0000
  N   N5        1.0  0.7458799999999999  0.5610600000000001  0.9746400000000001  1.0000
  N   N6        1.0  0.51723  0.10979000000000001  0.26357  1.0000
  O   O1        1.0  0.01314999999999997  0.21293000000000015  0.41376  1.0000
  O   O2        1.0  0.15797  0.20629000000000003  0.15828  1.0000
  O   O3        1.0  0.84693  0.008089999999999995  0.47113  1.0000
  O   O4        1.0  0.9217399999999999  0.16223  0.60983  1.0000
  O   O5        1.0  0.94872  0.16875999999999997  0.19695000000000001  1.0000
  O   O6        1.0  0.73239  0.9518400000000001  0.66161  1.0000
  O   O7        1.0  0.98188  0.7869999999999998  0.58605  1.0000
  O   O8        1.0  0.8394199999999999  0.79373  0.8412399999999999  1.0000
  O   O9        1.0  0.1471399999999999  0.9944100000000002  0.53096  1.0000
  O   O10       1.0  0.07161000000000002  0.8381500000000001  0.38975999999999994  1.0000
  O   O11       1.0  0.04870999999999993  0.8317500000000002  0.8019300000000001  1.0000
  O   O12       1.0  0.2612699999999999  0.04832  0.34012  1.0000
