data_image0
_chemical_formula_structural       Cd4H12C36O24
_chemical_formula_sum              "Cd4 H12 C36 O24"
_cell_length_a       10.31151
_cell_length_b       13.65873
_cell_length_c       13.64064
_cell_angle_alpha    90.0
_cell_angle_beta     90.0
_cell_angle_gamma    89.55155

_space_group_name_H-M_alt    "P 1"
_space_group_IT_number       1

loop_
  _space_group_symop_operation_xyz
  'x, y, z'

loop_
  _atom_site_type_symbol
  _atom_site_label
  _atom_site_symmetry_multiplicity
  _atom_site_fract_x
  _atom_site_fract_y
  _atom_site_fract_z
  _atom_site_occupancy
  Cd  Cd1       1.0  0.8463600000000001  0.95304  0.59408  1.0000
  Cd  Cd2       1.0  0.65363  0.54697  0.09406999999999997  1.0000
  Cd  Cd3       1.0  0.15364  0.04696000000000001  0.40593  1.0000
  Cd  Cd4       1.0  0.34636000000000006  0.45304  0.9059299999999998  1.0000
  H   H1        1.0  0.8596000000000001  0.27535  0.28972999999999993  1.0000
  H   H2        1.0  0.6263100000000003  0.06225  0.4411699999999999  1.0000
  H   H3        1.0  0.44187  0.29815  0.28245  1.0000
  H   H4        1.0  0.6403900000000001  0.22465  0.78973  1.0000
  H   H5        1.0  0.87369  0.43775  0.94117  1.0000
  H   H6        1.0  0.058130000000000015  0.20185  0.78245  1.0000
  H   H7        1.0  0.14039  0.72465  0.71027  1.0000
  H   H8        1.0  0.37369  0.93776  0.55883  1.0000
  H   H9        1.0  0.55812  0.70185  0.71756  1.0000
  H   H10       1.0  0.35960000000000003  0.77535  0.21027  1.0000
  H   H11       1.0  0.12631  0.56225  0.058829999999999986  1.0000
  H   H12       1.0  0.9418700000000001  0.79815  0.21754999999999994  1.0000
  C   C1        1.0  0.65166  0.29589  0.28  1.0000
  C   C2        1.0  0.7558900000000001  0.16373  0.36954  1.0000
  C   C3        1.0  0.5208300000000001  0.17719  0.3662  1.0000
  C   C4        1.0  0.8759100000000001  0.10909  0.40069  1.0000
  C   C5        1.0  0.7651  0.24776  0.31117  1.0000
  C   C6        1.0  0.3913800000000001  0.13782  0.3916199999999999  1.0000
  C   C7        1.0  0.63386  0.1282  0.3969599999999999  1.0000
  C   C8        1.0  0.52941  0.26088  0.3074999999999999  1.0000
  C   C9        1.0  0.65915  0.3837  0.21635  1.0000
  C   C10       1.0  0.8483300000000001  0.20412  0.78  1.0000
  C   C11       1.0  0.7441  0.33627  0.86954  1.0000
  C   C12       1.0  0.97917  0.32282  0.8662  1.0000
  C   C13       1.0  0.62409  0.39092  0.90069  1.0000
  C   C14       1.0  0.7349  0.25225  0.81117  1.0000
  C   C15       1.0  0.10861000000000003  0.36218  0.8916099999999998  1.0000
  C   C16       1.0  0.8661300000000001  0.3718000000000001  0.8969599999999998  1.0000
  C   C17       1.0  0.9705900000000002  0.23913  0.8075  1.0000
  C   C18       1.0  0.84084  0.1163  0.71635  1.0000
  C   C19       1.0  0.34833000000000003  0.7041200000000002  0.72  1.0000
  C   C20       1.0  0.2441  0.83627  0.63046  1.0000
  C   C21       1.0  0.47917  0.8228200000000001  0.63381  1.0000
  C   C22       1.0  0.12408000000000001  0.89092  0.59931  1.0000
  C   C23       1.0  0.23490000000000005  0.75225  0.68883  1.0000
  C   C24       1.0  0.6086100000000001  0.8621800000000001  0.6083799999999998  1.0000
  C   C25       1.0  0.36613  0.87181  0.6030399999999998  1.0000
  C   C26       1.0  0.47058  0.73913  0.6925  1.0000
  C   C27       1.0  0.34084  0.61631  0.7836599999999999  1.0000
  C   C28       1.0  0.15166  0.79589  0.22  1.0000
  C   C29       1.0  0.25589  0.66373  0.13046  1.0000
  C   C30       1.0  0.020830000000000005  0.67719  0.1338  1.0000
  C   C31       1.0  0.37591  0.60909  0.09930999999999997  1.0000
  C   C32       1.0  0.2651  0.74776  0.18883  1.0000
  C   C33       1.0  0.89138  0.63783  0.10837999999999998  1.0000
  C   C34       1.0  0.13386  0.6282  0.10303999999999999  1.0000
  C   C35       1.0  0.029410000000000006  0.76088  0.1925  1.0000
  C   C36       1.0  0.15915000000000004  0.8837  0.28365  1.0000
  O   O1        1.0  0.3783900000000001  0.0704  0.45537999999999995  1.0000
  O   O2        1.0  0.29064000000000006  0.17056  0.34694999999999987  1.0000
  O   O3        1.0  0.98523  0.1466  0.37734  1.0000
  O   O4        1.0  0.5589700000000001  0.40964  0.16676  1.0000
  O   O5        1.0  0.8638600000000001  0.02785  0.4443299999999999  1.0000
  O   O6        1.0  0.7626  0.4334  0.20985999999999996  1.0000
  O   O7        1.0  0.12160000000000001  0.42961000000000005  0.9553699999999998  1.0000
  O   O8        1.0  0.20936  0.32944  0.84695  1.0000
  O   O9        1.0  0.51476  0.3534  0.87735  1.0000
  O   O10       1.0  0.9410200000000001  0.09036  0.66676  1.0000
  O   O11       1.0  0.63614  0.47216  0.94433  1.0000
  O   O12       1.0  0.7374000000000003  0.0666  0.70986  1.0000
  O   O13       1.0  0.6216000000000002  0.9296  0.54462  1.0000
  O   O14       1.0  0.70935  0.82945  0.65305  1.0000
  O   O15       1.0  0.01476000000000001  0.8534  0.62266  1.0000
  O   O16       1.0  0.44102000000000013  0.59037  0.83324  1.0000
  O   O17       1.0  0.13614  0.97216  0.55567  1.0000
  O   O18       1.0  0.23740000000000006  0.5666  0.79014  1.0000
  O   O19       1.0  0.87839  0.5704  0.04462  1.0000
  O   O20       1.0  0.7906400000000001  0.67056  0.15305  1.0000
  O   O21       1.0  0.48523000000000005  0.6466000000000001  0.12266  1.0000
  O   O22       1.0  0.05897000000000001  0.90964  0.33324  1.0000
  O   O23       1.0  0.3638600000000001  0.52785  0.05567  1.0000
  O   O24       1.0  0.26259000000000005  0.9334  0.29014  1.0000
