data_image0
_chemical_formula_structural       Co2H24C32N4O8
_chemical_formula_sum              "Co2 H24 C32 N4 O8"
_cell_length_a       8.24114
_cell_length_b       10.568810000000001
_cell_length_c       11.01327
_cell_angle_alpha    89.99840999999999
_cell_angle_beta     86.72764
_cell_angle_gamma    89.98072

_symmetry_space_group_name_H-M    'P 1'
_symmetry_Int_Tables_number       1

loop_
  _symmetry_equiv_pos_as_xyz
  'x,y,z'

loop_
  _atom_site_type_symbol
  _atom_site_label
  _atom_site_symmetry_multiplicity
  _atom_site_fract_x
  _atom_site_fract_y
  _atom_site_fract_z
  _atom_site_occupancy
  Co  Co1       1.0  0.0  0.50001  0.99998  1.0000
  Co  Co2       1.0  0.49999  1.0000000000000003e-05  0.49997  1.0000
  H   H1        1.0  0.69988  0.38564  0.90079  1.0000
  H   H2        1.0  0.44173000000000007  0.4555  0.81224  1.0000
  H   H3        1.0  0.63651  0.83442  0.8008  1.0000
  H   H4        1.0  0.88387  0.74875  0.8930700000000001  1.0000
  H   H5        1.0  0.24863000000000002  0.8229800000000002  0.62782  1.0000
  H   H6        1.0  0.10457  0.7019900000000001  0.75352  1.0000
  H   H7        1.0  0.7993500000000001  0.8857700000000002  0.59927  1.0000
  H   H8        1.0  0.0573  0.9555400000000001  0.68806  1.0000
  H   H9        1.0  0.86375  0.33450000000000013  0.69938  1.0000
  H   H10       1.0  0.61608  0.24941  0.60693  1.0000
  H   H11       1.0  0.25055  0.32330000000000003  0.8715  1.0000
  H   H12       1.0  0.39601  0.19868000000000002  0.74353  1.0000
  H   H13       1.0  0.30014  0.61438  0.0992  1.0000
  H   H14       1.0  0.55826  0.5445400000000001  0.18775000000000003  1.0000
  H   H15       1.0  0.3635  0.16561  0.19917  1.0000
  H   H16       1.0  0.11615000000000002  0.25129  0.10691  1.0000
  H   H17       1.0  0.75141  0.17705000000000004  0.37211  1.0000
  H   H18       1.0  0.89546  0.29808  0.24645000000000003  1.0000
  H   H19       1.0  0.20057  0.11430000000000001  0.40072  1.0000
  H   H20       1.0  0.94261  0.04447  0.31194  1.0000
  H   H21       1.0  0.13621  0.6655500000000001  0.30063  1.0000
  H   H22       1.0  0.3839100000000001  0.7506000000000002  0.39306  1.0000
  H   H23       1.0  0.7495  0.67668  0.12847  1.0000
  H   H24       1.0  0.604  0.8013500000000002  0.25647  1.0000
  C   C1        1.0  0.67933  0.48406  0.87746  1.0000
  C   C2        1.0  0.53663  0.52406  0.82808  1.0000
  C   C3        1.0  0.64485  0.7343700000000001  0.82194  1.0000
  C   C4        1.0  0.78315  0.68735  0.87248  1.0000
  C   C5        1.0  0.51549  0.65234  0.79914  1.0000
  C   C6        1.0  0.36503  0.70005  0.74999  1.0000
  C   C7        1.0  0.36795  0.79186  0.65736  1.0000
  C   C8        1.0  0.20951000000000003  0.6596500000000001  0.79668  1.0000
  C   C9        1.0  0.81954  0.9841200000000002  0.62288  1.0000
  C   C10       1.0  0.9622099999999999  0.023880000000000002  0.6724  1.0000
  C   C11       1.0  0.85467  0.23443000000000003  0.67836  1.0000
  C   C12       1.0  0.7163699999999998  0.18764000000000003  0.62778  1.0000
  C   C13       1.0  0.98343  0.15206  0.70136  1.0000
  C   C14       1.0  0.13435000000000002  0.19927  0.7500000000000001  1.0000
  C   C15       1.0  0.13126999999999997  0.29156  0.84234  1.0000
  C   C16       1.0  0.28894  0.15733000000000003  0.70251  1.0000
  C   C17       1.0  0.32062  0.51599  0.12256000000000002  1.0000
  C   C18       1.0  0.46341  0.4759600000000001  0.17190000000000003  1.0000
  C   C19       1.0  0.35521  0.26564000000000004  0.17803  1.0000
  C   C20       1.0  0.21683000000000005  0.31268  0.12753  1.0000
  C   C21       1.0  0.48451000000000005  0.3477  0.20087  1.0000
  C   C22       1.0  0.63501  0.29999  0.25  1.0000
  C   C23       1.0  0.63208  0.20821  0.34263  1.0000
  C   C24       1.0  0.7905  0.34049  0.20335000000000003  1.0000
  C   C25       1.0  0.18038  0.01591  0.37713  1.0000
  C   C26       1.0  0.03778  0.9761600000000001  0.3276  1.0000
  C   C27       1.0  0.14534999999999998  0.76563  0.32165000000000005  1.0000
  C   C28       1.0  0.28357  0.81239  0.37223  1.0000
  C   C29       1.0  0.016520000000000003  0.84796  0.29867  1.0000
  C   C30       1.0  0.86566  0.8007300000000002  0.24997  1.0000
  C   C31       1.0  0.86877  0.70841  0.15765  1.0000
  C   C32       1.0  0.71108  0.84264  0.29751  1.0000
  N   N1        1.0  0.80156  0.564  0.9013000000000001  1.0000
  N   N2        1.0  0.69753  0.06432  0.59905  1.0000
  N   N3        1.0  0.19847000000000006  0.43601000000000006  0.09867  1.0000
  N   N4        1.0  0.30251  0.93575  0.40085  1.0000
  O   O1        1.0  0.49627000000000004  0.8384100000000001  0.60511  1.0000
  O   O2        1.0  0.18506  0.582  0.8832  1.0000
  O   O3        1.0  0.003129999999999995  0.33793000000000006  0.8946  1.0000
  O   O4        1.0  0.31085  0.07872  0.61647  1.0000
  O   O5        1.0  0.50377  0.16169000000000003  0.39495  1.0000
  O   O6        1.0  0.8149  0.41822  0.11692  1.0000
  O   O7        1.0  0.9969200000000001  0.66205  0.10539000000000001  1.0000
  O   O8        1.0  0.68916  0.92121  0.38358  1.0000
