data_image0
_chemical_formula_structural       Zn6H24C40N12O16
_chemical_formula_sum              "Zn6 H24 C40 N12 O16"
_cell_length_a       7.90407
_cell_length_b       9.18056
_cell_length_c       19.08391
_cell_angle_alpha    90.0
_cell_angle_beta     90.0
_cell_angle_gamma    114.30618

_space_group_name_H-M_alt    "P 1"
_space_group_IT_number       1

loop_
  _space_group_symop_operation_xyz
  'x, y, z'

loop_
  _atom_site_type_symbol
  _atom_site_label
  _atom_site_symmetry_multiplicity
  _atom_site_fract_x
  _atom_site_fract_y
  _atom_site_fract_z
  _atom_site_occupancy
  Zn  Zn1       1.0  0.83222  0.30127000000000004  0.46743  1.0000
  Zn  Zn2       1.0  0.66778  0.69873  0.96743  1.0000
  Zn  Zn3       1.0  0.16778  0.69873  0.53257  1.0000
  Zn  Zn4       1.0  0.33222000000000007  0.30127000000000004  0.03257  1.0000
  Zn  Zn5       1.0  0.0  0.0  0.5  1.0000
  Zn  Zn6       1.0  0.5  0.0  0.0  1.0000
  H   H1        1.0  0.9547  0.88098  0.30202  1.0000
  H   H2        1.0  0.9224  0.78723  0.17754  1.0000
  H   H3        1.0  0.8143200000000003  0.18926  0.11464  1.0000
  H   H4        1.0  0.83817  0.27921  0.24002  1.0000
  H   H5        1.0  0.3910699999999999  0.24301  0.57589  1.0000
  H   H6        1.0  0.45191999999999993  0.56315  0.60139  1.0000
  H   H7        1.0  0.5453  0.11902  0.80201  1.0000
  H   H8        1.0  0.57759  0.21277  0.67754  1.0000
  H   H9        1.0  0.68568  0.8107500000000002  0.61464  1.0000
  H   H10       1.0  0.66183  0.72079  0.74002  1.0000
  H   H11       1.0  0.10893000000000001  0.75699  0.07589  1.0000
  H   H12       1.0  0.048080000000000005  0.43686  0.10139  1.0000
  H   H13       1.0  0.0453  0.11902  0.69798  1.0000
  H   H14       1.0  0.07759  0.21277  0.82246  1.0000
  H   H15       1.0  0.18568000000000018  0.8107500000000002  0.8853599999999999  1.0000
  H   H16       1.0  0.16182999999999997  0.72079  0.75998  1.0000
  H   H17       1.0  0.60893  0.75699  0.42411  1.0000
  H   H18       1.0  0.5480800000000002  0.43686  0.39861  1.0000
  H   H19       1.0  0.4547  0.88098  0.19798  1.0000
  H   H20       1.0  0.4224000000000001  0.78723  0.32246  1.0000
  H   H21       1.0  0.31432  0.18926  0.38536  1.0000
  H   H22       1.0  0.33817  0.27921  0.25998  1.0000
  H   H23       1.0  0.89106  0.24301  0.9241099999999999  1.0000
  H   H24       1.0  0.95192  0.56315  0.8986  1.0000
  C   C1        1.0  0.8989  0.12601000000000007  0.35444  1.0000
  C   C2        1.0  0.89504  0.08356000000000001  0.27854  1.0000
  C   C3        1.0  0.92364  0.94728  0.26053  1.0000
  C   C4        1.0  0.90809  0.89655  0.1912  1.0000
  C   C5        1.0  0.86673  0.9835400000000001  0.13851  1.0000
  C   C6        1.0  0.84852  0.12487  0.15606  1.0000
  C   C7        1.0  0.8606500000000002  0.17403  0.22567  1.0000
  C   C8        1.0  0.82048  0.9176200000000002  0.06629  1.0000
  C   C9        1.0  0.30928000000000005  0.3092400000000001  0.56287  1.0000
  C   C10       1.0  0.3406200000000001  0.4675900000000001  0.57452  1.0000
  C   C11       1.0  0.6011  0.87399  0.85444  1.0000
  C   C12       1.0  0.60495  0.91644  0.77854  1.0000
  C   C13       1.0  0.57636  0.05272000000000002  0.76053  1.0000
  C   C14       1.0  0.59191  0.10345000000000003  0.6912  1.0000
  C   C15       1.0  0.63327  0.016460000000000006  0.63851  1.0000
  C   C16       1.0  0.65148  0.87514  0.65606  1.0000
  C   C17       1.0  0.63935  0.82597  0.72567  1.0000
  C   C18       1.0  0.67951  0.08238  0.56629  1.0000
  C   C19       1.0  0.19072  0.69077  0.06287  1.0000
  C   C20       1.0  0.15938  0.53242  0.07452  1.0000
  C   C21       1.0  0.10110000000000015  0.8740000000000002  0.64556  1.0000
  C   C22       1.0  0.10495000000000002  0.91644  0.72146  1.0000
  C   C23       1.0  0.07636  0.05272000000000002  0.73947  1.0000
  C   C24       1.0  0.09191000000000006  0.10345000000000003  0.8088  1.0000
  C   C25       1.0  0.13327  0.016460000000000006  0.8614900000000001  1.0000
  C   C26       1.0  0.15148000000000003  0.87514  0.8439399999999999  1.0000
  C   C27       1.0  0.13935  0.82597  0.77433  1.0000
  C   C28       1.0  0.17951  0.08238  0.93371  1.0000
  C   C29       1.0  0.69072  0.69077  0.4371300000000001  1.0000
  C   C30       1.0  0.65938  0.53242  0.42547999999999997  1.0000
  C   C31       1.0  0.39890000000000003  0.12601000000000007  0.14556  1.0000
  C   C32       1.0  0.39505  0.08356000000000001  0.22146  1.0000
  C   C33       1.0  0.42364  0.94728  0.23946999999999996  1.0000
  C   C34       1.0  0.4080900000000001  0.89655  0.3088  1.0000
  C   C35       1.0  0.36673000000000006  0.9835400000000001  0.36149  1.0000
  C   C36       1.0  0.3485200000000001  0.12486000000000001  0.34394  1.0000
  C   C37       1.0  0.36065  0.17403  0.27433  1.0000
  C   C38       1.0  0.3204800000000001  0.9176200000000002  0.43371  1.0000
  C   C39       1.0  0.8092800000000001  0.3092400000000001  0.93713  1.0000
  C   C40       1.0  0.8406200000000001  0.4675800000000001  0.92548  1.0000
  N   N1        1.0  0.14945  0.24191  0.52613  1.0000
  N   N2        1.0  0.08438  0.35307  0.51493  1.0000
  N   N3        1.0  0.19883  0.49129  0.54443  1.0000
  N   N4        1.0  0.35055  0.75809  0.02613  1.0000
  N   N5        1.0  0.4156200000000002  0.64693  0.01493  1.0000
  N   N6        1.0  0.30117  0.50871  0.04443  1.0000
  N   N7        1.0  0.85055  0.75809  0.47386999999999996  1.0000
  N   N8        1.0  0.91561  0.64693  0.48507  1.0000
  N   N9        1.0  0.80117  0.50871  0.45557  1.0000
  N   N10       1.0  0.64945  0.24191  0.97387  1.0000
  N   N11       1.0  0.58438  0.35307  0.98507  1.0000
  N   N12       1.0  0.69883  0.49129  0.95557  1.0000
  O   O1        1.0  0.9666700000000003  0.057360000000000015  0.39595  1.0000
  O   O2        1.0  0.8330800000000002  0.22894000000000006  0.37112  1.0000
  O   O3        1.0  0.8330200000000004  0.7850500000000002  0.05217  1.0000
  O   O4        1.0  0.7600700000000002  0.9863900000000001  0.02112  1.0000
  O   O5        1.0  0.53333  0.94264  0.8959599999999999  1.0000
  O   O6        1.0  0.66691  0.77107  0.87112  1.0000
  O   O7        1.0  0.66698  0.21495000000000006  0.55217  1.0000
  O   O8        1.0  0.73993  0.01362  0.52112  1.0000
  O   O9        1.0  0.03332999999999998  0.94264  0.60404  1.0000
  O   O10       1.0  0.1669100000000001  0.7710600000000002  0.62888  1.0000
  O   O11       1.0  0.16698  0.21495000000000006  0.94783  1.0000
  O   O12       1.0  0.23993  0.01362  0.97888  1.0000
  O   O13       1.0  0.46667  0.057360000000000015  0.10404  1.0000
  O   O14       1.0  0.33308  0.22894000000000006  0.12888  1.0000
  O   O15       1.0  0.3330200000000001  0.7850500000000002  0.44783  1.0000
  O   O16       1.0  0.26007  0.98638  0.4788799999999999  1.0000
