data_image0
_chemical_formula_structural       Sr4H8C24S4O16
_chemical_formula_sum              "Sr4 H8 C24 S4 O16"
_cell_length_a       6.42546
_cell_length_b       10.59466
_cell_length_c       18.48362
_cell_angle_alpha    90.23087999999998
_cell_angle_beta     95.6134
_cell_angle_gamma    90.34662

_symmetry_space_group_name_H-M    'P 1'
_symmetry_Int_Tables_number       1

loop_
  _symmetry_equiv_pos_as_xyz
  'x,y,z'

loop_
  _atom_site_type_symbol
  _atom_site_label
  _atom_site_symmetry_multiplicity
  _atom_site_fract_x
  _atom_site_fract_y
  _atom_site_fract_z
  _atom_site_occupancy
  Sr  Sr1       1.0  0.75051  0.10235  0.0056500000000000005  1.0000
  Sr  Sr2       1.0  0.7475  0.59992  0.49389  1.0000
  Sr  Sr3       1.0  0.24949000000000002  0.89765  0.9943500000000001  1.0000
  Sr  Sr4       1.0  0.25249  0.40008  0.50611  1.0000
  H   H1        1.0  0.14546999999999996  0.36228  0.8314200000000002  1.0000
  H   H2        1.0  0.13877  0.44207  0.69451  1.0000
  H   H3        1.0  0.34428  0.8580499999999999  0.67132  1.0000
  H   H4        1.0  0.36418  0.94379  0.80805  1.0000
  H   H5        1.0  0.85453  0.6377199999999998  0.16858  1.0000
  H   H6        1.0  0.86122  0.55793  0.30549  1.0000
  H   H7        1.0  0.65571  0.14195  0.32868000000000014  1.0000
  H   H8        1.0  0.63582  0.05621  0.19195000000000004  1.0000
  C   C1        1.0  0.84229  0.27773999999999993  0.8012  1.0000
  C   C2        1.0  0.02146000000000003  0.34427  0.7883100000000001  1.0000
  C   C3        1.0  0.019389999999999998  0.38331  0.71541  1.0000
  C   C4        1.0  0.83654  0.34673999999999994  0.6738  1.0000
  C   C5        1.0  0.77553  0.3843199999999999  0.59867  1.0000
  C   C6        1.0  0.79431  0.22397  0.8714600000000001  1.0000
  C   C7        1.0  0.64749  0.7744999999999999  0.6994000000000002  1.0000
  C   C8        1.0  0.47103999999999996  0.84172  0.7134800000000001  1.0000
  C   C9        1.0  0.47944  0.88356  0.78625  1.0000
  C   C10       1.0  0.66369  0.84808  0.82672  1.0000
  C   C11       1.0  0.72581  0.88475  0.9022200000000001  1.0000
  C   C12       1.0  0.69039  0.71818  0.62889  1.0000
  C   C13       1.0  0.15771  0.72226  0.1988  1.0000
  C   C14       1.0  0.97854  0.65573  0.21169  1.0000
  C   C15       1.0  0.98061  0.61669  0.28459  1.0000
  C   C16       1.0  0.16346  0.65326  0.32621  1.0000
  C   C17       1.0  0.22446  0.61568  0.40133  1.0000
  C   C18       1.0  0.20568  0.7760299999999999  0.12854000000000002  1.0000
  C   C19       1.0  0.35251  0.2255  0.3006  1.0000
  C   C20       1.0  0.52895  0.15828  0.28652  1.0000
  C   C21       1.0  0.52056  0.11644  0.21375  1.0000
  C   C22       1.0  0.33631  0.15192  0.17328000000000002  1.0000
  C   C23       1.0  0.27419  0.11525  0.09779  1.0000
  C   C24       1.0  0.3096  0.28182  0.37111  1.0000
  S   S1        1.0  0.66845  0.26365  0.72414  1.0000
  S   S2        1.0  0.82607  0.7630599999999998  0.7753500000000002  1.0000
  S   S3        1.0  0.33155  0.7363499999999998  0.27586  1.0000
  S   S4        1.0  0.17392  0.23693999999999998  0.22465  1.0000
  O   O1        1.0  0.92797  0.24416999999999994  0.92655  1.0000
  O   O2        1.0  0.62539  0.16048999999999997  0.87404  1.0000
  O   O3        1.0  0.5837199999999998  0.40652999999999995  0.57808  1.0000
  O   O4        1.0  0.91893  0.40009  0.5554600000000001  1.0000
  O   O5        1.0  0.5520200000000001  0.73269  0.5748100000000002  1.0000
  O   O6        1.0  0.86169  0.65838  0.62527  1.0000
  O   O7        1.0  0.91765  0.90692  0.9235000000000001  1.0000
  O   O8        1.0  0.58238  0.89982  0.94548  1.0000
  O   O9        1.0  0.07203  0.75583  0.07345  1.0000
  O   O10       1.0  0.37461  0.83951  0.12596  1.0000
  O   O11       1.0  0.41627999999999993  0.5934699999999999  0.42192  1.0000
  O   O12       1.0  0.08105999999999995  0.59991  0.44454  1.0000
  O   O13       1.0  0.44797  0.26732  0.4252000000000001  1.0000
  O   O14       1.0  0.13831  0.34162  0.37473000000000006  1.0000
  O   O15       1.0  0.08235  0.09308  0.0765  1.0000
  O   O16       1.0  0.41762  0.10018  0.05453  1.0000
