data_image0
_chemical_formula_structural       La2H18C24O12
_chemical_formula_sum              "La2 H18 C24 O12"
_cell_length_a       8.17473
_cell_length_b       11.326959999999998
_cell_length_c       11.1192
_cell_angle_alpha    66.0365
_cell_angle_beta     77.90037
_cell_angle_gamma    75.52098000000001

_space_group_name_H-M_alt    "P 1"
_space_group_IT_number       1

loop_
  _space_group_symop_operation_xyz
  'x, y, z'

loop_
  _atom_site_type_symbol
  _atom_site_label
  _atom_site_symmetry_multiplicity
  _atom_site_fract_x
  _atom_site_fract_y
  _atom_site_fract_z
  _atom_site_occupancy
  La  La1       1.0  0.7399500000000004  0.5559399999999999  0.96659  1.0000
  La  La2       1.0  0.26006  0.44406  0.03341  1.0000
  H   H1        1.0  0.74961  0.54807  0.48286  1.0000
  H   H2        1.0  0.3659100000000001  0.8812999999999998  0.49853000000000003  1.0000
  H   H3        1.0  0.76632  0.92874  0.17262  1.0000
  H   H4        1.0  0.01448000000000003  0.5952299999999999  0.31021  1.0000
  H   H5        1.0  0.002279999999999998  0.74744  0.17651  1.0000
  H   H6        1.0  0.32946999999999993  0.66798  0.65291  1.0000
  H   H7        1.0  0.45128999999999997  0.52601  0.62746  1.0000
  H   H8        1.0  0.42957999999999996  0.10417999999999998  0.35117  1.0000
  H   H9        1.0  0.58526  0.12289999999999998  0.21257000000000004  1.0000
  H   H10       1.0  0.25039999999999996  0.4519199999999999  0.51714  1.0000
  H   H11       1.0  0.6340900000000002  0.11868999999999995  0.5014700000000001  1.0000
  H   H12       1.0  0.23367999999999997  0.07125000000000002  0.82737  1.0000
  H   H13       1.0  0.98552  0.40476  0.68979  1.0000
  H   H14       1.0  0.9977200000000002  0.25256  0.82349  1.0000
  H   H15       1.0  0.67053  0.33202  0.34709  1.0000
  H   H16       1.0  0.5487200000000001  0.47398999999999986  0.37253000000000003  1.0000
  H   H17       1.0  0.5704200000000001  0.8958099999999998  0.64883  1.0000
  H   H18       1.0  0.41474  0.8770999999999998  0.78742  1.0000
  C   C1        1.0  0.7759900000000001  0.7326499999999999  0.32083  1.0000
  C   C2        1.0  0.6967400000000002  0.6525300000000002  0.44014  1.0000
  C   C3        1.0  0.5481900000000001  0.7051099999999998  0.5045  1.0000
  C   C4        1.0  0.48155000000000014  0.83958  0.44921  1.0000
  C   C5        1.0  0.56021  0.92171  0.33072  1.0000
  C   C6        1.0  0.7069500000000004  0.8667599999999998  0.26696000000000003  1.0000
  C   C7        1.0  0.92584  0.67379  0.24508  1.0000
  C   C8        1.0  0.8712800000000002  0.6146399999999999  0.16343  1.0000
  C   C9        1.0  0.46022999999999986  0.61946  0.6326100000000001  1.0000
  C   C10       1.0  0.55183  0.5801200000000001  0.75198  1.0000
  C   C11       1.0  0.48582  0.06554999999999997  0.27232000000000006  1.0000
  C   C12       1.0  0.34659000000000006  0.10021999999999998  0.18355000000000002  1.0000
  C   C13       1.0  0.2240099999999999  0.26733999999999997  0.6791600000000001  1.0000
  C   C14       1.0  0.30326000000000014  0.3474599999999999  0.5598500000000001  1.0000
  C   C15       1.0  0.45180999999999993  0.2948899999999999  0.4955  1.0000
  C   C16       1.0  0.51845  0.16041999999999995  0.55078  1.0000
  C   C17       1.0  0.43978999999999996  0.07829000000000003  0.66928  1.0000
  C   C18       1.0  0.29305000000000003  0.13324  0.73303  1.0000
  C   C19       1.0  0.07416000000000003  0.32620999999999983  0.7549200000000001  1.0000
  C   C20       1.0  0.12873000000000004  0.38536  0.83656  1.0000
  C   C21       1.0  0.53977  0.38053  0.36738  1.0000
  C   C22       1.0  0.44816999999999996  0.41988  0.24802000000000002  1.0000
  C   C23       1.0  0.5141900000000004  0.9344399999999999  0.7276700000000002  1.0000
  C   C24       1.0  0.6534199999999999  0.89978  0.81644  1.0000
  O   O1        1.0  0.71857  0.60639  0.17136  1.0000
  O   O2        1.0  0.9864400000000001  0.57223  0.08143  1.0000
  O   O3        1.0  0.46193000000000006  0.57824  0.86539  1.0000
  O   O4        1.0  0.7117100000000001  0.54947  0.74459  1.0000
  O   O5        1.0  0.28701  0.22992  0.13562  1.0000
  O   O6        1.0  0.29477000000000003  0.020309999999999988  0.16035000000000002  1.0000
  O   O7        1.0  0.28142999999999996  0.3936099999999999  0.8286300000000001  1.0000
  O   O8        1.0  0.01356000000000003  0.42775999999999975  0.91856  1.0000
  O   O9        1.0  0.53807  0.42175999999999997  0.13461  1.0000
  O   O10       1.0  0.28829000000000005  0.45052999999999993  0.2554  1.0000
  O   O11       1.0  0.7129900000000001  0.7700700000000003  0.86438  1.0000
  O   O12       1.0  0.7052300000000004  0.97968  0.83964  1.0000
