data_image0
_chemical_formula_structural       Eu2H8C8O16
_chemical_formula_sum              "Eu2 H8 C8 O16"
_cell_length_a       6.83699
_cell_length_b       7.32826
_cell_length_c       11.66005
_cell_angle_alpha    92.135
_cell_angle_beta     111.09136
_cell_angle_gamma    86.84868

_symmetry_space_group_name_H-M    'P 1'
_symmetry_Int_Tables_number       1

loop_
  _symmetry_equiv_pos_as_xyz
  'x,y,z'

loop_
  _atom_site_type_symbol
  _atom_site_label
  _atom_site_symmetry_multiplicity
  _atom_site_fract_x
  _atom_site_fract_y
  _atom_site_fract_z
  _atom_site_occupancy
  Eu  Eu1       1.0  0.89249  0.76057  0.74692  1.0000
  Eu  Eu2       1.0  0.11085000000000006  0.24285  0.28626  1.0000
  H   H1        1.0  0.5171  0.11705  0.53713  1.0000
  H   H2        1.0  0.50948  0.59243  0.4685  1.0000
  H   H3        1.0  0.93884  0.40671  0.49549  1.0000
  H   H4        1.0  0.010829999999999935  0.84228  0.51338  1.0000
  H   H5        1.0  0.3445600000000001  0.77202  0.6222  1.0000
  H   H6        1.0  0.6210400000000003  0.21342  0.30691  1.0000
  H   H7        1.0  0.27331000000000005  0.39095  0.09929999999999999  1.0000
  H   H8        1.0  0.7619200000000004  0.01998  0.98694  1.0000
  C   C1        1.0  0.50552  0.98579  0.4828  1.0000
  C   C2        1.0  0.53748  0.47336000000000006  0.5303  1.0000
  C   C3        1.0  0.9787700000000003  0.53942  0.46137000000000006  1.0000
  C   C4        1.0  0.0013999999999999946  0.01095  0.53417  1.0000
  C   C5        1.0  0.3881400000000001  0.75945  0.72265  1.0000
  C   C6        1.0  0.57485  0.28758  0.22191  1.0000
  C   C7        1.0  0.06906000000000002  0.46119  0.01803  1.0000
  C   C8        1.0  0.9336100000000003  0.00194  0.00926  1.0000
  O   O1        1.0  0.5688400000000002  0.81259  0.7889300000000001  1.0000
  O   O2        1.0  0.3941800000000001  0.99365  0.37023  1.0000
  O   O3        1.0  0.60715  0.84889  0.54602  1.0000
  O   O4        1.0  0.07320999999999996  0.52147  0.9207999999999998  1.0000
  O   O5        1.0  0.3713300000000001  0.34672000000000003  0.19057999999999997  1.0000
  O   O6        1.0  0.68031  0.48304  0.6341  1.0000
  O   O7        1.0  0.41124000000000016  0.34358  0.47896999999999995  1.0000
  O   O8        1.0  0.05877000000000002  0.02781  0.1194  1.0000
  O   O9        1.0  0.26282  0.69116  0.7645299999999999  1.0000
  O   O10       1.0  0.029379999999999996  0.55254  0.36912  1.0000
  O   O11       1.0  0.9587300000000002  0.6748700000000001  0.5323  1.0000
  O   O12       1.0  0.9899600000000001  0.95035  0.9199399999999999  1.0000
  O   O13       1.0  0.7042100000000002  0.30511  0.17189  1.0000
  O   O14       1.0  0.014019999999999972  0.04032  0.64233  1.0000
  O   O15       1.0  0.9631999999999998  0.10509000000000002  0.43703  1.0000
  O   O16       1.0  0.9656000000000002  0.44167  0.0825  1.0000
