data_image0
_chemical_formula_structural       Zn8H12C36Br4O28
_chemical_formula_sum              "Zn8 H12 C36 Br4 O28"
_cell_length_a       10.53469
_cell_length_b       9.88191
_cell_length_c       18.3244
_cell_angle_alpha    90.5143
_cell_angle_beta     92.94712000000001
_cell_angle_gamma    90.39763999999998

_space_group_name_H-M_alt    "P 1"
_space_group_IT_number       1

loop_
  _space_group_symop_operation_xyz
  'x, y, z'

loop_
  _atom_site_type_symbol
  _atom_site_label
  _atom_site_symmetry_multiplicity
  _atom_site_fract_x
  _atom_site_fract_y
  _atom_site_fract_z
  _atom_site_occupancy
  Zn  Zn1       1.0  0.12416999999999999  0.54615  0.46471  1.0000
  Zn  Zn2       1.0  0.9956899999999999  0.7215300000000001  0.59383  1.0000
  Zn  Zn3       1.0  0.37421  0.04433  0.03117  1.0000
  Zn  Zn4       1.0  0.50262  0.21189  0.90203  1.0000
  Zn  Zn5       1.0  0.8763  0.45413000000000003  0.53549  1.0000
  Zn  Zn6       1.0  0.0042699999999999995  0.27873  0.40638  1.0000
  Zn  Zn7       1.0  0.62532  0.9547100000000001  0.96869  1.0000
  Zn  Zn8       1.0  0.49703  0.78746  0.09727  1.0000
  H   H1        1.0  0.29606  0.7809500000000001  0.73841  1.0000
  H   H2        1.0  0.70477  0.7895300000000002  0.7505  1.0000
  H   H3        1.0  0.49844999999999995  0.6065400000000001  0.5632  1.0000
  H   H4        1.0  0.20113999999999999  0.2784700000000001  0.75982  1.0000
  H   H5        1.0  0.7910600000000001  0.2798400000000001  0.75136  1.0000
  H   H6        1.0  0.002619999999999992  0.11176  0.9378  1.0000
  H   H7        1.0  0.7043  0.21923000000000004  0.26187  1.0000
  H   H8        1.0  0.29534  0.21072000000000005  0.24933  1.0000
  H   H9        1.0  0.5014  0.39355000000000007  0.43674  1.0000
  H   H10       1.0  0.7986000000000001  0.72157  0.23994  1.0000
  H   H11       1.0  0.20864  0.72047  0.2485  1.0000
  H   H12       1.0  0.9969600000000001  0.88837  0.06192  1.0000
  C   C1        1.0  0.38484000000000007  0.69612  0.64681  1.0000
  C   C2        1.0  0.3868599999999999  0.7567300000000001  0.71643  1.0000
  C   C3        1.0  0.50196  0.78858  0.75503  1.0000
  C   C4        1.0  0.61612  0.75908  0.7222  1.0000
  C   C5        1.0  0.61476  0.69235  0.65355  1.0000
  C   C6        1.0  0.4990899999999999  0.65857  0.61597  1.0000
  C   C7        1.0  0.25989  0.6820300000000002  0.60404  1.0000
  C   C8        1.0  0.50161  0.86137  0.82833  1.0000
  C   C9        1.0  0.73897  0.65858  0.62044  1.0000
  C   C10       1.0  0.11320999999999999  0.19877000000000003  0.85373  1.0000
  C   C11       1.0  0.11129  0.2541800000000001  0.7832  1.0000
  C   C12       1.0  0.9951  0.28046  0.74506  1.0000
  C   C13       1.0  0.88123  0.25225  0.7785  1.0000
  C   C14       1.0  0.8835200000000001  0.18903000000000006  0.8472  1.0000
  C   C15       1.0  0.99967  0.1599  0.8843799999999999  1.0000
  C   C16       1.0  0.23700999999999997  0.18800000000000006  0.8980400000000001  1.0000
  C   C17       1.0  0.9972899999999999  0.34385  0.66962  1.0000
  C   C18       1.0  0.7609999999999999  0.15639000000000003  0.8808  1.0000
  C   C19       1.0  0.61533  0.30429  0.35317  1.0000
  C   C20       1.0  0.61334  0.2434  0.28366  1.0000
  C   C21       1.0  0.49832  0.21099  0.24503  1.0000
  C   C22       1.0  0.38412999999999997  0.24116  0.27768  1.0000
  C   C23       1.0  0.38526999999999995  0.30782  0.34628  1.0000
  C   C24       1.0  0.50099  0.3417800000000001  0.38399  1.0000
  C   C25       1.0  0.74008  0.31815000000000004  0.39609  1.0000
  C   C26       1.0  0.49838999999999994  0.1369  0.17211  1.0000
  C   C27       1.0  0.2612  0.34123  0.37948  1.0000
  C   C28       1.0  0.8860899999999999  0.80131  0.1463  1.0000
  C   C29       1.0  0.88865  0.7459  0.21675  1.0000
  C   C30       1.0  0.00489  0.71946  0.25496  1.0000
  C   C31       1.0  0.11845  0.7479800000000002  0.22123999999999996  1.0000
  C   C32       1.0  0.11593  0.81098  0.15245  1.0000
  C   C33       1.0  0.99963  0.8403  0.11534000000000001  1.0000
  C   C34       1.0  0.76192  0.81166  0.10247  1.0000
  C   C35       1.0  0.0028900000000000006  0.65607  0.32955  1.0000
  C   C36       1.0  0.23857  0.84363  0.11873999999999998  1.0000
  Br  Br1       1.0  0.97633  0.87571  0.48573  1.0000
  Br  Br2       1.0  0.52487  0.3766  0.01148  1.0000
  Br  Br3       1.0  0.024330000000000008  0.12409  0.51428  1.0000
  Br  Br4       1.0  0.4738  0.6233  0.9882399999999999  1.0000
  O   O1        1.0  0.25656  0.62597  0.54172  1.0000
  O   O2        1.0  0.16417  0.73479  0.63564  1.0000
  O   O3        1.0  0.39908999999999994  0.9128100000000002  0.84684  1.0000
  O   O4        1.0  0.60829  0.86973  0.86659  1.0000
  O   O5        1.0  0.8375300000000001  0.72574  0.6439  1.0000
  O   O6        1.0  0.73568  0.5663000000000001  0.57192  1.0000
  O   O7        1.0  0.96904  0.62419  0.49984  1.0000
  O   O8        1.0  0.23858  0.12362000000000002  0.9574699999999999  1.0000
  O   O9        1.0  0.33135  0.25031  0.87098  1.0000
  O   O10       1.0  0.10332  0.37711  0.64763  1.0000
  O   O11       1.0  0.8873599999999999  0.36148  0.63439  1.0000
  O   O12       1.0  0.66006  0.21476000000000003  0.85335  1.0000
  O   O13       1.0  0.76685  0.07373000000000002  0.93337  1.0000
  O   O14       1.0  0.52724  0.12607000000000002  0.00026  1.0000
  O   O15       1.0  0.74349  0.37434  0.45813  1.0000
  O   O16       1.0  0.8358999999999999  0.26438  0.36447  1.0000
  O   O17       1.0  0.601  0.08669000000000003  0.15207  1.0000
  O   O18       1.0  0.39128  0.12479000000000001  0.13471  1.0000
  O   O19       1.0  0.16249  0.2745000000000001  0.356  1.0000
  O   O20       1.0  0.26487  0.4334700000000001  0.42841  1.0000
  O   O21       1.0  0.031630000000000005  0.37608000000000014  0.50038  1.0000
  O   O22       1.0  0.7599  0.87654  0.04348  1.0000
  O   O23       1.0  0.66802  0.7484  0.12977  1.0000
  O   O24       1.0  0.897  0.62249  0.35256  1.0000
  O   O25       1.0  0.11255999999999998  0.63651  0.36536  1.0000
  O   O26       1.0  0.3397  0.78607  0.14627  1.0000
  O   O27       1.0  0.23317999999999997  0.92568  0.06595  1.0000
  O   O28       1.0  0.47098  0.8724900000000001  0.99966  1.0000
