data_image0
_chemical_formula_structural       Co3H12C20N16Cl6
_chemical_formula_sum              "Co3 H12 C20 N16 Cl6"
_cell_length_a       6.75273
_cell_length_b       13.620799999999997
_cell_length_c       13.61501
_cell_angle_alpha    98.27093
_cell_angle_beta     97.75256
_cell_angle_gamma    97.83228

_symmetry_space_group_name_H-M    'P 1'
_symmetry_Int_Tables_number       1

loop_
  _symmetry_equiv_pos_as_xyz
  'x,y,z'

loop_
  _atom_site_type_symbol
  _atom_site_label
  _atom_site_symmetry_multiplicity
  _atom_site_fract_x
  _atom_site_fract_y
  _atom_site_fract_z
  _atom_site_occupancy
  Co  Co1       1.0  0.00101  0.0018100000000000004  0.00179  1.0000
  Co  Co2       1.0  0.4990799999999999  0.99889  0.50094  1.0000
  Co  Co3       1.0  0.50078  0.50133  0.00058  1.0000
  H   H1        1.0  0.10000999999999999  0.010440000000000008  0.7809  1.0000
  H   H2        1.0  0.56383  0.009189999999999969  0.89927  1.0000
  H   H3        1.0  0.36791  0.9995400000000001  0.72536  1.0000
  H   H4        1.0  0.9010299999999998  0.22080000000000005  0.9941299999999998  1.0000
  H   H5        1.0  0.43652  0.10284999999999997  0.99236  1.0000
  H   H6        1.0  0.6310799999999999  0.27665  0.9987499999999999  1.0000
  H   H7        1.0  0.9016599999999999  0.99502  0.2208  1.0000
  H   H8        1.0  0.43659  0.99169  0.10248  1.0000
  H   H9        1.0  0.6302099999999998  0.99711  0.27609  1.0000
  H   H10       1.0  0.10020999999999997  0.78165  0.00893  1.0000
  H   H11       1.0  0.56381  0.8989700000000003  0.00895  1.0000
  H   H12       1.0  0.3695300000000001  0.7249500000000001  0.0016099999999999997  1.0000
  C   C1        1.0  0.8287  0.004420000000000013  0.67359  1.0000
  C   C2        1.0  0.9367899999999999  0.00868  0.76926  1.0000
  C   C3        1.0  0.6401099999999997  0.007250000000000008  0.83426  1.0000
  C   C4        1.0  0.53196  0.002459999999999993  0.7387  1.0000
  C   C5        1.0  0.9227  0.0022599999999999973  0.5827  1.0000
  C   C6        1.0  0.17090999999999995  0.32811  0.996  1.0000
  C   C7        1.0  0.06351999999999997  0.23260000000000003  0.99357  1.0000
  C   C8        1.0  0.36002999999999985  0.16773999999999994  0.9935999999999998  1.0000
  C   C9        1.0  0.46738  0.26317999999999997  0.99674  1.0000
  C   C10       1.0  0.07688  0.41891  0.99775  1.0000
  C   C11       1.0  0.17031  0.99474  0.32773  1.0000
  C   C12       1.0  0.06359999999999996  0.99316  0.23230999999999993  1.0000
  C   C13       1.0  0.35983  0.99256  0.16727  1.0000
  C   C14       1.0  0.4666  0.9951800000000002  0.26269  1.0000
  C   C15       1.0  0.07591999999999992  0.99653  0.4184799999999999  1.0000
  C   C16       1.0  0.8301999999999999  0.6739800000000002  0.00535  1.0000
  C   C17       1.0  0.9374899999999997  0.7697  0.00872  1.0000
  C   C18       1.0  0.6406099999999999  0.8342000000000003  0.00788  1.0000
  C   C19       1.0  0.5333599999999997  0.73861  0.0041  1.0000
  C   C20       1.0  0.9242600000000001  0.58319  0.00326  1.0000
  N   N1        1.0  0.6255999999999999  0.0012100000000000036  0.65842  1.0000
  N   N2        1.0  0.8426299999999998  0.009410000000000009  0.85032  1.0000
  N   N3        1.0  0.7946999999999997  0.9987800000000001  0.49591  1.0000
  N   N4        1.0  0.12196999999999997  0.002509999999999992  0.59021  1.0000
  N   N5        1.0  0.3735899999999999  0.34334  0.99785  1.0000
  N   N6        1.0  0.15792000000000006  0.15168000000000004  0.99287  1.0000
  N   N7        1.0  0.20511999999999997  0.50564  0.00058  1.0000
  N   N8        1.0  0.8776399999999998  0.4115300000000001  0.99741  1.0000
  N   N9        1.0  0.37285  0.99609  0.34288  1.0000
  N   N10       1.0  0.15789000000000006  0.9924  0.15134  1.0000
  N   N11       1.0  0.20389999999999997  0.99956  0.50526  1.0000
  N   N12       1.0  0.8765299999999998  0.99591  0.41094  1.0000
  N   N13       1.0  0.6273299999999998  0.65853  0.00294  1.0000
  N   N14       1.0  0.84294  0.8505500000000001  0.00947  1.0000
  N   N15       1.0  0.79594  0.49645  0.00015  1.0000
  N   N16       1.0  0.12339999999999997  0.59055  0.00347  1.0000
  Cl  Cl1       1.0  0.5559899999999998  0.16484  0.52612  1.0000
  Cl  Cl2       1.0  0.44846999999999987  0.47526  0.8346199999999999  1.0000
  Cl  Cl3       1.0  0.44694  0.8331500000000001  0.47474  1.0000
  Cl  Cl4       1.0  0.55258  0.52679  0.16635  1.0000
  Cl  Cl5       1.0  0.7692099999999997  0.08313  0.08313999999999999  1.0000
  Cl  Cl6       1.0  0.2297000000000001  0.9191800000000002  0.91837  1.0000
