data_image0
_chemical_formula_structural       Zn4H24C44O18
_chemical_formula_sum              "Zn4 H24 C44 O18"
_cell_length_a       10.35935
_cell_length_b       15.59368
_cell_length_c       16.90218
_cell_angle_alpha    90.0
_cell_angle_beta     90.0
_cell_angle_gamma    106.71056

_space_group_name_H-M_alt    "P 1"
_space_group_IT_number       1

loop_
  _space_group_symop_operation_xyz
  'x, y, z'

loop_
  _atom_site_type_symbol
  _atom_site_label
  _atom_site_symmetry_multiplicity
  _atom_site_fract_x
  _atom_site_fract_y
  _atom_site_fract_z
  _atom_site_occupancy
  Zn  Zn1       1.0  0.48228  0.85033  0.61004  1.0000
  Zn  Zn2       1.0  0.7147400000000002  0.98447  0.69174  1.0000
  Zn  Zn3       1.0  0.51771  0.14966  0.11004  1.0000
  Zn  Zn4       1.0  0.28525  0.01552  0.19174  1.0000
  H   H1        1.0  0.8855100000000001  0.1393  0.69721  1.0000
  H   H2        1.0  0.97243  0.07372  0.70731  1.0000
  H   H3        1.0  0.48868  0.01651  0.41481  1.0000
  H   H4        1.0  0.6998100000000002  0.66926  0.54307  1.0000
  H   H5        1.0  0.03578000000000001  0.88548  0.62226  1.0000
  H   H6        1.0  0.5854399999999998  0.41052  0.40366  1.0000
  H   H7        1.0  0.10510000000000004  0.64525  0.5341  1.0000
  H   H8        1.0  0.68128  0.57017  0.43690999999999997  1.0000
  H   H9        1.0  0.6162299999999999  0.28885  0.33218  1.0000
  H   H10       1.0  0.71121  0.22522  0.5696599999999999  1.0000
  H   H11       1.0  0.89368  0.34632  0.5423  1.0000
  H   H12       1.0  0.98675  0.5055  0.57773  1.0000
  H   H13       1.0  0.11449  0.8607  0.19721  1.0000
  H   H14       1.0  0.027570000000000067  0.92628  0.20731  1.0000
  H   H15       1.0  0.5113200000000001  0.98349  0.91481  1.0000
  H   H16       1.0  0.30018  0.33073  0.04307  1.0000
  H   H17       1.0  0.9642200000000002  0.11451  0.12226000000000001  1.0000
  H   H18       1.0  0.41456  0.5894800000000001  0.90367  1.0000
  H   H19       1.0  0.8949000000000001  0.35475  0.0341  1.0000
  H   H20       1.0  0.31872  0.42983  0.93691  1.0000
  H   H21       1.0  0.3837600000000001  0.7111500000000002  0.8321799999999998  1.0000
  H   H22       1.0  0.28878  0.77477  0.06965  1.0000
  H   H23       1.0  0.10631000000000006  0.65367  0.0423  1.0000
  H   H24       1.0  0.013250000000000017  0.4945000000000001  0.07773  1.0000
  C   C1        1.0  0.60454  0.04635  0.55984  1.0000
  C   C2        1.0  0.60357  0.11424  0.49779  1.0000
  C   C3        1.0  0.73163  0.36619  0.47084  1.0000
  C   C4        1.0  0.76224  0.83592  0.60291  1.0000
  C   C5        1.0  0.54017  0.08679  0.42519  1.0000
  C   C6        1.0  0.8079200000000001  0.69677  0.55158  1.0000
  C   C7        1.0  0.8577300000000002  0.7836500000000002  0.5823599999999999  1.0000
  C   C8        1.0  0.89491  0.64451  0.53557  1.0000
  C   C9        1.0  0.99583  0.8191600000000001  0.5969  1.0000
  C   C10       1.0  0.08432  0.76905  0.57882  1.0000
  C   C11       1.0  0.67461  0.43126  0.4409999999999999  1.0000
  C   C12       1.0  0.23164  0.80807  0.59504  1.0000
  C   C13       1.0  0.033929999999999995  0.68255  0.54805  1.0000
  C   C14       1.0  0.6700800000000002  0.27009  0.4536799999999999  1.0000
  C   C15       1.0  0.72799  0.52139  0.46052  1.0000
  C   C16       1.0  0.61143  0.24116  0.37981999999999994  1.0000
  C   C17       1.0  0.66693  0.20518  0.51181  1.0000
  C   C18       1.0  0.84107  0.55005  0.51028  1.0000
  C   C19       1.0  0.48168  0.12165  0.28769  1.0000
  C   C20       1.0  0.8461000000000001  0.39503  0.5194799999999999  1.0000
  C   C21       1.0  0.54592  0.15048  0.36592  1.0000
  C   C22       1.0  0.8998  0.4851  0.53867  1.0000
  C   C23       1.0  0.39546000000000003  0.95365  0.05983999999999999  1.0000
  C   C24       1.0  0.39643  0.88576  0.99779  1.0000
  C   C25       1.0  0.26837  0.63381  0.9708400000000001  1.0000
  C   C26       1.0  0.23776000000000003  0.16408  0.10290999999999997  1.0000
  C   C27       1.0  0.4598200000000001  0.9132100000000002  0.92519  1.0000
  C   C28       1.0  0.19207  0.30322  0.05158  1.0000
  C   C29       1.0  0.14227  0.21635000000000004  0.08235999999999999  1.0000
  C   C30       1.0  0.10509000000000004  0.3554900000000001  0.03556999999999999  1.0000
  C   C31       1.0  0.004160000000000005  0.18084  0.0969  1.0000
  C   C32       1.0  0.9156800000000004  0.23094  0.07882  1.0000
  C   C33       1.0  0.32538000000000006  0.56873  0.941  1.0000
  C   C34       1.0  0.76836  0.19193000000000005  0.09504  1.0000
  C   C35       1.0  0.96606  0.31744  0.04805  1.0000
  C   C36       1.0  0.3299200000000001  0.7299000000000002  0.9536799999999999  1.0000
  C   C37       1.0  0.27201  0.47861  0.9605199999999999  1.0000
  C   C38       1.0  0.3885700000000001  0.75884  0.87982  1.0000
  C   C39       1.0  0.33307  0.79481  0.011809999999999998  1.0000
  C   C40       1.0  0.15892  0.44995  0.01028  1.0000
  C   C41       1.0  0.5183200000000001  0.87835  0.78769  1.0000
  C   C42       1.0  0.15389  0.60497  0.01947  1.0000
  C   C43       1.0  0.45407  0.84952  0.86593  1.0000
  C   C44       1.0  0.10019999999999996  0.51489  0.038669999999999996  1.0000
  O   O1        1.0  0.64087  0.80557  0.58043  1.0000
  O   O2        1.0  0.31358  0.76586  0.56745  1.0000
  O   O3        1.0  0.6755  0.07451  0.62239  1.0000
  O   O4        1.0  0.53854  0.96557  0.54712  1.0000
  O   O5        1.0  0.5131  0.17457  0.22934  1.0000
  O   O6        1.0  0.81166  0.90879  0.64297  1.0000
  O   O7        1.0  0.27318999999999993  0.87922  0.63454  1.0000
  O   O8        1.0  0.39475  0.04345  0.28558999999999996  1.0000
  O   O9        1.0  0.89151  0.08675  0.72663  1.0000
  O   O10       1.0  0.35913000000000006  0.19442  0.08043  1.0000
  O   O11       1.0  0.6864200000000001  0.23414  0.06745  1.0000
  O   O12       1.0  0.32450000000000007  0.92549  0.12238999999999998  1.0000
  O   O13       1.0  0.4614500000000001  0.03443  0.04712  1.0000
  O   O14       1.0  0.4869  0.82543  0.72934  1.0000
  O   O15       1.0  0.18833  0.09121  0.14297  1.0000
  O   O16       1.0  0.7268  0.12077  0.13454  1.0000
  O   O17       1.0  0.6052499999999998  0.95654  0.78559  1.0000
  O   O18       1.0  0.10849000000000007  0.91325  0.22663  1.0000
