data_image0
_chemical_formula_structural       Ni3H8C20O18
_chemical_formula_sum              "Ni3 H8 C20 O18"
_cell_length_a       9.21434
_cell_length_b       9.59043
_cell_length_c       9.58938
_cell_angle_alpha    72.19664
_cell_angle_beta     73.02226
_cell_angle_gamma    73.07366

_symmetry_space_group_name_H-M    'P 1'
_symmetry_Int_Tables_number       1

loop_
  _symmetry_equiv_pos_as_xyz
  'x,y,z'

loop_
  _atom_site_type_symbol
  _atom_site_label
  _atom_site_symmetry_multiplicity
  _atom_site_fract_x
  _atom_site_fract_y
  _atom_site_fract_z
  _atom_site_occupancy
  Ni  Ni1       1.0  0.019169999999999996  0.21743999999999997  0.21278000000000005  1.0000
  Ni  Ni2       1.0  0.97737  0.7875900000000003  0.78488  1.0000
  Ni  Ni3       1.0  0.9973499999999996  0.0032500000000000046  0.99786  1.0000
  H   H1        1.0  0.20407999999999998  0.14955000000000002  0.99547  1.0000
  H   H2        1.0  0.5690999999999998  0.9954  0.23058  1.0000
  H   H3        1.0  0.7906699999999999  0.006019999999999988  0.85217  1.0000
  H   H4        1.0  0.42778999999999995  0.77082  0.006590000000000002  1.0000
  H   H5        1.0  0.7919499999999999  0.8543800000000003  0.00372  1.0000
  H   H6        1.0  0.42913999999999985  0.00601000000000001  0.76767  1.0000
  H   H7        1.0  0.20548  0.9970200000000001  0.14581  1.0000
  H   H8        1.0  0.56662  0.23369999999999994  0.9967900000000001  1.0000
  C   C1        1.0  0.5383300000000001  0.9977199999999999  0.3483700000000001  1.0000
  C   C2        1.0  0.65277  0.000419999999999973  0.4161100000000001  1.0000
  C   C3        1.0  0.6133200000000001  0.0024299999999999656  0.5686000000000001  1.0000
  C   C4        1.0  0.80755  0.02029  0.31343  1.0000
  C   C5        1.0  0.72796  0.9873100000000001  0.65884  1.0000
  C   C6        1.0  0.45857999999999993  0.6530700000000002  0.00433  1.0000
  C   C7        1.0  0.34413  0.58583  0.0007700000000000001  1.0000
  C   C8        1.0  0.3828199999999999  0.43329  0.9991800000000001  1.0000
  C   C9        1.0  0.19011999999999996  0.6890500000000002  0.97974  1.0000
  C   C10       1.0  0.267  0.34462  0.013150000000000004  1.0000
  C   C11       1.0  0.45980999999999994  0.004030000000000011  0.64979  1.0000
  C   C12       1.0  0.3453899999999999  0.0018199999999999434  0.5819000000000002  1.0000
  C   C13       1.0  0.3846699999999999  0.99942  0.4294600000000001  1.0000
  C   C14       1.0  0.19034999999999996  0.98333  0.68436  1.0000
  C   C15       1.0  0.26973  0.014119999999999995  0.33924  1.0000
  C   C16       1.0  0.53583  0.35152  0.99896  1.0000
  C   C17       1.0  0.6503300000000001  0.41909  0.0018500000000000003  1.0000
  C   C18       1.0  0.61191  0.57162  0.0031  1.0000
  C   C19       1.0  0.8048999999999998  0.31659  0.02069  1.0000
  C   C20       1.0  0.7278799999999997  0.6610600000000002  0.9869500000000001  1.0000
  O   O1        1.0  0.8665099999999999  0.11253000000000002  0.34233  1.0000
  O   O2        1.0  0.8570299999999998  0.9560700000000001  0.20726  1.0000
  O   O3        1.0  0.8470299999999996  0.8761900000000001  0.64466  1.0000
  O   O4        1.0  0.69451  0.07005999999999998  0.7484  1.0000
  O   O5        1.0  0.13118999999999995  0.65905  0.8882200000000002  1.0000
  O   O6        1.0  0.14132999999999998  0.7965000000000001  0.04228  1.0000
  O   O7        1.0  0.14854999999999993  0.35853  0.12522000000000003  1.0000
  O   O8        1.0  0.29823  0.2568900000000001  0.92911  1.0000
  O   O9        1.0  0.13210000000000005  0.89039  0.65558  1.0000
  O   O10       1.0  0.14049999999999996  0.04875999999999997  0.7898000000000001  1.0000
  O   O11       1.0  0.15002999999999994  0.12493000000000001  0.35373  1.0000
  O   O12       1.0  0.30364  0.93107  0.24991  1.0000
  O   O13       1.0  0.86597  0.3471  0.11035000000000003  1.0000
  O   O14       1.0  0.85227  0.20934000000000003  0.95794  1.0000
  O   O15       1.0  0.84601  0.6469400000000001  0.8748200000000003  1.0000
  O   O16       1.0  0.69599  0.7498800000000001  0.07018  1.0000
  O   O17       1.0  0.13322  0.07711  0.07492  1.0000
  O   O18       1.0  0.86315  0.9267999999999998  0.92383  1.0000
