data_image0
_chemical_formula_structural       Ag6H18C24O24
_chemical_formula_sum              "Ag6 H18 C24 O24"
_cell_length_a       6.30725
_cell_length_b       9.26572
_cell_length_c       15.58096
_cell_angle_alpha    96.14408
_cell_angle_beta     94.09135
_cell_angle_gamma    96.56738000000001

_space_group_name_H-M_alt    "P 1"
_space_group_IT_number       1

loop_
  _space_group_symop_operation_xyz
  'x, y, z'

loop_
  _atom_site_type_symbol
  _atom_site_label
  _atom_site_symmetry_multiplicity
  _atom_site_fract_x
  _atom_site_fract_y
  _atom_site_fract_z
  _atom_site_occupancy
  Ag  Ag1       1.0  0.63489  0.11728999999999998  0.97657  1.0000
  Ag  Ag2       1.0  0.17552000000000004  0.5725000000000001  0.55531  1.0000
  Ag  Ag3       1.0  0.45182  0.5926600000000002  0.4100900000000001  1.0000
  Ag  Ag4       1.0  0.36510999999999993  0.8827100000000001  0.023440000000000006  1.0000
  Ag  Ag5       1.0  0.8244799999999998  0.42750000000000005  0.4447000000000001  1.0000
  Ag  Ag6       1.0  0.5481799999999999  0.40734  0.5899100000000003  1.0000
  H   H1        1.0  0.16006  0.5758  0.18795000000000006  1.0000
  H   H2        1.0  0.53292  0.11203000000000002  0.42548000000000014  1.0000
  H   H3        1.0  0.09129  0.11992  0.10313  1.0000
  H   H4        1.0  0.7546499999999999  0.0333  0.26316  1.0000
  H   H5        1.0  0.75829  0.77889  0.25563000000000013  1.0000
  H   H6        1.0  0.8480699999999998  0.92695  0.3877700000000001  1.0000
  H   H7        1.0  0.19308999999999998  0.00848000000000002  0.45939  1.0000
  H   H8        1.0  0.9864  0.15313000000000002  0.38174000000000013  1.0000
  H   H9        1.0  0.015540000000000009  0.21732  0.24099000000000007  1.0000
  H   H10       1.0  0.83995  0.4242000000000001  0.8120500000000003  1.0000
  H   H11       1.0  0.4670799999999999  0.8879700000000001  0.57452  1.0000
  H   H12       1.0  0.9087199999999995  0.88008  0.89687  1.0000
  H   H13       1.0  0.24534999999999996  0.9667  0.73685  1.0000
  H   H14       1.0  0.24170999999999998  0.22111  0.74437  1.0000
  H   H15       1.0  0.15192999999999998  0.07305  0.61223  1.0000
  H   H16       1.0  0.8069099999999998  0.9915200000000001  0.54061  1.0000
  H   H17       1.0  0.013600000000000006  0.84687  0.61826  1.0000
  H   H18       1.0  0.9844699999999997  0.7826700000000001  0.7590200000000003  1.0000
  C   C1        1.0  0.8884399999999998  0.99231  0.22928  1.0000
  C   C2        1.0  0.9170799999999998  0.8444900000000002  0.26319  1.0000
  C   C3        1.0  0.983  0.8731  0.36216  1.0000
  C   C4        1.0  0.1810699999999999  0.98517  0.38835  1.0000
  C   C5        1.0  0.13544  0.12893  0.3527700000000001  1.0000
  C   C6        1.0  0.07742999999999998  0.1151  0.25443  1.0000
  C   C7        1.0  0.7877999999999998  0.97785  0.13621000000000005  1.0000
  C   C8        1.0  0.059009999999999986  0.75801  0.20831  1.0000
  C   C9        1.0  0.9797499999999998  0.73852  0.41060000000000013  1.0000
  C   C10       1.0  0.39318999999999993  0.9246100000000002  0.3716  1.0000
  C   C11       1.0  0.2903299999999999  0.26585  0.3846100000000001  1.0000
  C   C12       1.0  0.27762999999999993  0.11259000000000001  0.20521000000000006  1.0000
  C   C13       1.0  0.11156  0.0076900000000000345  0.7707200000000002  1.0000
  C   C14       1.0  0.08292  0.15551000000000006  0.7368100000000002  1.0000
  C   C15       1.0  0.01700000000000003  0.1269  0.63785  1.0000
  C   C16       1.0  0.81893  0.014830000000000038  0.6116600000000002  1.0000
  C   C17       1.0  0.8645599999999999  0.87107  0.64723  1.0000
  C   C18       1.0  0.9225699999999998  0.8849  0.74557  1.0000
  C   C19       1.0  0.21219999999999994  0.022150000000000013  0.8638  1.0000
  C   C20       1.0  0.9409899999999999  0.24199  0.79169  1.0000
  C   C21       1.0  0.020259999999999983  0.26148000000000005  0.5894  1.0000
  C   C22       1.0  0.60681  0.07538000000000009  0.6284100000000002  1.0000
  C   C23       1.0  0.70968  0.73415  0.6153900000000002  1.0000
  C   C24       1.0  0.7223699999999997  0.8874000000000001  0.7948  1.0000
  O   O1        1.0  0.8429799999999997  0.08338  0.09123  1.0000
  O   O2        1.0  0.64779  0.87006  0.1129  1.0000
  O   O3        1.0  0.1563  0.8059  0.14996  1.0000
  O   O4        1.0  0.05919  0.61797  0.22535000000000002  1.0000
  O   O5        1.0  0.10845000000000002  0.75051  0.4786300000000001  1.0000
  O   O6        1.0  0.84073  0.62893  0.38333  1.0000
  O   O7        1.0  0.40367  0.80007  0.3362  1.0000
  O   O8        1.0  0.57045  0.0078000000000000265  0.4054700000000001  1.0000
  O   O9        1.0  0.45244  0.2575  0.43856  1.0000
  O   O10       1.0  0.24103999999999998  0.3837  0.35896  1.0000
  O   O11       1.0  0.45639  0.11088000000000002  0.24179000000000006  1.0000
  O   O12       1.0  0.25154999999999994  0.12631  0.12057000000000002  1.0000
  O   O13       1.0  0.15702000000000002  0.91661  0.9087700000000002  1.0000
  O   O14       1.0  0.35221  0.12994  0.8871  1.0000
  O   O15       1.0  0.8436999999999998  0.19409  0.8500400000000002  1.0000
  O   O16       1.0  0.94081  0.38203000000000004  0.7746500000000002  1.0000
  O   O17       1.0  0.8915599999999999  0.24949000000000007  0.5213700000000002  1.0000
  O   O18       1.0  0.15927  0.37107  0.61667  1.0000
  O   O19       1.0  0.59634  0.19992  0.6638000000000002  1.0000
  O   O20       1.0  0.42956  0.9922  0.5945300000000002  1.0000
  O   O21       1.0  0.54756  0.7425000000000002  0.5614500000000002  1.0000
  O   O22       1.0  0.75896  0.6163  0.64104  1.0000
  O   O23       1.0  0.54361  0.88912  0.75822  1.0000
  O   O24       1.0  0.7484499999999997  0.8736900000000001  0.87943  1.0000
