data_image0
_chemical_formula_structural       Mn2Ga4P6H4C8O40
_chemical_formula_sum              "Mn2 Ga4 P6 H4 C8 O40"
_cell_length_a       9.72941
_cell_length_b       10.18449
_cell_length_c       12.49182
_cell_angle_alpha    88.46580000000002
_cell_angle_beta     67.83288
_cell_angle_gamma    61.100229999999996

_symmetry_space_group_name_H-M    'P 1'
_symmetry_Int_Tables_number       1

loop_
  _symmetry_equiv_pos_as_xyz
  'x,y,z'

loop_
  _atom_site_type_symbol
  _atom_site_label
  _atom_site_symmetry_multiplicity
  _atom_site_fract_x
  _atom_site_fract_y
  _atom_site_fract_z
  _atom_site_occupancy
  Mn  Mn1       1.0  0.73431  0.76716  0.40204  1.0000
  Mn  Mn2       1.0  0.26255000000000006  0.23457000000000006  0.5979300000000001  1.0000
  Ga  Ga1       1.0  0.8543100000000001  0.94153  0.1691  1.0000
  Ga  Ga2       1.0  0.9088399999999999  0.85122  0.66246  1.0000
  Ga  Ga3       1.0  0.14691999999999988  0.05819000000000008  0.8291600000000002  1.0000
  Ga  Ga4       1.0  0.09158  0.14844  0.3366  1.0000
  P   P1        1.0  0.9963399999999998  0.8347399999999999  0.88728  1.0000
  P   P2        1.0  0.89612  0.96559  0.4224300000000001  1.0000
  P   P3        1.0  0.46146  0.0414  0.32721000000000006  1.0000
  P   P4        1.0  0.005839999999999987  0.16512000000000002  0.11103  1.0000
  P   P5        1.0  0.10405000000000005  0.034749999999999996  0.57691  1.0000
  P   P6        1.0  0.53858  0.9598  0.6697300000000002  1.0000
  H   H1        1.0  0.63322  0.13627  0.54688  1.0000
  H   H2        1.0  0.05364000000000006  0.60315  0.89703  1.0000
  H   H3        1.0  0.36678999999999995  0.86473  0.45188  1.0000
  H   H4        1.0  0.9501800000000001  0.39622  0.10168000000000002  1.0000
  C   C1        1.0  0.01776999999999998  0.60551  0.12903000000000003  1.0000
  C   C2        1.0  0.18116999999999997  0.65869  0.11236  1.0000
  C   C3        1.0  0.013819999999999987  0.53493  0.6338000000000001  1.0000
  C   C4        1.0  0.17808999999999997  0.5359700000000001  0.6111200000000001  1.0000
  C   C5        1.0  0.98523  0.39359  0.87127  1.0000
  C   C6        1.0  0.82158  0.34197  0.8880200000000001  1.0000
  C   C7        1.0  0.9841900000000001  0.46613  0.3668700000000001  1.0000
  C   C8        1.0  0.8203199999999998  0.4646100000000001  0.38876  1.0000
  O   O1        1.0  0.87135  0.9376000000000001  0.010240000000000003  1.0000
  O   O2        1.0  0.13117999999999982  0.8802100000000002  0.8203000000000003  1.0000
  O   O3        1.0  0.8873999999999999  0.8385  0.8237  1.0000
  O   O4        1.0  0.10912999999999987  0.6626500000000001  0.89971  1.0000
  O   O5        1.0  0.04124999999999992  0.9852600000000001  0.33539  1.0000
  O   O6        1.0  0.9519600000000008  0.84368  0.49593  1.0000
  O   O7        1.0  0.8254100000000001  0.90587  0.34836000000000006  1.0000
  O   O8        1.0  0.74601  0.12829000000000004  0.49703000000000014  1.0000
  O   O9        1.0  0.6102899999999999  0.04629  0.22831  1.0000
  O   O10       1.0  0.34152999999999994  0.03043  0.28106  1.0000
  O   O11       1.0  0.36363  0.18082  0.42858  1.0000
  O   O12       1.0  0.5342499999999999  0.8896100000000002  0.38015  1.0000
  O   O13       1.0  0.8775000000000002  0.6587  0.6582400000000002  1.0000
  O   O14       1.0  0.17133000000000004  0.66133  0.6137  1.0000
  O   O15       1.0  0.11210999999999996  0.80048  0.12095000000000002  1.0000
  O   O16       1.0  0.8696  0.7238  0.17384  1.0000
  O   O17       1.0  0.3097000000000002  0.40251000000000003  0.5952500000000001  1.0000
  O   O18       1.0  0.030880000000000025  0.40087000000000006  0.62857  1.0000
  O   O19       1.0  0.07572999999999999  0.4703  0.10020000000000003  1.0000
  O   O20       1.0  0.3160000000000001  0.54736  0.09925  1.0000
  O   O21       1.0  0.13213999999999998  0.06356  0.98782  1.0000
  O   O22       1.0  0.87091  0.11916  0.17614  1.0000
  O   O23       1.0  0.11346999999999999  0.16112000000000004  0.1758  1.0000
  O   O24       1.0  0.8931  0.33794  0.09993  1.0000
  O   O25       1.0  0.9581900000000001  0.015060000000000011  0.66251  1.0000
  O   O26       1.0  0.048989999999999964  0.15623000000000004  0.5027300000000001  1.0000
  O   O27       1.0  0.17265999999999995  0.09541000000000002  0.65164  1.0000
  O   O28       1.0  0.25472000000000006  0.87207  0.50254  1.0000
  O   O29       1.0  0.39166999999999996  0.9518000000000001  0.76757  1.0000
  O   O30       1.0  0.6598599999999999  0.9685500000000001  0.7152  1.0000
  O   O31       1.0  0.6371899999999998  0.81879  0.5671600000000001  1.0000
  O   O32       1.0  0.4666400000000001  0.10988000000000002  0.6166200000000001  1.0000
  O   O33       1.0  0.12096000000000001  0.34265  0.3418  1.0000
  O   O34       1.0  0.8271399999999999  0.33936  0.38572  1.0000
  O   O35       1.0  0.8891000000000001  0.20015000000000002  0.87918  1.0000
  O   O36       1.0  0.13291999999999987  0.2750700000000001  0.8260100000000002  1.0000
  O   O37       1.0  0.6884500000000001  0.59827  0.40444  1.0000
  O   O38       1.0  0.96578  0.60082  0.37316  1.0000
  O   O39       1.0  0.9283  0.52862  0.90051  1.0000
  O   O40       1.0  0.68676  0.45385  0.9015900000000001  1.0000
