data_image0
_chemical_formula_structural       Nd2H6C18N6O12
_chemical_formula_sum              "Nd2 H6 C18 N6 O12"
_cell_length_a       4.14147
_cell_length_b       12.21642
_cell_length_c       14.66996
_cell_angle_alpha    66.32208
_cell_angle_beta     102.55551
_cell_angle_gamma    85.95321

_space_group_name_H-M_alt    "P 1"
_space_group_IT_number       1

loop_
  _space_group_symop_operation_xyz
  'x, y, z'

loop_
  _atom_site_type_symbol
  _atom_site_label
  _atom_site_symmetry_multiplicity
  _atom_site_fract_x
  _atom_site_fract_y
  _atom_site_fract_z
  _atom_site_occupancy
  Nd  Nd1       1.0  0.2491599999999997  0.64854  0.6969799999999998  1.0000
  Nd  Nd2       1.0  0.74027  0.3489499999999999  0.30512999999999996  1.0000
  H   H1        1.0  0.77809  0.93498  0.6518599999999998  1.0000
  H   H2        1.0  0.8172699999999997  0.4126600000000002  0.9169099999999998  1.0000
  H   H3        1.0  0.37415999999999994  0.64409  0.46566  1.0000
  H   H4        1.0  0.20846999999999988  0.06347000000000004  0.34914999999999996  1.0000
  H   H5        1.0  0.1752799999999999  0.58328  0.08448  1.0000
  H   H6        1.0  0.6219999999999997  0.35071000000000013  0.5389999999999999  1.0000
  C   C1        1.0  0.2372199999999998  0.9206  0.49936999999999987  1.0000
  C   C2        1.0  0.8825  0.96379  0.58541  1.0000
  C   C3        1.0  0.22096999999999983  0.58296  0.9402599999999998  1.0000
  C   C4        1.0  0.66941  0.4506999999999999  0.95376  1.0000
  C   C5        1.0  0.8973499999999996  0.46933  0.5887599999999998  1.0000
  C   C6        1.0  0.20961  0.5773699999999999  0.48373  1.0000
  C   C7        1.0  0.5247199999999999  0.8388900000000001  0.49897999999999987  1.0000
  C   C8        1.0  0.8979499999999999  0.66949  0.87732  1.0000
  C   C9        1.0  0.7447999999999998  0.44539000000000006  0.6765399999999999  1.0000
  C   C10       1.0  0.75199  0.07853999999999997  0.50187  1.0000
  C   C11       1.0  0.10575999999999991  0.03511000000000003  0.4158299999999999  1.0000
  C   C12       1.0  0.77258  0.41379  0.06116  1.0000
  C   C13       1.0  0.3239099999999999  0.5458699999999999  0.047529999999999996  1.0000
  C   C14       1.0  0.09624999999999996  0.5262399999999999  0.41476999999999997  1.0000
  C   C15       1.0  0.7851600000000001  0.41785999999999995  0.5200399999999998  1.0000
  C   C16       1.0  0.46325  0.16011999999999998  0.5014  1.0000
  C   C17       1.0  0.09639999999999999  0.32795  0.12422999999999997  1.0000
  C   C18       1.0  0.24515000000000006  0.5503799999999998  0.32636  1.0000
  N   N1        1.0  0.11931  0.8852899999999999  0.58374  1.0000
  N   N2        1.0  0.39628  0.53444  0.89427  1.0000
  N   N3        1.0  0.10082999999999984  0.5511800000000001  0.5687999999999999  1.0000
  N   N4        1.0  0.8691699999999997  0.11370000000000002  0.4174499999999999  1.0000
  N   N5        1.0  0.59755  0.46249  0.10705999999999999  1.0000
  N   N6        1.0  0.8919400000000001  0.44456000000000007  0.43464  1.0000
  O   O1        1.0  0.62627  0.73859  0.58517  1.0000
  O   O2        1.0  0.82513  0.69361  0.77841  1.0000
  O   O3        1.0  0.80453  0.51525  0.72474  1.0000
  O   O4        1.0  0.5459899999999999  0.37316000000000005  0.68988  1.0000
  O   O5        1.0  0.6543099999999998  0.8708899999999998  0.42633  1.0000
  O   O6        1.0  0.7158699999999998  0.7036399999999999  0.9204499999999998  1.0000
  O   O7        1.0  0.35966  0.25995999999999997  0.41511  1.0000
  O   O8        1.0  0.17159999999999992  0.30449  0.22298  1.0000
  O   O9        1.0  0.1786799999999999  0.48256  0.2768  1.0000
  O   O10       1.0  0.44958999999999993  0.6210499999999999  0.31373  1.0000
  O   O11       1.0  0.33266  0.12803  0.57407  1.0000
  O   O12       1.0  0.27835999999999994  0.2943  0.08062999999999998  1.0000
