data_image0
_chemical_formula_structural       Dy2H4C14N4O12
_chemical_formula_sum              "Dy2 H4 C14 N4 O12"
_cell_length_a       5.56543
_cell_length_b       10.24153
_cell_length_c       12.38612
_cell_angle_alpha    68.12038
_cell_angle_beta     80.67182
_cell_angle_gamma    71.74675

_space_group_name_H-M_alt    "P 1"
_space_group_IT_number       1

loop_
  _space_group_symop_operation_xyz
  'x, y, z'

loop_
  _atom_site_type_symbol
  _atom_site_label
  _atom_site_symmetry_multiplicity
  _atom_site_fract_x
  _atom_site_fract_y
  _atom_site_fract_z
  _atom_site_occupancy
  Dy  Dy1       1.0  0.9110599999999999  0.59376  0.21206  1.0000
  Dy  Dy2       1.0  0.0774399999999999  0.3999300000000001  0.78826  1.0000
  H   H1        1.0  0.3043  0.06968999999999999  0.06614  1.0000
  H   H2        1.0  0.61926  0.24062  0.62168  1.0000
  H   H3        1.0  0.6693800000000001  0.92419  0.94146  1.0000
  H   H4        1.0  0.3652900000000001  0.75536  0.37956000000000006  1.0000
  C   C1        1.0  0.32061  0.7733999999999999  0.17066  1.0000
  C   C2        1.0  0.14234000000000002  0.89452  0.08428  1.0000
  C   C3        1.0  0.16604999999999995  0.0376  0.03575  1.0000
  C   C4        1.0  0.9877200000000003  0.33156  0.45525  1.0000
  C   C5        1.0  0.7213700000000002  0.41589  0.47757  1.0000
  C   C6        1.0  0.5617799999999998  0.3558900000000001  0.56926  1.0000
  C   C7        1.0  0.13260000000000002  0.46261  0.011050000000000003  1.0000
  C   C8        1.0  0.6637599999999999  0.21838000000000002  0.83132  1.0000
  C   C9        1.0  0.8370500000000001  0.09832999999999997  0.92018  1.0000
  C   C10       1.0  0.81057  0.95598  0.96993  1.0000
  C   C11       1.0  0.9986899999999999  0.66561  0.54657  1.0000
  C   C12       1.0  0.2644599999999999  0.5804100000000001  0.52425  1.0000
  C   C13       1.0  0.42380999999999996  0.64019  0.43235000000000007  1.0000
  C   C14       1.0  0.8448100000000001  0.53084  0.98974  1.0000
  N   N1        1.0  0.96377  0.85381  0.05295  1.0000
  N   N2        1.0  0.6495899999999999  0.55728  0.40696  1.0000
  N   N3        1.0  0.014510000000000021  0.13943  0.95197  1.0000
  N   N4        1.0  0.33594999999999997  0.43884000000000006  0.5946  1.0000
  O   O1        1.0  0.25133999999999995  0.65798  0.22559  1.0000
  O   O2        1.0  0.52765  0.79157  0.18266  1.0000
  O   O3        1.0  0.07498000000000006  0.38236  0.34801  1.0000
  O   O4        1.0  0.10217000000000001  0.23030999999999996  0.53758  1.0000
  O   O5        1.0  0.21278  0.4756600000000001  0.09482  1.0000
  O   O6        1.0  0.26414000000000004  0.39855  0.9413100000000001  1.0000
  O   O7        1.0  0.7376999999999999  0.33166  0.77478  1.0000
  O   O8        1.0  0.4555099999999999  0.20107000000000003  0.81918  1.0000
  O   O9        1.0  0.90983  0.61352  0.65327  1.0000
  O   O10       1.0  0.8869099999999998  0.7692400000000001  0.46458  1.0000
  O   O11       1.0  0.76623  0.51892  0.9049800000000001  1.0000
  O   O12       1.0  0.7142099999999998  0.5934500000000001  0.06054  1.0000
