data_image0
_chemical_formula_structural       Mg4H12C12O24
_chemical_formula_sum              "Mg4 H12 C12 O24"
_cell_length_a       8.51082
_cell_length_b       8.551570000000002
_cell_length_c       11.53704
_cell_angle_alpha    89.93195999999999
_cell_angle_beta     89.88363
_cell_angle_gamma    90.03994000000002

_symmetry_space_group_name_H-M    'P 1'
_symmetry_Int_Tables_number       1

loop_
  _symmetry_equiv_pos_as_xyz
  'x,y,z'

loop_
  _atom_site_type_symbol
  _atom_site_label
  _atom_site_symmetry_multiplicity
  _atom_site_fract_x
  _atom_site_fract_y
  _atom_site_fract_z
  _atom_site_occupancy
  Mg  Mg1       1.0  0.24989999999999998  0.25168  0.24951999999999996  1.0000
  Mg  Mg2       1.0  0.24937999999999996  0.24771999999999997  0.75034  1.0000
  Mg  Mg3       1.0  0.7501  0.74833  0.75048  1.0000
  Mg  Mg4       1.0  0.75062  0.75229  0.24966  1.0000
  H   H1        1.0  0.06040999999999999  0.91793  0.30172  1.0000
  H   H2        1.0  0.061110000000000005  0.5811700000000001  0.6982599999999999  1.0000
  H   H3        1.0  0.43898  0.58193  0.80164  1.0000
  H   H4        1.0  0.43891  0.918  0.19851  1.0000
  H   H5        1.0  0.9395900000000001  0.08207  0.69828  1.0000
  H   H6        1.0  0.93889  0.41883  0.30173999999999995  1.0000
  H   H7        1.0  0.56102  0.41807  0.19835999999999995  1.0000
  H   H8        1.0  0.56108  0.08201  0.80149  1.0000
  H   H9        1.0  0.31311  0.25083  0.5003  1.0000
  H   H10       1.0  0.18877  0.25046  0.9996  1.0000
  H   H11       1.0  0.68688  0.74918  0.4996999999999999  1.0000
  H   H12       1.0  0.81123  0.7495399999999999  0.0004  1.0000
  C   C1        1.0  0.02265  0.97012  0.21685999999999997  1.0000
  C   C2        1.0  0.02113  0.52977  0.78293  1.0000
  C   C3        1.0  0.47968000000000005  0.52743  0.7183099999999999  1.0000
  C   C4        1.0  0.47953  0.97262  0.28169  1.0000
  C   C5        1.0  0.97734  0.02989  0.78314  1.0000
  C   C6        1.0  0.9788699999999999  0.47023999999999994  0.21707  1.0000
  C   C7        1.0  0.52032  0.47258000000000006  0.2817  1.0000
  C   C8        1.0  0.52047  0.02739  0.7183099999999999  1.0000
  C   C9        1.0  0.18047  0.24823  0.50008  1.0000
  C   C10       1.0  0.32135  0.24859000000000003  0.99967  1.0000
  C   C11       1.0  0.81953  0.75177  0.4999199999999999  1.0000
  C   C12       1.0  0.67864  0.75141  0.00033  1.0000
  O   O1        1.0  0.11699  0.2522  0.4014999999999999  1.0000
  O   O2        1.0  0.10985  0.07726  0.1768  1.0000
  O   O3        1.0  0.89938  0.91462  0.17295  1.0000
  O   O4        1.0  0.11608999999999998  0.24167  0.59864  1.0000
  O   O5        1.0  0.10689  0.42212999999999995  0.82336  1.0000
  O   O6        1.0  0.89736  0.58529  0.82634  1.0000
  O   O7        1.0  0.38491  0.24247  0.9009099999999999  1.0000
  O   O8        1.0  0.39205  0.42172  0.67695  1.0000
  O   O9        1.0  0.60698  0.5783799999999999  0.67739  1.0000
  O   O10       1.0  0.38499  0.25299  0.09822  1.0000
  O   O11       1.0  0.39193  0.07821  0.32293  1.0000
  O   O12       1.0  0.60642  0.92145  0.32268  1.0000
  O   O13       1.0  0.88301  0.7478  0.5985  1.0000
  O   O14       1.0  0.89015  0.92274  0.8232  1.0000
  O   O15       1.0  0.10061  0.08538  0.8270499999999998  1.0000
  O   O16       1.0  0.88391  0.75833  0.40136  1.0000
  O   O17       1.0  0.89311  0.57788  0.17663999999999996  1.0000
  O   O18       1.0  0.10264  0.4147199999999999  0.17365999999999998  1.0000
  O   O19       1.0  0.61508  0.75753  0.09909  1.0000
  O   O20       1.0  0.60795  0.57828  0.32305  1.0000
  O   O21       1.0  0.39301  0.42162  0.32261  1.0000
  O   O22       1.0  0.61501  0.74702  0.9017799999999999  1.0000
  O   O23       1.0  0.60806  0.9218  0.67707  1.0000
  O   O24       1.0  0.39358  0.07855  0.67732  1.0000
