data_image0
_chemical_formula_structural       ZnSiH24C48N8O8F6
_chemical_formula_sum              "Zn1 Si1 H24 C48 N8 O8 F6"
_cell_length_a       7.90051
_cell_length_b       19.86212
_cell_length_c       19.86212
_cell_angle_alpha    90.0
_cell_angle_beta     90.0
_cell_angle_gamma    90.0

_symmetry_space_group_name_H-M    'P 1'
_symmetry_Int_Tables_number       1

loop_
  _symmetry_equiv_pos_as_xyz
  'x,y,z'

loop_
  _atom_site_type_symbol
  _atom_site_label
  _atom_site_symmetry_multiplicity
  _atom_site_fract_x
  _atom_site_fract_y
  _atom_site_fract_z
  _atom_site_occupancy
  Zn  Zn1       1.0  0.0  0.0  0.0  1.0000
  Si  Si1       1.0  0.4999999999999999  0.0  0.0  1.0000
  H   H1        1.0  0.0  0.4360200000000001  0.16946  1.0000
  H   H2        1.0  0.0  0.56398  0.8305399999999998  1.0000
  H   H3        1.0  0.0  0.8305399999999998  0.4360200000000001  1.0000
  H   H4        1.0  0.0  0.16946  0.56398  1.0000
  H   H5        1.0  0.0  0.56398  0.16946  1.0000
  H   H6        1.0  0.0  0.4360200000000001  0.8305399999999998  1.0000
  H   H7        1.0  0.0  0.16946  0.4360200000000001  1.0000
  H   H8        1.0  0.0  0.8305399999999998  0.56398  1.0000
  H   H9        1.0  0.7366299999999998  0.11466000000000001  0.0  1.0000
  H   H10       1.0  0.72719  0.24040000000000003  0.0  1.0000
  H   H11       1.0  0.7366299999999998  0.88534  0.0  1.0000
  H   H12       1.0  0.72719  0.75959  0.0  1.0000
  H   H13       1.0  0.7366299999999998  0.0  0.11466000000000001  1.0000
  H   H14       1.0  0.72719  0.0  0.24040000000000003  1.0000
  H   H15       1.0  0.7366299999999998  0.0  0.88534  1.0000
  H   H16       1.0  0.72719  0.0  0.75959  1.0000
  H   H17       1.0  0.26337  0.88534  0.0  1.0000
  H   H18       1.0  0.27281  0.75959  0.0  1.0000
  H   H19       1.0  0.26337  0.11466000000000001  0.0  1.0000
  H   H20       1.0  0.27281  0.24040000000000003  0.0  1.0000
  H   H21       1.0  0.26337  0.0  0.11466000000000001  1.0000
  H   H22       1.0  0.27281  0.0  0.24040000000000003  1.0000
  H   H23       1.0  0.26337  0.0  0.88534  1.0000
  H   H24       1.0  0.27281  0.0  0.75959  1.0000
  C   C1        1.0  0.0  0.3547  0.06364  1.0000
  C   C2        1.0  0.0  0.42925  0.06221000000000001  1.0000
  C   C3        1.0  0.0  0.4646199999999999  0.12268999999999998  1.0000
  C   C4        1.0  0.0  0.6453  0.93635  1.0000
  C   C5        1.0  0.0  0.57074  0.93779  1.0000
  C   C6        1.0  0.0  0.53538  0.8773  1.0000
  C   C7        1.0  0.0  0.93635  0.3547  1.0000
  C   C8        1.0  0.0  0.93779  0.42925  1.0000
  C   C9        1.0  0.0  0.8773  0.4646199999999999  1.0000
  C   C10       1.0  0.0  0.06364  0.6453  1.0000
  C   C11       1.0  0.0  0.06221000000000001  0.57074  1.0000
  C   C12       1.0  0.0  0.12268999999999998  0.53538  1.0000
  C   C13       1.0  0.0  0.6453  0.06364  1.0000
  C   C14       1.0  0.0  0.57074  0.06221000000000001  1.0000
  C   C15       1.0  0.0  0.53538  0.12268999999999998  1.0000
  C   C16       1.0  0.0  0.3547  0.93635  1.0000
  C   C17       1.0  0.0  0.42925  0.93779  1.0000
  C   C18       1.0  0.0  0.4646199999999999  0.8773  1.0000
  C   C19       1.0  0.0  0.06364  0.3547  1.0000
  C   C20       1.0  0.0  0.06221000000000001  0.42925  1.0000
  C   C21       1.0  0.0  0.12268999999999998  0.4646199999999999  1.0000
  C   C22       1.0  0.0  0.93635  0.6453  1.0000
  C   C23       1.0  0.0  0.93779  0.57074  1.0000
  C   C24       1.0  0.0  0.8773  0.53538  1.0000
  C   C25       1.0  0.0  0.24942  0.0  1.0000
  C   C26       1.0  0.0  0.46411  0.0  1.0000
  C   C27       1.0  0.0  0.75058  0.0  1.0000
  C   C28       1.0  0.0  0.53589  0.0  1.0000
  C   C29       1.0  0.0  0.0  0.24942  1.0000
  C   C30       1.0  0.0  0.0  0.46411  1.0000
  C   C31       1.0  0.0  0.0  0.75058  1.0000
  C   C32       1.0  0.0  0.0  0.53589  1.0000
  C   C33       1.0  0.85278  0.14408  0.0  1.0000
  C   C34       1.0  0.8477799999999999  0.21421  0.0  1.0000
  C   C35       1.0  0.85278  0.8559199999999999  0.0  1.0000
  C   C36       1.0  0.8477799999999999  0.78579  0.0  1.0000
  C   C37       1.0  0.85278  0.0  0.14408  1.0000
  C   C38       1.0  0.8477799999999999  0.0  0.21421  1.0000
  C   C39       1.0  0.85278  0.0  0.8559199999999999  1.0000
  C   C40       1.0  0.8477799999999999  0.0  0.78579  1.0000
  C   C41       1.0  0.14722  0.8559199999999999  0.0  1.0000
  C   C42       1.0  0.15222  0.78579  0.0  1.0000
  C   C43       1.0  0.14722  0.14408  0.0  1.0000
  C   C44       1.0  0.15222  0.21421  0.0  1.0000
  C   C45       1.0  0.14722  0.0  0.14408  1.0000
  C   C46       1.0  0.15222  0.0  0.21421  1.0000
  C   C47       1.0  0.14722  0.0  0.8559199999999999  1.0000
  C   C48       1.0  0.15222  0.0  0.78579  1.0000
  N   N1        1.0  0.0  0.10946999999999998  0.0  1.0000
  N   N2        1.0  0.0  0.32229  0.0  1.0000
  N   N3        1.0  0.0  0.89053  0.0  1.0000
  N   N4        1.0  0.0  0.67771  0.0  1.0000
  N   N5        1.0  0.0  0.0  0.10946999999999998  1.0000
  N   N6        1.0  0.0  0.0  0.32229  1.0000
  N   N7        1.0  0.0  0.0  0.89053  1.0000
  N   N8        1.0  0.0  0.0  0.67771  1.0000
  O   O1        1.0  0.0  0.32209  0.11601999999999998  1.0000
  O   O2        1.0  0.0  0.6779  0.88397  1.0000
  O   O3        1.0  0.0  0.88397  0.32209  1.0000
  O   O4        1.0  0.0  0.11601999999999998  0.6779  1.0000
  O   O5        1.0  0.0  0.6779  0.11601999999999998  1.0000
  O   O6        1.0  0.0  0.32209  0.88397  1.0000
  O   O7        1.0  0.0  0.11601999999999998  0.32209  1.0000
  O   O8        1.0  0.0  0.88397  0.6779  1.0000
  F   F1        1.0  0.2748199999999999  0.0  0.0  1.0000
  F   F2        1.0  0.72518  0.0  0.0  1.0000
  F   F3        1.0  0.4999999999999999  0.06051  0.06051  1.0000
  F   F4        1.0  0.4999999999999999  0.9394900000000002  0.9394900000000002  1.0000
  F   F5        1.0  0.4999999999999999  0.9394900000000002  0.06051  1.0000
  F   F6        1.0  0.4999999999999999  0.06051  0.9394900000000002  1.0000
