data_image0
_chemical_formula_structural       Ho4H8C28N8O24
_chemical_formula_sum              "Ho4 H8 C28 N8 O24"
_cell_length_a       8.32654
_cell_length_b       9.111610000000002
_cell_length_c       16.18534
_cell_angle_alpha    90.0506
_cell_angle_beta     89.95414
_cell_angle_gamma    96.92365

_symmetry_space_group_name_H-M    'P 1'
_symmetry_Int_Tables_number       1

loop_
  _symmetry_equiv_pos_as_xyz
  'x,y,z'

loop_
  _atom_site_type_symbol
  _atom_site_label
  _atom_site_symmetry_multiplicity
  _atom_site_fract_x
  _atom_site_fract_y
  _atom_site_fract_z
  _atom_site_occupancy
  Ho  Ho1       1.0  0.96067  0.1297  0.33713  1.0000
  Ho  Ho2       1.0  0.54078  0.36825  0.83658  1.0000
  Ho  Ho3       1.0  0.03932999999999999  0.87031  0.6628699999999997  1.0000
  Ho  Ho4       1.0  0.45921  0.63176  0.16343  1.0000
  H   H1        1.0  0.9688200000000001  0.71417  0.38607  1.0000
  H   H2        1.0  0.61946  0.31138  0.25659  1.0000
  H   H3        1.0  0.53106  0.78479  0.88629  1.0000
  H   H4        1.0  0.88094  0.18706  0.75682  1.0000
  H   H5        1.0  0.03118  0.28583  0.61393  1.0000
  H   H6        1.0  0.38053000000000003  0.68863  0.7434199999999997  1.0000
  H   H7        1.0  0.46894  0.21521  0.11371  1.0000
  H   H8        1.0  0.11906  0.81294  0.24319  1.0000
  C   C1        1.0  0.91632  0.4789  0.36904  1.0000
  C   C2        1.0  0.7178900000000001  0.80279  0.286  1.0000
  C   C3        1.0  0.88892  0.62561  0.35715  1.0000
  C   C4        1.0  0.76084  0.6508  0.30638  1.0000
  C   C5        1.0  0.06532  0.44327  0.41671  1.0000
  C   C6        1.0  0.6968100000000002  0.40131  0.28604  1.0000
  C   C7        1.0  0.9134300000000001  0.01716  0.51245  1.0000
  C   C8        1.0  0.58336  0.02015  0.86903  1.0000
  C   C9        1.0  0.78181  0.69524  0.78572  1.0000
  C   C10       1.0  0.61092  0.87327  0.8572899999999998  1.0000
  C   C11       1.0  0.7389300000000001  0.84753  0.80641  1.0000
  C   C12       1.0  0.43446  0.0571  0.9166699999999998  1.0000
  C   C13       1.0  0.80322  0.09726999999999998  0.78613  1.0000
  C   C14       1.0  0.58637  0.48291  0.01275  1.0000
  C   C15       1.0  0.08368  0.5211  0.63096  1.0000
  C   C16       1.0  0.28211  0.19720999999999997  0.7140099999999998  1.0000
  C   C17       1.0  0.11108  0.3744  0.64285  1.0000
  C   C18       1.0  0.23915999999999998  0.34920999999999996  0.6936199999999998  1.0000
  C   C19       1.0  0.93467  0.55673  0.58329  1.0000
  C   C20       1.0  0.30319  0.5987  0.71396  1.0000
  C   C21       1.0  0.08657000000000002  0.98285  0.4875499999999999  1.0000
  C   C22       1.0  0.41664  0.97985  0.13097  1.0000
  C   C23       1.0  0.21819  0.30476  0.21427999999999994  1.0000
  C   C24       1.0  0.38908  0.12673  0.14272  1.0000
  C   C25       1.0  0.26107  0.15248  0.1936  1.0000
  C   C26       1.0  0.56553  0.9429  0.08332999999999997  1.0000
  C   C27       1.0  0.19678000000000004  0.9027399999999999  0.21387  1.0000
  C   C28       1.0  0.41363  0.51709  0.9872499999999997  1.0000
  N   N1        1.0  0.8185  0.36624  0.33398  1.0000
  N   N2        1.0  0.6639700000000002  0.5387099999999999  0.27023  1.0000
  N   N3        1.0  0.68145  0.13257  0.83399  1.0000
  N   N4        1.0  0.8357700000000002  0.9597499999999999  0.77024  1.0000
  N   N5        1.0  0.1815  0.63376  0.66603  1.0000
  N   N6        1.0  0.33601999999999993  0.46129999999999993  0.72977  1.0000
  N   N7        1.0  0.31855  0.86743  0.16602  1.0000
  N   N8        1.0  0.16423  0.04026  0.22977  1.0000
  O   O1        1.0  0.08020999999999999  0.30347999999999997  0.4205599999999999  1.0000
  O   O2        1.0  0.82525  0.91245  0.29593  1.0000
  O   O3        1.0  0.8256200000000001  0.05989  0.4558899999999999  1.0000
  O   O4        1.0  0.57727  0.8086199999999999  0.25807  1.0000
  O   O5        1.0  0.87434  7.999999999999971e-05  0.5880199999999998  1.0000
  O   O6        1.0  0.15782000000000002  0.54734  0.44519  1.0000
  O   O7        1.0  0.41989  0.19689  0.92029  1.0000
  O   O8        1.0  0.67476  0.5853  0.79596  1.0000
  O   O9        1.0  0.67406  0.43693999999999994  0.9569999999999997  1.0000
  O   O10       1.0  0.92196  0.68926  0.75724  1.0000
  O   O11       1.0  0.6255200000000002  0.50333  0.08811  1.0000
  O   O12       1.0  0.34158  0.95398  0.94559  1.0000
  O   O13       1.0  0.91979  0.69653  0.57944  1.0000
  O   O14       1.0  0.17475000000000002  0.08756  0.70407  1.0000
  O   O15       1.0  0.17436999999999997  0.9401200000000001  0.54411  1.0000
  O   O16       1.0  0.4227300000000001  0.19138  0.74193  1.0000
  O   O17       1.0  0.12566  0.99993  0.41198  1.0000
  O   O18       1.0  0.84218  0.45267  0.5548099999999998  1.0000
  O   O19       1.0  0.58011  0.8031099999999999  0.07970999999999998  1.0000
  O   O20       1.0  0.32524  0.4147  0.20404  1.0000
  O   O21       1.0  0.32593999999999995  0.56307  0.04301  1.0000
  O   O22       1.0  0.07803  0.31075  0.24276  1.0000
  O   O23       1.0  0.37448  0.49667999999999995  0.9118899999999998  1.0000
  O   O24       1.0  0.65842  0.04602  0.05441  1.0000
