data_image0
_chemical_formula_structural       Lu4H12C36O24
_chemical_formula_sum              "Lu4 H12 C36 O24"
_cell_length_a       10.22953
_cell_length_b       10.21975
_cell_length_c       14.24762
_cell_angle_alpha    90.0
_cell_angle_beta     90.0
_cell_angle_gamma    90.0

_space_group_name_H-M_alt    "P 1"
_space_group_IT_number       1

loop_
  _space_group_symop_operation_xyz
  'x, y, z'

loop_
  _atom_site_type_symbol
  _atom_site_label
  _atom_site_symmetry_multiplicity
  _atom_site_fract_x
  _atom_site_fract_y
  _atom_site_fract_z
  _atom_site_occupancy
  Lu  Lu1       1.0  0.8582800000000002  0.14164  0.8760500000000002  1.0000
  Lu  Lu2       1.0  0.14171  0.8583600000000001  0.37605  1.0000
  Lu  Lu3       1.0  0.8582900000000001  0.8583600000000001  0.6239500000000002  1.0000
  Lu  Lu4       1.0  0.14171  0.14164  0.12395000000000003  1.0000
  H   H1        1.0  0.9195699999999999  0.54298  0.8599600000000001  1.0000
  H   H2        1.0  0.08043  0.45702  0.35996  1.0000
  H   H3        1.0  0.45718  0.9195500000000001  0.60991  1.0000
  H   H4        1.0  0.54282  0.08045  0.10991000000000002  1.0000
  H   H5        1.0  0.08043  0.54298  0.14004  1.0000
  H   H6        1.0  0.9195699999999999  0.45702  0.6400400000000003  1.0000
  H   H7        1.0  0.54282  0.9195500000000001  0.3900900000000001  1.0000
  H   H8        1.0  0.45718  0.08045  0.89009  1.0000
  H   H9        1.0  0.0  0.90713  0.0  1.0000
  H   H10       1.0  0.0  0.09287  0.5  1.0000
  H   H11       1.0  0.09358  0.0  0.7500000000000002  1.0000
  H   H12       1.0  0.90642  0.0  0.25  1.0000
  C   C1        1.0  0.95449  0.59619  0.92115  1.0000
  C   C2        1.0  0.95545  0.73318  0.9208900000000002  1.0000
  C   C3        1.0  0.91229  0.80963  0.8372700000000002  1.0000
  C   C4        1.0  0.04551  0.40381000000000006  0.42115  1.0000
  C   C5        1.0  0.04455  0.26682  0.4209000000000001  1.0000
  C   C6        1.0  0.08771  0.19037  0.3372700000000001  1.0000
  C   C7        1.0  0.4042700000000001  0.95439  0.67124  1.0000
  C   C8        1.0  0.26744  0.95502  0.6713100000000002  1.0000
  C   C9        1.0  0.1906  0.91187  0.58835  1.0000
  C   C10       1.0  0.59573  0.04561  0.17124  1.0000
  C   C11       1.0  0.7325600000000001  0.04498  0.17131000000000005  1.0000
  C   C12       1.0  0.8094  0.08813  0.08835000000000003  1.0000
  C   C13       1.0  0.04551  0.59619  0.07885  1.0000
  C   C14       1.0  0.04455  0.73318  0.0791  1.0000
  C   C15       1.0  0.08771  0.80964  0.16273  1.0000
  C   C16       1.0  0.95449  0.40381000000000006  0.57885  1.0000
  C   C17       1.0  0.95545  0.26682  0.5791  1.0000
  C   C18       1.0  0.91229  0.19037  0.6627300000000002  1.0000
  C   C19       1.0  0.59573  0.95439  0.3287600000000001  1.0000
  C   C20       1.0  0.7325600000000001  0.95502  0.32868  1.0000
  C   C21       1.0  0.80939  0.91187  0.4116500000000001  1.0000
  C   C22       1.0  0.4042700000000001  0.04561  0.82875  1.0000
  C   C23       1.0  0.26744  0.04498  0.8286800000000001  1.0000
  C   C24       1.0  0.1906  0.08813  0.91164  1.0000
  C   C25       1.0  0.0  0.38177  0.0  1.0000
  C   C26       1.0  0.0  0.52781  0.0  1.0000
  C   C27       1.0  0.0  0.8009000000000001  0.0  1.0000
  C   C28       1.0  0.0  0.61823  0.5  1.0000
  C   C29       1.0  0.0  0.47219  0.5  1.0000
  C   C30       1.0  0.0  0.19910000000000003  0.5  1.0000
  C   C31       1.0  0.61881  0.0  0.7500000000000002  1.0000
  C   C32       1.0  0.47274  0.0  0.7500000000000002  1.0000
  C   C33       1.0  0.19965  0.0  0.7500000000000002  1.0000
  C   C34       1.0  0.38119  0.0  0.25  1.0000
  C   C35       1.0  0.52726  0.0  0.25  1.0000
  C   C36       1.0  0.80035  0.0  0.25  1.0000
  O   O1        1.0  0.91526  0.3253  0.9480500000000002  1.0000
  O   O2        1.0  0.8900000000000001  0.9313  0.84786  1.0000
  O   O3        1.0  0.9023  0.75134  0.75812  1.0000
  O   O4        1.0  0.08474  0.6747  0.4480500000000001  1.0000
  O   O5        1.0  0.11  0.0687  0.3478600000000001  1.0000
  O   O6        1.0  0.09770000000000001  0.24866000000000002  0.25812  1.0000
  O   O7        1.0  0.67494  0.9158500000000002  0.69727  1.0000
  O   O8        1.0  0.06913  0.8896800000000001  0.5994100000000002  1.0000
  O   O9        1.0  0.24866999999999997  0.9021  0.50919  1.0000
  O   O10       1.0  0.32506  0.08415  0.19727000000000003  1.0000
  O   O11       1.0  0.93087  0.11033  0.09942000000000001  1.0000
  O   O12       1.0  0.75133  0.0979  0.009190000000000004  1.0000
  O   O13       1.0  0.08474  0.3253  0.05195000000000002  1.0000
  O   O14       1.0  0.11  0.9313  0.15214  1.0000
  O   O15       1.0  0.09770000000000001  0.75134  0.24188000000000007  1.0000
  O   O16       1.0  0.91526  0.6747  0.55195  1.0000
  O   O17       1.0  0.8900000000000001  0.0687  0.6521300000000002  1.0000
  O   O18       1.0  0.9023  0.24866000000000002  0.74187  1.0000
  O   O19       1.0  0.32506  0.9158500000000002  0.30273  1.0000
  O   O20       1.0  0.93087  0.8896800000000001  0.40058  1.0000
  O   O21       1.0  0.75133  0.9021  0.49081000000000014  1.0000
  O   O22       1.0  0.67494  0.08415  0.80273  1.0000
  O   O23       1.0  0.06913  0.11033  0.9005800000000002  1.0000
  O   O24       1.0  0.24866999999999997  0.0979  0.9908100000000001  1.0000
