data_image0
_chemical_formula_structural       Cu2H16C24N4O8
_chemical_formula_sum              "Cu2 H16 C24 N4 O8"
_cell_length_a       4.56508
_cell_length_b       11.418580000000002
_cell_length_c       12.649519999999999
_cell_angle_alpha    88.82734
_cell_angle_beta     79.46931
_cell_angle_gamma    84.60648

_symmetry_space_group_name_H-M    'P 1'
_symmetry_Int_Tables_number       1

loop_
  _symmetry_equiv_pos_as_xyz
  'x,y,z'

loop_
  _atom_site_type_symbol
  _atom_site_label
  _atom_site_symmetry_multiplicity
  _atom_site_fract_x
  _atom_site_fract_y
  _atom_site_fract_z
  _atom_site_occupancy
  Cu  Cu1       1.0  0.8352799999999999  0.7816700000000001  0.23000000000000004  1.0000
  Cu  Cu2       1.0  0.06721000000000002  0.28169  0.77007  1.0000
  H   H1        1.0  0.2869999999999999  0.5057800000000001  0.66608  1.0000
  H   H2        1.0  0.22826999999999997  0.6196  0.49569  1.0000
  H   H3        1.0  0.55078  0.39773  0.45464  1.0000
  H   H4        1.0  0.6566200000000001  0.28401  0.61721  1.0000
  H   H5        1.0  0.58069  0.11144  0.7901900000000001  1.0000
  H   H6        1.0  0.73869  0.9668600000000003  0.9235  1.0000
  H   H7        1.0  0.8845199999999999  0.04991000000000001  0.12588  1.0000
  H   H8        1.0  0.77255  0.20647  0.99062  1.0000
  H   H9        1.0  0.9553799999999999  0.0052000000000000015  0.33334  1.0000
  H   H10       1.0  0.7259399999999999  0.11979000000000001  0.50266  1.0000
  H   H11       1.0  0.00391999999999999  0.8993200000000001  0.54584  1.0000
  H   H12       1.0  0.2723400000000001  0.78498  0.38408  1.0000
  H   H13       1.0  0.37134999999999996  0.6111200000000001  0.20921  1.0000
  H   H14       1.0  0.66005  0.4661600000000001  0.07592  1.0000
  H   H15       1.0  0.00484000000000003  0.54995  0.87585  1.0000
  H   H16       1.0  0.76149  0.707  0.010400000000000001  1.0000
  C   C1        1.0  0.13911000000000004  0.4822  0.61366  1.0000
  C   C2        1.0  0.08548999999999995  0.55058  0.525  1.0000
  C   C3        1.0  0.86484  0.52515  0.4694400000000001  1.0000
  C   C4        1.0  0.70458  0.4271800000000001  0.50235  1.0000
  C   C5        1.0  0.7741599999999998  0.36081  0.59006  1.0000
  C   C6        1.0  0.8016299999999998  0.59732  0.37473  1.0000
  C   C7        1.0  0.43472000000000005  0.09870000000000002  0.86688  1.0000
  C   C8        1.0  0.5294800000000001  0.02162  0.94433  1.0000
  C   C9        1.0  0.32737  0.00445  0.04052  1.0000
  C   C10       1.0  0.04792  0.06683  0.05473  1.0000
  C   C11       1.0  0.9708300000000001  0.14509  0.9759  1.0000
  C   C12       1.0  0.39445  0.91843  0.12602  1.0000
  C   C13       1.0  0.75358  0.9822700000000001  0.38581  1.0000
  C   C14       1.0  0.61124  0.051110000000000017  0.47393  1.0000
  C   C15       1.0  0.33415  0.02614  0.52998  1.0000
  C   C16       1.0  0.20632999999999993  0.9283100000000002  0.49778  1.0000
  C   C17       1.0  0.36362  0.8615300000000001  0.41063  1.0000
  C   C18       1.0  0.17633000000000001  0.09760000000000002  0.62505  1.0000
  C   C19       1.0  0.3008700000000001  0.59842  0.133  1.0000
  C   C20       1.0  0.47154  0.5212900000000001  0.05562  1.0000
  C   C21       1.0  0.36498999999999987  0.50466  0.9598800000000001  1.0000
  C   C22       1.0  0.09933999999999996  0.56718  0.94615  1.0000
  C   C23       1.0  0.9451500000000002  0.6455000000000001  0.02486  1.0000
  C   C24       1.0  0.51673  0.41868  0.8746099999999999  1.0000
  N   N1        1.0  0.9788500000000002  0.3893800000000001  0.6464299999999998  1.0000
  N   N2        1.0  0.16630999999999999  0.16098  0.8827100000000001  1.0000
  N   N3        1.0  0.62568  0.8895300000000002  0.35379  1.0000
  N   N4        1.0  0.04835999999999999  0.66111  0.11756  1.0000
  O   O1        1.0  0.96938  0.6829700000000001  0.3488  1.0000
  O   O2        1.0  0.59641  0.5720400000000001  0.32822  1.0000
  O   O3        1.0  0.6550600000000001  0.86145  0.10941  1.0000
  O   O4        1.0  0.19119999999999995  0.90737  0.20673000000000002  1.0000
  O   O5        1.0  0.3181999999999999  0.18306  0.6507200000000001  1.0000
  O   O6        1.0  0.9249400000000001  0.07185  0.67218  1.0000
  O   O7        1.0  0.76101  0.36132  0.89065  1.0000
  O   O8        1.0  0.39133  0.40866  0.7947500000000001  1.0000
