data_image0
_chemical_formula_structural       Lu2H8C8O16
_chemical_formula_sum              "Lu2 H8 C8 O16"
_cell_length_a       6.57736
_cell_length_b       8.14437
_cell_length_c       10.01154
_cell_angle_alpha    90.16652999999998
_cell_angle_beta     109.63302
_cell_angle_gamma    90.00326

_symmetry_space_group_name_H-M    'P 1'
_symmetry_Int_Tables_number       1

loop_
  _symmetry_equiv_pos_as_xyz
  'x,y,z'

loop_
  _atom_site_type_symbol
  _atom_site_label
  _atom_site_symmetry_multiplicity
  _atom_site_fract_x
  _atom_site_fract_y
  _atom_site_fract_z
  _atom_site_occupancy
  Lu  Lu1       1.0  0.86024  0.75174  0.71347  1.0000
  Lu  Lu2       1.0  0.14956  0.24812  0.29091  1.0000
  H   H1        1.0  0.49275  0.92009  0.42754  1.0000
  H   H2        1.0  0.51583  0.42307  0.57894  1.0000
  H   H3        1.0  0.9360799999999998  0.57881  0.42273  1.0000
  H   H4        1.0  0.06466999999999998  0.08013  0.57572  1.0000
  H   H5        1.0  0.31988  0.75225  0.63736  1.0000
  H   H6        1.0  0.68727  0.24941  0.36362  1.0000
  H   H7        1.0  0.7775  0.50307  0.99933  1.0000
  H   H8        1.0  0.23063999999999998  0.00546  0.00462  1.0000
  C   C1        1.0  0.53069  0.01831  0.50942  1.0000
  C   C2        1.0  0.4782099999999999  0.51829  0.4949299999999999  1.0000
  C   C3        1.0  0.98187  0.48221  0.50592  1.0000
  C   C4        1.0  0.020639999999999988  0.98185  0.49361  1.0000
  C   C5        1.0  0.3795899999999999  0.74924  0.7552099999999998  1.0000
  C   C6        1.0  0.62546  0.25077  0.2457  1.0000
  C   C7        1.0  0.9474399999999998  0.49694  0.99841  1.0000
  C   C8        1.0  0.05996  0.00053  0.0036499999999999996  1.0000
  O   O1        1.0  0.5763199999999998  0.71163  0.81258  1.0000
  O   O2        1.0  0.98096  0.5624  0.89398  1.0000
  O   O3        1.0  0.66138  0.9851800000000001  0.6307999999999999  1.0000
  O   O4        1.0  0.43879  0.15657  0.47352  1.0000
  O   O5        1.0  0.42789  0.21451  0.18943999999999994  1.0000
  O   O6        1.0  0.021179999999999994  0.06887  0.10552  1.0000
  O   O7        1.0  0.34814  0.48142  0.37404  1.0000
  O   O8        1.0  0.5703  0.65719  0.52789  1.0000
  O   O9        1.0  0.2408199999999999  0.78383  0.8129499999999997  1.0000
  O   O10       1.0  0.92464  0.9275  0.90075  1.0000
  O   O11       1.0  0.97251  0.51783  0.62614  1.0000
  O   O12       1.0  0.03986000000000001  0.34335  0.47231  1.0000
  O   O13       1.0  0.7621599999999998  0.28821  0.18763  1.0000
  O   O14       1.0  0.08234999999999999  0.42507  0.10133999999999997  1.0000
  O   O15       1.0  0.03178999999999991  0.01553  0.37352999999999986  1.0000
  O   O16       1.0  0.9623199999999995  0.84386  0.52793  1.0000
