data_image0
_chemical_formula_structural       Tb2H8C8O16
_chemical_formula_sum              "Tb2 H8 C8 O16"
_cell_length_a       6.57762
_cell_length_b       8.32449
_cell_length_c       9.980179999999999
_cell_angle_alpha    89.98741999999999
_cell_angle_beta     109.90987
_cell_angle_gamma    89.99545

_space_group_name_H-M_alt    "P 1"
_space_group_IT_number       1

loop_
  _space_group_symop_operation_xyz
  'x, y, z'

loop_
  _atom_site_type_symbol
  _atom_site_label
  _atom_site_symmetry_multiplicity
  _atom_site_fract_x
  _atom_site_fract_y
  _atom_site_fract_z
  _atom_site_occupancy
  Tb  Tb1       1.0  0.6426  0.25224  0.29166  1.0000
  Tb  Tb2       1.0  0.35470999999999997  0.75046  0.70754  1.0000
  H   H1        1.0  0.57999  0.43506  0.58022  1.0000
  H   H2        1.0  0.41865  0.93625  0.41812  1.0000
  H   H3        1.0  0.0023100000000000234  0.06333  0.58408  1.0000
  H   H4        1.0  0.99942  0.56513  0.41771  1.0000
  H   H5        1.0  0.7355699999999997  0.4973699999999999  0.00016  1.0000
  H   H6        1.0  0.26395999999999986  0.00019999999999999996  0.9983699999999999  1.0000
  H   H7        1.0  0.18547  0.24989999999999998  0.36805  1.0000
  H   H8        1.0  0.8148099999999998  0.74909  0.63067  1.0000
  C   C1        1.0  0.5159  0.52194  0.49227000000000004  1.0000
  C   C2        1.0  0.4832499999999999  0.02237  0.50684  1.0000
  C   C3        1.0  0.9769599999999999  0.9800199999999999  0.49361  1.0000
  C   C4        1.0  0.023290000000000016  0.47951  0.50621  1.0000
  C   C5        1.0  0.5659799999999999  0.5006  0.99967  1.0000
  C   C6        1.0  0.43524999999999997  0.9997499999999999  0.9999900000000002  1.0000
  C   C7        1.0  0.12280000000000002  0.24854000000000004  0.25021  1.0000
  C   C8        1.0  0.87424  0.75063  0.74839  1.0000
  O   O1        1.0  0.4449099999999999  0.65602  0.52023  1.0000
  O   O2        1.0  0.5167899999999999  0.4833  0.37005  1.0000
  O   O3        1.0  0.5295  0.43253  0.10216  1.0000
  O   O4        1.0  0.25856  0.22172  0.18793  1.0000
  O   O5        1.0  0.5537099999999999  0.15703  0.47992  1.0000
  O   O6        1.0  0.4824699999999999  0.9821799999999999  0.62903  1.0000
  O   O7        1.0  0.47234999999999994  0.92896  0.8993200000000001  1.0000
  O   O8        1.0  0.73591  0.71964  0.80748  1.0000
  O   O9        1.0  0.06977999999999995  0.84294  0.5179  1.0000
  O   O10       1.0  0.85688  0.02402  0.37089  1.0000
  O   O11       1.0  0.57149  0.07076  0.1035  1.0000
  O   O12       1.0  0.92191  0.27496  0.19084  1.0000
  O   O13       1.0  0.92842  0.34399  0.4784399999999999  1.0000
  O   O14       1.0  0.14367999999999992  0.52103  0.62973  1.0000
  O   O15       1.0  0.42795999999999995  0.57142  0.89703  1.0000
  O   O16       1.0  0.07244  0.7835  0.80814  1.0000
