data_image0
_chemical_formula_structural       Mn6H18C42O18
_chemical_formula_sum              "Mn6 H18 C42 O18"
_cell_length_a       6.60075
_cell_length_b       21.821550000000002
_cell_length_c       21.85196
_cell_angle_alpha    120.0925
_cell_angle_beta     90.71980000000002
_cell_angle_gamma    88.12572

_symmetry_space_group_name_H-M    'P 1'
_symmetry_Int_Tables_number       1

loop_
  _symmetry_equiv_pos_as_xyz
  'x,y,z'

loop_
  _atom_site_type_symbol
  _atom_site_label
  _atom_site_symmetry_multiplicity
  _atom_site_fract_x
  _atom_site_fract_y
  _atom_site_fract_z
  _atom_site_occupancy
  Mn  Mn1       1.0  0.8522600000000001  0.38767999999999997  0.66488  1.0000
  Mn  Mn2       1.0  0.17232000000000006  0.2791199999999999  0.61636  1.0000
  Mn  Mn3       1.0  0.54794  0.33468  0.71634  1.0000
  Mn  Mn4       1.0  0.14189000000000004  0.7177099999999997  0.33363  1.0000
  Mn  Mn5       1.0  0.79985  0.6671700000000002  0.38842000000000004  1.0000
  Mn  Mn6       1.0  0.50641  0.61395  0.27597  1.0000
  H   H1        1.0  0.99214  0.42946000000000006  0.42905000000000004  1.0000
  H   H2        1.0  0.84316  0.37019  0.48918  1.0000
  H   H3        1.0  0.55472  0.44625  0.53637  1.0000
  H   H4        1.0  0.32733  0.013110000000000014  0.58803  1.0000
  H   H5        1.0  0.20133  0.13771  0.65496  1.0000
  H   H6        1.0  0.88785  0.08126999999999994  0.54658  1.0000
  H   H7        1.0  0.6722699999999998  0.57009  0.99097  1.0000
  H   H8        1.0  0.5282500000000001  0.5094799999999999  0.8693400000000001  1.0000
  H   H9        1.0  0.24691  0.46283999999999986  0.90767  1.0000
  H   H10       1.0  0.99118  0.9895599999999999  0.57594  1.0000
  H   H11       1.0  0.12925000000000003  0.8659999999999999  0.51645  1.0000
  H   H12       1.0  0.42921  0.9167699999999999  0.46390000000000003  1.0000
  H   H13       1.0  0.66801  0.42738  0.42642  1.0000
  H   H14       1.0  0.81815  0.4900399999999999  0.36987000000000003  1.0000
  H   H15       1.0  0.10025000000000002  0.53884  0.44879  1.0000
  H   H16       1.0  0.33993  0.58038  0.00129  1.0000
  H   H17       1.0  0.4799900000000001  0.64134  0.12277  1.0000
  H   H18       1.0  0.79149  0.54403  0.08060000000000002  1.0000
  C   C1        1.0  0.11272000000000001  0.3740899999999999  0.54645  1.0000
  C   C2        1.0  0.32092  0.3932799999999999  0.55702  1.0000
  C   C3        1.0  0.39920000000000005  0.42911  0.52433  1.0000
  C   C4        1.0  0.28502  0.4428999999999999  0.47818  1.0000
  C   C5        1.0  0.08303000000000002  0.42075999999999997  0.46603000000000006  1.0000
  C   C6        1.0  0.9988900000000001  0.38752999999999993  0.49923000000000006  1.0000
  C   C7        1.0  0.46505  0.37575999999999987  0.59857  1.0000
  C   C8        1.0  0.47211000000000003  0.18122  0.6398  1.0000
  C   C9        1.0  0.6704300000000001  0.16355999999999998  0.60922  1.0000
  C   C10       1.0  0.7371000000000001  0.09194999999999993  0.5699  1.0000
  C   C11       1.0  0.61814  0.03703999999999995  0.56179  1.0000
  C   C12       1.0  0.42253  0.055040000000000006  0.5927  1.0000
  C   C13       1.0  0.35081  0.12488999999999997  0.63052  1.0000
  C   C14       1.0  0.81839  0.21587000000000003  0.62063  1.0000
  C   C15       1.0  0.80574  0.4534199999999999  0.8201  1.0000
  C   C16       1.0  0.01460000000000001  0.4420699999999999  0.83054  1.0000
  C   C17       1.0  0.09017  0.47471999999999986  0.9004300000000001  1.0000
  C   C18       1.0  0.97045  0.52073  0.9585200000000001  1.0000
  C   C19       1.0  0.76638  0.53298  0.94634  1.0000
  C   C20       1.0  0.68536  0.49992999999999993  0.8786100000000001  1.0000
  C   C21       1.0  0.15493  0.40177999999999997  0.7728400000000001  1.0000
  C   C22       1.0  0.8571800000000002  0.8207799999999997  0.45760000000000006  1.0000
  C   C23       1.0  0.6552700000000001  0.83616  0.44426  1.0000
  C   C24       1.0  0.5819699999999998  0.90722  0.4771000000000001  1.0000
  C   C25       1.0  0.6991300000000001  0.9629899999999999  0.52462  1.0000
  C   C26       1.0  0.89853  0.9467499999999999  0.5378000000000001  1.0000
  C   C27       1.0  0.97676  0.8777399999999999  0.5050500000000001  1.0000
  C   C28       1.0  0.51535  0.7813599999999998  0.4003  1.0000
  C   C29       1.0  0.5454  0.54949  0.37687  1.0000
  C   C30       1.0  0.3357600000000001  0.5603699999999999  0.39649  1.0000
  C   C31       1.0  0.2571599999999999  0.52644  0.43106000000000005  1.0000
  C   C32       1.0  0.37318999999999997  0.47894  0.44305  1.0000
  C   C33       1.0  0.5766599999999998  0.46606999999999993  0.4198400000000001  1.0000
  C   C34       1.0  0.66115  0.50044  0.38782  1.0000
  C   C35       1.0  0.19252  0.6037999999999999  0.38081000000000004  1.0000
  C   C36       1.0  0.21594000000000005  0.62843  0.17149  1.0000
  C   C37       1.0  0.015610000000000021  0.6018999999999999  0.15814  1.0000
  C   C38       1.0  0.94217  0.56541  0.08836000000000001  1.0000
  C   C39       1.0  0.05519000000000002  0.5567799999999999  0.030940000000000002  1.0000
  C   C40       1.0  0.25058  0.58488  0.04498  1.0000
  C   C41       1.0  0.32972  0.61934  0.11293  1.0000
  C   C42       1.0  0.87084  0.61285  0.21377  1.0000
  O   O1        1.0  0.02197  0.34318000000000004  0.5788600000000002  1.0000
  O   O2        1.0  0.43639  0.32347999999999993  0.60905  1.0000
  O   O3        1.0  0.62645  0.41179  0.6213  1.0000
  O   O4        1.0  0.39518  0.24848  0.67685  1.0000
  O   O5        1.0  0.79121  0.28247  0.66969  1.0000
  O   O6        1.0  0.98558  0.19752  0.58545  1.0000
  O   O7        1.0  0.71719  0.42041  0.75437  1.0000
  O   O8        1.0  0.10387000000000002  0.38217000000000007  0.7070900000000001  1.0000
  O   O9        1.0  0.33841  0.3875600000000001  0.7844800000000002  1.0000
  O   O10       1.0  0.94023  0.7542699999999998  0.42704000000000003  1.0000
  O   O11       1.0  0.5627  0.7143299999999999  0.37780000000000014  1.0000
  O   O12       1.0  0.3407400000000001  0.79707  0.3848600000000001  1.0000
  O   O13       1.0  0.63439  0.58339  0.34727  1.0000
  O   O14       1.0  0.23436000000000004  0.6212399999999999  0.3339  1.0000
  O   O15       1.0  0.019629999999999995  0.62125  0.41222000000000003  1.0000
  O   O16       1.0  0.29951  0.66102  0.23642000000000002  1.0000
  O   O17       1.0  0.88918  0.66442  0.27842000000000006  1.0000
  O   O18       1.0  0.71759  0.57309  0.19693000000000002  1.0000
