data_image0
_chemical_formula_structural       Eu2H14C30O14
_chemical_formula_sum              "Eu2 H14 C30 O14"
_cell_length_a       8.98373
_cell_length_b       9.43851
_cell_length_c       11.721410000000002
_cell_angle_alpha    88.25563
_cell_angle_beta     104.36730999999999
_cell_angle_gamma    105.60475999999998

_symmetry_space_group_name_H-M    'P 1'
_symmetry_Int_Tables_number       1

loop_
  _symmetry_equiv_pos_as_xyz
  'x,y,z'

loop_
  _atom_site_type_symbol
  _atom_site_label
  _atom_site_symmetry_multiplicity
  _atom_site_fract_x
  _atom_site_fract_y
  _atom_site_fract_z
  _atom_site_occupancy
  Eu  Eu1       1.0  0.71907  0.46596999999999994  0.06917  1.0000
  Eu  Eu2       1.0  0.28119  0.52482  0.9368799999999999  1.0000
  H   H1        1.0  0.09349999999999999  0.62623  0.44297999999999993  1.0000
  H   H2        1.0  0.2054  0.75148  0.64429  1.0000
  H   H3        1.0  0.7912400000000002  0.91561  0.5969199999999999  1.0000
  H   H4        1.0  0.6842300000000003  0.79586  0.39479  1.0000
  H   H5        1.0  0.09243999999999995  0.14849  0.8334  1.0000
  H   H6        1.0  0.65935  0.024569999999999995  0.95352  1.0000
  H   H7        1.0  0.8117400000000001  0.69656  0.79756  1.0000
  H   H8        1.0  0.9005600000000001  0.36643  0.55991  1.0000
  H   H9        1.0  0.7932899999999999  0.24182  0.35819  1.0000
  H   H10       1.0  0.21727999999999997  0.09326  0.40489999999999987  1.0000
  H   H11       1.0  0.32008  0.21206  0.6074899999999999  1.0000
  H   H12       1.0  0.9071  0.84811  0.17053999999999997  1.0000
  H   H13       1.0  0.34117  0.96345  0.05183999999999999  1.0000
  H   H14       1.0  0.19371999999999998  0.29769999999999996  0.20504999999999998  1.0000
  C   C1        1.0  0.80886  0.61403  0.29499999999999993  1.0000
  C   C2        1.0  0.8796900000000001  0.6993  0.4087999999999999  1.0000
  C   C3        1.0  0.029799999999999955  0.69106  0.4773699999999999  1.0000
  C   C4        1.0  0.09221999999999994  0.7599999999999999  0.5883799999999999  1.0000
  C   C5        1.0  0.0011899999999999357  0.83426  0.6329199999999999  1.0000
  C   C6        1.0  0.85579  0.8515800000000001  0.5628  1.0000
  C   C7        1.0  0.79643  0.78463  0.45075  1.0000
  C   C8        1.0  0.9568400000000001  0.9212999999999999  0.80542  1.0000
  C   C9        1.0  0.98766  0.06601  0.84609  1.0000
  C   C10       1.0  0.8795000000000002  0.10284999999999998  0.8998799999999999  1.0000
  C   C11       1.0  0.7440200000000001  0.9948  0.91321  1.0000
  C   C12       1.0  0.7204100000000001  0.8479799999999998  0.8783299999999998  1.0000
  C   C13       1.0  0.82815  0.8101  0.82459  1.0000
  C   C14       1.0  0.9081  0.25879  0.94271  1.0000
  C   C15       1.0  0.57702  0.73427  0.89689  1.0000
  C   C16       1.0  0.18811999999999995  0.38226  0.7090899999999999  1.0000
  C   C17       1.0  0.11898  0.30019000000000007  0.59394  1.0000
  C   C18       1.0  0.96767  0.3052  0.52537  1.0000
  C   C19       1.0  0.90775  0.23669  0.41412  1.0000
  C   C20       1.0  0.0020600000000000032  0.16633999999999996  0.36935  1.0000
  C   C21       1.0  0.14941999999999997  0.15344  0.4392599999999999  1.0000
  C   C22       1.0  0.20646000000000006  0.21977999999999998  0.55143  1.0000
  C   C23       1.0  0.04598  0.07475  0.19798  1.0000
  C   C24       1.0  0.013010000000000028  0.92932  0.15824  1.0000
  C   C25       1.0  0.12044999999999996  0.89026  0.10487999999999997  1.0000
  C   C26       1.0  0.25739  0.99607  0.09147999999999998  1.0000
  C   C27       1.0  0.2834900000000001  0.14337  0.12596999999999997  1.0000
  C   C28       1.0  0.17614000000000002  0.18379000000000004  0.17856  1.0000
  C   C29       1.0  0.08945000000000002  0.73395  0.062169999999999996  1.0000
  C   C30       1.0  0.42916  0.25436  0.10848  1.0000
  O   O1        1.0  0.7047299999999999  0.65439  0.21474  1.0000
  O   O2        1.0  0.8544400000000001  0.50044  0.27813999999999994  1.0000
  O   O3        1.0  0.79346  0.2911  0.9714899999999999  1.0000
  O   O4        1.0  0.044200000000000045  0.3477  0.94872  1.0000
  O   O5        1.0  0.45085000000000003  0.7711099999999999  0.89248  1.0000
  O   O6        1.0  0.5847700000000002  0.5998  0.9166699999999999  1.0000
  O   O7        1.0  0.06298  0.88881  0.74734  1.0000
  O   O8        1.0  0.28867  0.33733  0.78925  1.0000
  O   O9        1.0  0.14519  0.49681  0.72733  1.0000
  O   O10       1.0  0.20045  0.70149  0.02813  1.0000
  O   O11       1.0  0.95519  0.64541  0.061489999999999996  1.0000
  O   O12       1.0  0.55581  0.21643  0.11893999999999999  1.0000
  O   O13       1.0  0.42216000000000004  0.38829  0.08343999999999999  1.0000
  O   O14       1.0  0.9407700000000001  0.11084  0.25521  1.0000
