data_image0
_chemical_formula_structural       Ga4P6H12C6O18F2
_chemical_formula_sum              "Ga4 P6 H12 C6 O18 F2"
_cell_length_a       8.74641
_cell_length_b       9.81552
_cell_length_c       10.41449
_cell_angle_alpha    81.37707
_cell_angle_beta     65.47984999999998
_cell_angle_gamma    67.21269

_symmetry_space_group_name_H-M    'P 1'
_symmetry_Int_Tables_number       1

loop_
  _symmetry_equiv_pos_as_xyz
  'x,y,z'

loop_
  _atom_site_type_symbol
  _atom_site_label
  _atom_site_symmetry_multiplicity
  _atom_site_fract_x
  _atom_site_fract_y
  _atom_site_fract_z
  _atom_site_occupancy
  Ga  Ga1       1.0  0.12661  0.14819  0.86694  1.0000
  Ga  Ga2       1.0  0.12152999999999999  0.55065  0.85408  1.0000
  Ga  Ga3       1.0  0.87304  0.85081  0.13392  1.0000
  Ga  Ga4       1.0  0.8773499999999999  0.44896  0.14693999999999996  1.0000
  P   P1        1.0  0.24466000000000004  0.80531  0.88187  1.0000
  P   P2        1.0  0.26758999999999994  0.33248  0.59069  1.0000
  P   P3        1.0  0.7158900000000004  0.71776  0.9874599999999999  1.0000
  P   P4        1.0  0.75507  0.19373  0.11999  1.0000
  P   P5        1.0  0.7317899999999999  0.66673  0.41056  1.0000
  P   P6        1.0  0.28332  0.28176999999999996  0.013809999999999998  1.0000
  H   H1        1.0  0.40937  0.85383  0.0525  1.0000
  H   H2        1.0  0.53448  0.89771  0.8804799999999999  1.0000
  H   H3        1.0  0.9459899999999999  0.36389  0.51102  1.0000
  H   H4        1.0  0.86614  0.49678000000000005  0.65585  1.0000
  H   H5        1.0  0.4511899999999999  0.6093  0.95518  1.0000
  H   H6        1.0  0.5575400000000003  0.6688099999999999  0.7818899999999999  1.0000
  H   H7        1.0  0.5905  0.14639  0.9484899999999999  1.0000
  H   H8        1.0  0.4663999999999999  0.10133999999999999  0.12022  1.0000
  H   H9        1.0  0.052150000000000044  0.63616  0.49127  1.0000
  H   H10       1.0  0.13206000000000018  0.50321  0.34646  1.0000
  H   H11       1.0  0.54967  0.38969  0.046  1.0000
  H   H12       1.0  0.44207  0.331  0.21942  1.0000
  C   C1        1.0  0.5160600000000001  0.805  0.95061  1.0000
  C   C2        1.0  0.94867  0.4617200000000001  0.54609  1.0000
  C   C3        1.0  0.4629600000000003  0.70653  0.88996  1.0000
  C   C4        1.0  0.48364999999999997  0.19462  0.05057  1.0000
  C   C5        1.0  0.049630000000000056  0.53824  0.45621999999999996  1.0000
  C   C6        1.0  0.53689  0.29284  0.11151999999999998  1.0000
  O   O1        1.0  0.24483999999999997  0.9505699999999999  0.80025  1.0000
  O   O2        1.0  0.10990000000000004  0.83979  0.0402  1.0000
  O   O3        1.0  0.20559000000000013  0.70933  0.80461  1.0000
  O   O4        1.0  0.7152099999999999  0.84862  0.0588  1.0000
  O   O5        1.0  0.6868800000000002  0.5916  0.09334  1.0000
  O   O6        1.0  0.8854700000000003  0.66575  0.8485299999999999  1.0000
  O   O7        1.0  0.40107000000000004  0.28707  0.44700999999999996  1.0000
  O   O8        1.0  0.17049000000000006  0.23051  0.68099  1.0000
  O   O9        1.0  0.24118000000000017  0.4680099999999999  0.6610799999999999  1.0000
  O   O10       1.0  0.75506  0.04823  0.20106  1.0000
  O   O11       1.0  0.8896600000000001  0.15969  0.96159  1.0000
  O   O12       1.0  0.7943799999999999  0.28931  0.1976  1.0000
  O   O13       1.0  0.28312000000000004  0.15062  0.9434099999999999  1.0000
  O   O14       1.0  0.31250000000000006  0.40730999999999995  0.9071899999999999  1.0000
  O   O15       1.0  0.1136  0.33463  0.15263  1.0000
  O   O16       1.0  0.5991599999999996  0.71209  0.55454  1.0000
  O   O17       1.0  0.8291000000000001  0.76822  0.31969999999999993  1.0000
  O   O18       1.0  0.75763  0.53143  0.34014  1.0000
  F   F1        1.0  0.0003100000000000719  0.39271  0.9312299999999999  1.0000
  F   F2        1.0  0.9993900000000001  0.6072  0.06896  1.0000
