data_image0
_chemical_formula_structural       Co2H12C16O10
_chemical_formula_sum              "Co2 H12 C16 O10"
_cell_length_a       6.37543
_cell_length_b       9.09873
_cell_length_c       11.150780000000001
_cell_angle_alpha    112.6985
_cell_angle_beta     95.22899000000001
_cell_angle_gamma    106.52193

_symmetry_space_group_name_H-M    'P 1'
_symmetry_Int_Tables_number       1

loop_
  _symmetry_equiv_pos_as_xyz
  'x,y,z'

loop_
  _atom_site_type_symbol
  _atom_site_label
  _atom_site_symmetry_multiplicity
  _atom_site_fract_x
  _atom_site_fract_y
  _atom_site_fract_z
  _atom_site_occupancy
  Co  Co1       1.0  0.99906  0.99787  0.49859  1.0000
  Co  Co2       1.0  0.49873999999999996  0.99808  0.49918000000000007  1.0000
  H   H1        1.0  0.65839  0.7987199999999999  0.56898  1.0000
  H   H2        1.0  0.6544700000000002  0.7365800000000002  0.3795300000000001  1.0000
  H   H3        1.0  0.7034300000000002  0.26042  0.80613  1.0000
  H   H4        1.0  0.40183999999999986  0.5591  0.9839000000000001  1.0000
  H   H5        1.0  0.32570999999999994  0.20867999999999998  0.12413  1.0000
  H   H6        1.0  0.6370399999999999  0.85136  0.12087  1.0000
  H   H7        1.0  0.3392299999999999  0.19708  0.42973  1.0000
  H   H8        1.0  0.34871  0.25981  0.61926  1.0000
  H   H9        1.0  0.29161  0.73545  0.19189  1.0000
  H   H10       1.0  0.5933299999999998  0.43665  0.014000000000000002  1.0000
  H   H11       1.0  0.67099  0.78604  0.8729  1.0000
  H   H12       1.0  0.35936000000000007  0.14243000000000014  0.8759400000000002  1.0000
  C   C1        1.0  0.13052000000000002  0.30426000000000003  0.7618400000000001  1.0000
  C   C2        1.0  0.058870000000000096  0.3997000000000001  0.8841400000000003  1.0000
  C   C3        1.0  0.8290299999999998  0.36508000000000007  0.8913600000000002  1.0000
  C   C4        1.0  0.22606  0.53399  0.99273  1.0000
  C   C5        1.0  0.4632499999999999  0.08154999999999998  0.26939  1.0000
  C   C6        1.0  0.48372999999999994  0.03492999999999999  0.12928  1.0000
  C   C7        1.0  0.39843  0.11786  0.06427  1.0000
  C   C8        1.0  0.58192  0.91405  0.06489  1.0000
  C   C9        1.0  0.8686099999999998  0.6936899999999999  0.23569000000000004  1.0000
  C   C10       1.0  0.9372899999999998  0.59633  0.11344  1.0000
  C   C11       1.0  0.16634  0.63042  0.10615  1.0000
  C   C12       1.0  0.76886  0.4618  0.00524  1.0000
  C   C13       1.0  0.5307199999999999  0.91505  0.72852  1.0000
  C   C14       1.0  0.51247  0.95998  0.86852  1.0000
  C   C15       1.0  0.5999199999999998  0.8781499999999999  0.93368  1.0000
  C   C16       1.0  0.41635999999999995  0.08201000000000006  0.9330000000000002  1.0000
  O   O1        1.0  0.67916  0.83148  0.47694000000000003  1.0000
  O   O2        1.0  0.9740699999999998  0.17015000000000005  0.66693  1.0000
  O   O3        1.0  0.34002999999999994  0.3593  0.7568  1.0000
  O   O4        1.0  0.55213  0.014769999999999981  0.33453  1.0000
  O   O5        1.0  0.35995  0.18609  0.31781  1.0000
  O   O6        1.0  0.31819  0.1648  0.52153  1.0000
  O   O7        1.0  0.025970000000000038  0.82708  0.33026  1.0000
  O   O8        1.0  0.6595099999999999  0.64004  0.242  1.0000
  O   O9        1.0  0.44412  0.98568  0.6656300000000002  1.0000
  O   O10       1.0  0.62793  0.80622  0.67781  1.0000
