data_image0
_chemical_formula_structural       Zn4H36C38N4O16
_chemical_formula_sum              "Zn4 H36 C38 N4 O16"
_cell_length_a       6.48673
_cell_length_b       6.488509999999999
_cell_length_c       28.5052
_cell_angle_alpha    89.92946
_cell_angle_beta     89.92556
_cell_angle_gamma    81.49991000000001

_space_group_name_H-M_alt    "P 1"
_space_group_IT_number       1

loop_
  _space_group_symop_operation_xyz
  'x, y, z'

loop_
  _atom_site_type_symbol
  _atom_site_label
  _atom_site_symmetry_multiplicity
  _atom_site_fract_x
  _atom_site_fract_y
  _atom_site_fract_z
  _atom_site_occupancy
  Zn  Zn1       1.0  0.28916  0.04493  0.70909  1.0000
  Zn  Zn2       1.0  0.9550600000000001  0.71013  0.29086  1.0000
  Zn  Zn3       1.0  0.46462  0.18343999999999996  0.20728  1.0000
  Zn  Zn4       1.0  0.8164499999999998  0.53538  0.79273  1.0000
  H   H1        1.0  0.395  0.11972  0.8501  1.0000
  H   H2        1.0  0.38112  0.94616  0.80079  1.0000
  H   H3        1.0  0.418  0.66807  0.61032  1.0000
  H   H4        1.0  0.44897000000000004  0.41936999999999997  0.67737  1.0000
  H   H5        1.0  0.02047  0.07981  0.6201900000000001  1.0000
  H   H6        1.0  0.96837  0.31418  0.54952  1.0000
  H   H7        1.0  0.022050000000000018  0.6432899999999999  0.51285  1.0000
  H   H8        1.0  0.13344  0.82227  0.54822  1.0000
  H   H9        1.0  0.3629  0.50347  0.47943  1.0000
  H   H10       1.0  0.88032  0.60454  0.14992  1.0000
  H   H11       1.0  0.05410000000000001  0.61881  0.19915  1.0000
  H   H12       1.0  0.33171  0.58196  0.38976  1.0000
  H   H13       1.0  0.5803599999999998  0.55044  0.32269  1.0000
  H   H14       1.0  0.92062  0.97867  0.37971  1.0000
  H   H15       1.0  0.68617  0.03147  0.45039  1.0000
  H   H16       1.0  0.35677000000000003  0.97791  0.48717  1.0000
  H   H17       1.0  0.17771  0.8666  0.4518  1.0000
  H   H18       1.0  0.4966799999999999  0.63715  0.52057  1.0000
  H   H19       1.0  0.36584  0.13922  0.34983  1.0000
  H   H20       1.0  0.54868  0.14099  0.3019  1.0000
  H   H21       1.0  0.83659  0.07308  0.10922  1.0000
  H   H22       1.0  0.08820999999999998  0.03384  0.17563  1.0000
  H   H23       1.0  0.42884  0.46498  0.11951  1.0000
  H   H24       1.0  0.18990999999999994  0.527  0.04988  1.0000
  H   H25       1.0  0.8594499999999999  0.47481  0.01303  1.0000
  H   H26       1.0  0.6813299999999998  0.36222  0.04864  1.0000
  H   H27       1.0  0.99998  0.13433  0.97944  1.0000
  H   H28       1.0  0.85994  0.6338399999999998  0.65017  1.0000
  H   H29       1.0  0.8579099999999997  0.45129  0.69811  1.0000
  H   H30       1.0  0.9269099999999999  0.16345  0.89078  1.0000
  H   H31       1.0  0.96619  0.9117599999999998  0.82439  1.0000
  H   H32       1.0  0.53495  0.57131  0.88055  1.0000
  H   H33       1.0  0.47289  0.81024  0.95017  1.0000
  H   H34       1.0  0.52508  0.1406  0.987  1.0000
  H   H35       1.0  0.63776  0.31865  0.95139  1.0000
  H   H36       1.0  0.86568  0.00011  0.02058  1.0000
  C   C1        1.0  0.15417  0.22518  0.79947  1.0000
  C   C2        1.0  0.36625  0.10895999999999997  0.81247  1.0000
  C   C3        1.0  0.51936  0.21901  0.7844700000000001  1.0000
  C   C4        1.0  0.32923  0.53813  0.60973  1.0000
  C   C5        1.0  0.3477  0.40164  0.64764  1.0000
  C   C6        1.0  0.10652  0.2108  0.61564  1.0000
  C   C7        1.0  0.07950999999999998  0.34179999999999994  0.57662  1.0000
  C   C8        1.0  0.19059  0.51104  0.57333  1.0000
  C   C9        1.0  0.16193  0.66377  0.53322  1.0000
  C   C10       1.0  0.7749599999999998  0.8455299999999999  0.20055  1.0000
  C   C11       1.0  0.8911899999999998  0.63349  0.18753000000000003  1.0000
  C   C12       1.0  0.78124  0.48041  0.21552  1.0000
  C   C13       1.0  0.46175999999999995  0.6706199999999999  0.39031000000000005  1.0000
  C   C14       1.0  0.5982599999999998  0.65179  0.35239  1.0000
  C   C15       1.0  0.78946  0.8928399999999999  0.3843  1.0000
  C   C16       1.0  0.6583999999999999  0.92023  0.4233300000000001  1.0000
  C   C17       1.0  0.48901  0.80936  0.42666  1.0000
  C   C18       1.0  0.33627999999999997  0.8381  0.46679  1.0000
  C   C19       1.0  0.2688999999999999  0.36439999999999995  0.29499000000000003  1.0000
  C   C20       1.0  0.3837999999999999  0.15627  0.31195  1.0000
  C   C21       1.0  0.27927  0.99488  0.28602  1.0000
  C   C22       1.0  0.9671899999999998  0.16101  0.10883  1.0000
  C   C23       1.0  0.10593999999999998  0.13734  0.14625  1.0000
  C   C24       1.0  0.29705  0.38015  0.11492  1.0000
  C   C25       1.0  0.16359999999999994  0.41267  0.07641  1.0000
  C   C26       1.0  0.9935699999999998  0.30277  0.07301  1.0000
  C   C27       1.0  0.83947  0.33427  0.03329  1.0000
  C   C28       1.0  0.6351799999999999  0.7312  0.70505  1.0000
  C   C29       1.0  0.8430299999999997  0.61607  0.68806  1.0000
  C   C30       1.0  0.004699999999999994  0.7204  0.71392  1.0000
  C   C31       1.0  0.83896  0.03288  0.89119  1.0000
  C   C32       1.0  0.8626399999999997  0.8941  0.8537800000000001  1.0000
  C   C33       1.0  0.6197800000000002  0.70307  0.8851300000000001  1.0000
  C   C34       1.0  0.5872500000000002  0.8365399999999998  0.92363  1.0000
  C   C35       1.0  0.69718  0.006529999999999999  0.92702  1.0000
  C   C36       1.0  0.66569  0.16056999999999996  0.96674  1.0000
  C   C37       1.0  0.35162  0.6484499999999999  0.50001  1.0000
  C   C38       1.0  0.8546199999999999  0.14539  1e-05  1.0000
  N   N1        1.0  0.23773999999999995  0.24104999999999993  0.6507800000000001  1.0000
  N   N2        1.0  0.7590499999999999  0.7614999999999998  0.34921  1.0000
  N   N3        1.0  0.26823  0.24485  0.14937  1.0000
  N   N4        1.0  0.75511  0.73184  0.8506700000000003  1.0000
  O   O1        1.0  0.08382  0.1979  0.7584500000000002  1.0000
  O   O2        1.0  0.06171999999999998  0.3545499999999999  0.82875  1.0000
  O   O3        1.0  0.5216400000000001  0.19873  0.74027  1.0000
  O   O4        1.0  0.62519  0.33154  0.80826  1.0000
  O   O5        1.0  0.80208  0.91582  0.24157  1.0000
  O   O6        1.0  0.64562  0.93809  0.17124  1.0000
  O   O7        1.0  0.8014199999999999  0.47802  0.25969  1.0000
  O   O8        1.0  0.66848  0.37464  0.1917  1.0000
  O   O9        1.0  0.29268  0.41524  0.2525  1.0000
  O   O10       1.0  0.14602999999999997  0.46907  0.32399000000000006  1.0000
  O   O11       1.0  0.31320999999999993  0.96924  0.24236  1.0000
  O   O12       1.0  0.15400999999999998  0.90543  0.31025  1.0000
  O   O13       1.0  0.5844699999999998  0.70749  0.74756  1.0000
  O   O14       1.0  0.5305499999999999  0.8541599999999999  0.67605  1.0000
  O   O15       1.0  0.03063  0.68652  0.75761  1.0000
  O   O16       1.0  0.09425999999999998  0.84561  0.6897000000000001  1.0000
