data_image0
_chemical_formula_structural       Gd2H6C12O14
_chemical_formula_sum              "Gd2 H6 C12 O14"
_cell_length_a       6.07921
_cell_length_b       9.579450000000001
_cell_length_c       10.24577
_cell_angle_alpha    93.92407
_cell_angle_beta     73.07875
_cell_angle_gamma    78.39671

_symmetry_space_group_name_H-M    'P 1'
_symmetry_Int_Tables_number       1

loop_
  _symmetry_equiv_pos_as_xyz
  'x,y,z'

loop_
  _atom_site_type_symbol
  _atom_site_label
  _atom_site_symmetry_multiplicity
  _atom_site_fract_x
  _atom_site_fract_y
  _atom_site_fract_z
  _atom_site_occupancy
  Gd  Gd1       1.0  0.3162200000000001  0.9684699999999999  0.6948999999999999  1.0000
  Gd  Gd2       1.0  0.6837599999999999  0.0315  0.30512  1.0000
  H   H1        1.0  0.7109900000000001  0.053460000000000014  0.7758899999999999  1.0000
  H   H2        1.0  0.2689800000000001  0.89422  0.37024  1.0000
  H   H3        1.0  0.289  0.94654  0.22413  1.0000
  H   H4        1.0  0.7309299999999997  0.1058  0.62978  1.0000
  H   H5        1.0  0.2698499999999999  0.47232  0.6423099999999999  1.0000
  H   H6        1.0  0.73009  0.5277099999999999  0.35768999999999995  1.0000
  C   C1        1.0  0.16511  0.74045  0.59327  1.0000
  C   C2        1.0  0.07710000000000007  0.61873  0.54381  1.0000
  C   C3        1.0  0.8348700000000001  0.25955  0.40674999999999994  1.0000
  C   C4        1.0  0.9222599999999999  0.63638  0.46403999999999995  1.0000
  C   C5        1.0  0.16433999999999993  0.22395999999999996  0.58231  1.0000
  C   C6        1.0  0.11303000000000013  0.9983399999999999  0.02181  1.0000
  C   C7        1.0  0.07774000000000002  0.36362  0.53594  1.0000
  C   C8        1.0  0.84704  0.51752  0.42096  1.0000
  C   C9        1.0  0.15294  0.4824899999999999  0.57903  1.0000
  C   C10       1.0  0.88708  0.0012399999999999978  0.97817  1.0000
  C   C11       1.0  0.83566  0.77605  0.41767000000000004  1.0000
  C   C12       1.0  0.92289  0.38127  0.4561799999999999  1.0000
  O   O1        1.0  0.07883999999999998  0.01942  0.15036  1.0000
  O   O2        1.0  0.6422299999999999  0.8627499999999999  0.4929299999999999  1.0000
  O   O3        1.0  0.7210299999999996  0.27734  0.32007  1.0000
  O   O4        1.0  0.056340000000000015  0.19625  0.69951  1.0000
  O   O5        1.0  0.87748  0.1377  0.45144  1.0000
  O   O6        1.0  0.9211699999999999  0.9806299999999999  0.84959  1.0000
  O   O7        1.0  0.38111000000000006  0.9161499999999999  0.28751  1.0000
  O   O8        1.0  0.3089299999999999  0.97642  0.92803  1.0000
  O   O9        1.0  0.69132  0.02258  0.07193  1.0000
  O   O10       1.0  0.12252  0.8623  0.5485999999999999  1.0000
  O   O11       1.0  0.27894  0.72264  0.67995  1.0000
  O   O12       1.0  0.3577599999999999  0.13725  0.50707  1.0000
  O   O13       1.0  0.6188400000000001  0.08386  0.71253  1.0000
  O   O14       1.0  0.94367  0.8037799999999998  0.30050999999999994  1.0000
