data_image0
_chemical_formula_structural       Zn6H36C24N18
_chemical_formula_sum              "Zn6 H36 C24 N18"
_cell_length_a       9.53639
_cell_length_b       12.08619
_cell_length_c       12.2623
_cell_angle_alpha    114.11326
_cell_angle_beta     105.74611000000002
_cell_angle_gamma    104.85809

_symmetry_space_group_name_H-M    'P 1'
_symmetry_Int_Tables_number       1

loop_
  _symmetry_equiv_pos_as_xyz
  'x,y,z'

loop_
  _atom_site_type_symbol
  _atom_site_label
  _atom_site_symmetry_multiplicity
  _atom_site_fract_x
  _atom_site_fract_y
  _atom_site_fract_z
  _atom_site_occupancy
  Zn  Zn1       1.0  0.68711  0.49371  0.97289  1.0000
  Zn  Zn2       1.0  0.1951599999999999  0.47839999999999994  0.5139599999999999  1.0000
  Zn  Zn3       1.0  0.7097399999999999  0.03410000000000001  0.51849  1.0000
  Zn  Zn4       1.0  0.3128299999999999  0.50625  0.027079999999999993  1.0000
  Zn  Zn5       1.0  0.8047399999999999  0.52164  0.48616  1.0000
  Zn  Zn6       1.0  0.2902399999999999  0.9659599999999999  0.48146999999999995  1.0000
  H   H1        1.0  0.19438999999999984  0.66369  0.9230099999999998  1.0000
  H   H2        1.0  0.24038  0.73469  0.82785  1.0000
  H   H3        1.0  0.07833000000000005  0.5770200000000002  0.74783  1.0000
  H   H4        1.0  0.63678  0.42033000000000004  0.6996  1.0000
  H   H5        1.0  0.45760999999999996  0.35358000000000006  0.55564  1.0000
  H   H6        1.0  0.60372  0.51823  0.62789  1.0000
  H   H7        1.0  0.52721  0.25274  0.32863  1.0000
  H   H8        1.0  0.5062399999999999  0.08454  0.26061  1.0000
  H   H9        1.0  0.49711  0.16497000000000003  0.41368  1.0000
  H   H10       1.0  0.21631  0.27863  0.58676  1.0000
  H   H11       1.0  0.10455999999999996  0.20834  0.65529  1.0000
  H   H12       1.0  0.08592999999999998  0.10635000000000003  0.49369999999999997  1.0000
  H   H13       1.0  0.27688  0.07512999999999999  0.74051  1.0000
  H   H14       1.0  0.42361999999999983  0.1686399999999999  0.9080199999999999  1.0000
  H   H15       1.0  0.33971999999999997  0.25139999999999996  0.8379799999999998  1.0000
  H   H16       1.0  0.9320099999999999  0.32958000000000004  0.7189599999999999  1.0000
  H   H17       1.0  0.9107199999999999  0.4639700000000001  0.83717  1.0000
  H   H18       1.0  0.9921399999999999  0.3652500000000001  0.8844499999999998  1.0000
  H   H19       1.0  0.80563  0.33625  0.07692999999999998  1.0000
  H   H20       1.0  0.7595799999999998  0.26528  0.17211  1.0000
  H   H21       1.0  0.9216999999999995  0.42292  0.25210999999999995  1.0000
  H   H22       1.0  0.36317  0.57954  0.30028999999999995  1.0000
  H   H23       1.0  0.54233  0.64634  0.4443  1.0000
  H   H24       1.0  0.39634  0.48164000000000007  0.372  1.0000
  H   H25       1.0  0.47284999999999994  0.7471999999999999  0.6713899999999999  1.0000
  H   H26       1.0  0.4937500000000001  0.9154  0.7394  1.0000
  H   H27       1.0  0.5030099999999997  0.8350000000000001  0.58638  1.0000
  H   H28       1.0  0.7837599999999999  0.72136  0.41336999999999996  1.0000
  H   H29       1.0  0.8954099999999999  0.79161  0.34476  1.0000
  H   H30       1.0  0.9142399999999998  0.89363  0.5063899999999999  1.0000
  H   H31       1.0  0.7232099999999999  0.92492  0.25952  1.0000
  H   H32       1.0  0.57644  0.83141  0.09202999999999999  1.0000
  H   H33       1.0  0.6603799999999997  0.74866  0.16202  1.0000
  H   H34       1.0  0.06807999999999992  0.67049  0.28106999999999993  1.0000
  H   H35       1.0  0.08930999999999996  0.53606  0.16282  1.0000
  H   H36       1.0  0.00800999999999999  0.63486  0.11558999999999998  1.0000
  C   C1        1.0  0.19977  0.64142  0.82847  1.0000
  C   C2        1.0  0.31156999999999996  0.5768399999999999  0.8098999999999998  1.0000
  C   C3        1.0  0.4632799999999999  0.49312  0.7348799999999999  1.0000
  C   C4        1.0  0.5446699999999999  0.444  0.65051  1.0000
  C   C5        1.0  0.5563  0.18098  0.35247999999999996  1.0000
  C   C6        1.0  0.73309  0.22966000000000006  0.42057  1.0000
  C   C7        1.0  0.9690899999999999  0.24016  0.51018  1.0000
  C   C8        1.0  0.10038999999999994  0.20669999999999997  0.5641499999999999  1.0000
  C   C9        1.0  0.37967999999999996  0.17025999999999988  0.8163699999999999  1.0000
  C   C10       1.0  0.5086999999999997  0.1918699999999999  0.7713099999999998  1.0000
  C   C11       1.0  0.7345999999999998  0.2724000000000001  0.76453  1.0000
  C   C12       1.0  0.8999899999999997  0.36138  0.8024  1.0000
  C   C13       1.0  0.80025  0.3585400000000001  0.17147999999999997  1.0000
  C   C14       1.0  0.6885299999999999  0.42319  0.19009  1.0000
  C   C15       1.0  0.53681  0.50689  0.2650799999999999  1.0000
  C   C16       1.0  0.4553199999999999  0.5559199999999999  0.34941  1.0000
  C   C17       1.0  0.44375  0.8189600000000001  0.64754  1.0000
  C   C18       1.0  0.26696  0.7702700000000001  0.57938  1.0000
  C   C19       1.0  0.03097999999999999  0.75976  0.48981  1.0000
  C   C20       1.0  0.89966  0.79326  0.4359199999999999  1.0000
  C   C21       1.0  0.62042  0.82979  0.18366999999999997  1.0000
  C   C22       1.0  0.49143  0.80813  0.22876  1.0000
  C   C23       1.0  0.26554  0.7276200000000003  0.23552999999999996  1.0000
  C   C24       1.0  0.10008999999999998  0.63868  0.19763  1.0000
  N   N1        1.0  0.48029  0.48767  0.84472  1.0000
  N   N2        1.0  0.38234999999999997  0.5413400000000002  0.8922999999999999  1.0000
  N   N3        1.0  0.3587799999999999  0.54787  0.7095499999999999  1.0000
  N   N4        1.0  0.99113  0.35518  0.51155  1.0000
  N   N5        1.0  0.8392999999999997  0.34811  0.45425999999999994  1.0000
  N   N6        1.0  0.8095399999999998  0.15925  0.45437  1.0000
  N   N7        1.0  0.63927  0.15975000000000003  0.64661  1.0000
  N   N8        1.0  0.49444  0.10864000000000001  0.65186  1.0000
  N   N9        1.0  0.65714  0.29586  0.84478  1.0000
  N   N10       1.0  0.5200099999999998  0.51259  0.15539  1.0000
  N   N11       1.0  0.6179599999999998  0.45893  0.10782  1.0000
  N   N12       1.0  0.6411599999999998  0.4520000000000001  0.29033999999999993  1.0000
  N   N13       1.0  0.00889  0.64461  0.48815  1.0000
  N   N14       1.0  0.16073  0.65168  0.54542  1.0000
  N   N15       1.0  0.19053999999999996  0.84076  0.54577  1.0000
  N   N16       1.0  0.36094999999999994  0.84011  0.3535499999999999  1.0000
  N   N17       1.0  0.5057799999999999  0.89121  0.34831  1.0000
  N   N18       1.0  0.34293000000000007  0.7042500000000002  0.15523  1.0000
