data_image0
_chemical_formula_structural       Mg6H18C42N6O24
_chemical_formula_sum              "Mg6 H18 C42 N6 O24"
_cell_length_a       11.7304
_cell_length_b       11.727549999999999
_cell_length_c       14.59332
_cell_angle_alpha    90.0
_cell_angle_beta     90.0
_cell_angle_gamma    119.96991

_space_group_name_H-M_alt    "P 1"
_space_group_IT_number       1

loop_
  _space_group_symop_operation_xyz
  'x, y, z'

loop_
  _atom_site_type_symbol
  _atom_site_label
  _atom_site_symmetry_multiplicity
  _atom_site_fract_x
  _atom_site_fract_y
  _atom_site_fract_z
  _atom_site_occupancy
  Mg  Mg1       1.0  0.20436  0.40878  0.24999  1.0000
  Mg  Mg2       1.0  0.59119  0.79569  0.58331  1.0000
  Mg  Mg3       1.0  0.20438  0.79577  0.9167  1.0000
  Mg  Mg4       1.0  0.7956399999999999  0.59123  0.75  1.0000
  Mg  Mg5       1.0  0.40881  0.20431  0.08331  1.0000
  Mg  Mg6       1.0  0.79562  0.20422999999999997  0.4167  1.0000
  H   H1        1.0  0.19573  0.5596  0.01925  1.0000
  H   H2        1.0  0.44029999999999997  0.63607  0.35269  1.0000
  H   H3        1.0  0.36376999999999987  0.8041699999999999  0.6858799999999998  1.0000
  H   H4        1.0  0.80427  0.4404  0.51925  1.0000
  H   H5        1.0  0.5596999999999998  0.36393  0.85269  1.0000
  H   H6        1.0  0.63623  0.19583  0.18588  1.0000
  H   H7        1.0  0.55968  0.19575  0.31413  1.0000
  H   H8        1.0  0.63621  0.4405  0.98069  1.0000
  H   H9        1.0  0.80413  0.36383999999999994  0.64737  1.0000
  H   H10       1.0  0.44031999999999993  0.80425  0.81413  1.0000
  H   H11       1.0  0.3637999999999999  0.5594999999999999  0.48069  1.0000
  H   H12       1.0  0.19587999999999992  0.63616  0.14737  1.0000
  H   H13       1.0  0.50295  0.49685999999999997  0.9167  1.0000
  H   H14       1.0  0.50296  0.00599  0.24996  1.0000
  H   H15       1.0  0.99403  0.49696  0.58335  1.0000
  H   H16       1.0  0.4970499999999999  0.5031399999999999  0.4167  1.0000
  H   H17       1.0  0.49705  0.99401  0.74996  1.0000
  H   H18       1.0  0.005980000000000018  0.50304  0.08334  1.0000
  C   C1        1.0  0.31587  0.41546  0.05332  1.0000
  C   C2        1.0  0.3487899999999999  0.5185099999999999  0.9801  1.0000
  C   C3        1.0  0.27987  0.58693  0.97503  1.0000
  C   C4        1.0  0.58436  0.90044  0.38665  1.0000
  C   C5        1.0  0.48136999999999996  0.8302399999999999  0.31346999999999997  1.0000
  C   C6        1.0  0.41301  0.69292  0.30843  1.0000
  C   C7        1.0  0.09954000000000002  0.68402  0.71999  1.0000
  C   C8        1.0  0.16971999999999998  0.65116  0.64676  1.0000
  C   C9        1.0  0.30696  0.72003  0.64165  1.0000
  C   C10       1.0  0.68413  0.58454  0.55332  1.0000
  C   C11       1.0  0.65122  0.48149  0.4801  1.0000
  C   C12       1.0  0.72014  0.41306999999999994  0.47503  1.0000
  C   C13       1.0  0.41564999999999996  0.09957  0.88666  1.0000
  C   C14       1.0  0.51864  0.16976  0.81347  1.0000
  C   C15       1.0  0.587  0.30709  0.80843  1.0000
  C   C16       1.0  0.9004599999999999  0.3159699999999999  0.21999  1.0000
  C   C17       1.0  0.83029  0.34884  0.14676  1.0000
  C   C18       1.0  0.69305  0.27997  0.14165  1.0000
  C   C19       1.0  0.41558  0.31604  0.28004  1.0000
  C   C20       1.0  0.5185900000000001  0.34887  0.35326  1.0000
  C   C21       1.0  0.58699  0.27993  0.35834  1.0000
  C   C22       1.0  0.90042  0.58459  0.9467  1.0000
  C   C23       1.0  0.8302699999999998  0.48151  0.01989  1.0000
  C   C24       1.0  0.6930099999999999  0.41313999999999995  0.024929999999999997  1.0000
  C   C25       1.0  0.68391  0.09952  0.6133299999999999  1.0000
  C   C26       1.0  0.65112  0.16974  0.6865399999999999  1.0000
  C   C27       1.0  0.72005  0.30705  0.69163  1.0000
  C   C28       1.0  0.58442  0.68396  0.78004  1.0000
  C   C29       1.0  0.48140999999999995  0.65113  0.85326  1.0000
  C   C30       1.0  0.41301  0.72007  0.8583399999999998  1.0000
  C   C31       1.0  0.09957999999999997  0.41541  0.44669999999999993  1.0000
  C   C32       1.0  0.1697399999999999  0.5184899999999999  0.51989  1.0000
  C   C33       1.0  0.30699999999999994  0.5868599999999999  0.52493  1.0000
  C   C34       1.0  0.31609000000000004  0.90048  0.11333  1.0000
  C   C35       1.0  0.34888  0.83026  0.18654  1.0000
  C   C36       1.0  0.27996  0.69295  0.19162  1.0000
  C   C37       1.0  0.4495499999999999  0.5503299999999999  0.91669  1.0000
  C   C38       1.0  0.44954999999999995  0.89914  0.24998  1.0000
  C   C39       1.0  0.10081999999999992  0.5503699999999999  0.58333  1.0000
  C   C40       1.0  0.55045  0.44967  0.41668999999999995  1.0000
  C   C41       1.0  0.55045  0.10087  0.74999  1.0000
  C   C42       1.0  0.89918  0.44963  0.08332999999999999  1.0000
  N   N1        1.0  0.3122  0.68779  0.9166799999999999  1.0000
  N   N2        1.0  0.31224999999999997  0.6244499999999998  0.25004  1.0000
  N   N3        1.0  0.37548  0.68771  0.58329  1.0000
  N   N4        1.0  0.68781  0.31221  0.41667  1.0000
  N   N5        1.0  0.68775  0.37555  0.75004  1.0000
  N   N6        1.0  0.62452  0.31228999999999996  0.08329  1.0000
  O   O1        1.0  0.22866  0.40006  0.11114  1.0000
  O   O2        1.0  0.37962999999999997  0.3544999999999999  0.05048  1.0000
  O   O3        1.0  0.5999599999999999  0.8287199999999999  0.44446  1.0000
  O   O4        1.0  0.6451  0.02515  0.38378  1.0000
  O   O5        1.0  0.17134999999999995  0.77131  0.77783  1.0000
  O   O6        1.0  0.9749499999999999  0.62024  0.71716  1.0000
  O   O7        1.0  0.77134  0.59994  0.61114  1.0000
  O   O8        1.0  0.62037  0.6455  0.55048  1.0000
  O   O9        1.0  0.40005  0.17128  0.94447  1.0000
  O   O10       1.0  0.35490000000000005  0.9748499999999999  0.8837799999999999  1.0000
  O   O11       1.0  0.82866  0.22869  0.27782  1.0000
  O   O12       1.0  0.02505999999999996  0.37975999999999993  0.21716  1.0000
  O   O13       1.0  0.40011  0.22871999999999998  0.22219999999999995  1.0000
  O   O14       1.0  0.35478  0.37992  0.28286  1.0000
  O   O15       1.0  0.8285999999999999  0.59998  0.88884  1.0000
  O   O16       1.0  0.025040000000000003  0.64556  0.94955  1.0000
  O   O17       1.0  0.7712399999999999  0.17124  0.55553  1.0000
  O   O18       1.0  0.61997  0.97486  0.61618  1.0000
  O   O19       1.0  0.59989  0.77129  0.7221999999999997  1.0000
  O   O20       1.0  0.64522  0.62008  0.78286  1.0000
  O   O21       1.0  0.17141000000000003  0.40002999999999994  0.38883  1.0000
  O   O22       1.0  0.97496  0.35444  0.44955  1.0000
  O   O23       1.0  0.22875999999999988  0.8287599999999999  0.05552  1.0000
  O   O24       1.0  0.38003  0.025139999999999996  0.11617999999999998  1.0000
