data_image0
_chemical_formula_structural       Zn2H28C36N4O8
_chemical_formula_sum              "Zn2 H28 C36 N4 O8"
_cell_length_a       4.74932
_cell_length_b       9.37652
_cell_length_c       18.80788
_cell_angle_alpha    68.80356
_cell_angle_beta     82.952
_cell_angle_gamma    76.26987

_space_group_name_H-M_alt    "P 1"
_space_group_IT_number       1

loop_
  _space_group_symop_operation_xyz
  'x, y, z'

loop_
  _atom_site_type_symbol
  _atom_site_label
  _atom_site_symmetry_multiplicity
  _atom_site_fract_x
  _atom_site_fract_y
  _atom_site_fract_z
  _atom_site_occupancy
  Zn  Zn1       1.0  0.3520900000000001  0.25337  0.7506  1.0000
  Zn  Zn2       1.0  0.64788  0.7466199999999998  0.24940000000000004  1.0000
  H   H1        1.0  0.8162399999999997  0.88868  0.6893700000000003  1.0000
  H   H2        1.0  0.5685100000000001  0.20161999999999997  0.61484  1.0000
  H   H3        1.0  0.45699  0.08530000000000003  0.52353  1.0000
  H   H4        1.0  0.9440999999999999  0.022039999999999962  0.77262  1.0000
  H   H5        1.0  0.6914700000000001  0.8362899999999996  0.9985300000000001  1.0000
  H   H6        1.0  0.9324499999999999  0.84065  0.55413  1.0000
  H   H7        1.0  0.9166800000000003  0.14060999999999996  0.9257100000000001  1.0000
  H   H8        1.0  0.4122499999999999  0.6161899999999998  0.8102900000000002  1.0000
  H   H9        1.0  0.38273999999999997  0.3009199999999999  0.88744  1.0000
  H   H10       1.0  0.06146000000000002  0.40857999999999983  0.9802100000000001  1.0000
  H   H11       1.0  0.7544099999999999  0.48643999999999976  0.7265000000000003  1.0000
  H   H12       1.0  0.5365199999999998  0.6634  0.50094  1.0000
  H   H13       1.0  0.33976000000000006  0.6597699999999999  0.94519  1.0000
  H   H14       1.0  0.9781100000000003  0.3600899999999999  0.5747800000000001  1.0000
  H   H15       1.0  0.18374000000000001  0.11130999999999999  0.31064  1.0000
  H   H16       1.0  0.4314700000000001  0.7983699999999998  0.3851700000000001  1.0000
  H   H17       1.0  0.54299  0.9147  0.47648000000000007  1.0000
  H   H18       1.0  0.05588999999999987  0.97793  0.22739000000000006  1.0000
  H   H19       1.0  0.30855  0.16368  0.00149  1.0000
  H   H20       1.0  0.06753  0.15934999999999988  0.4458800000000001  1.0000
  H   H21       1.0  0.08325000000000005  0.8593799999999999  0.07429000000000002  1.0000
  H   H22       1.0  0.58774  0.38381000000000004  0.18972  1.0000
  H   H23       1.0  0.6172499999999999  0.69907  0.11257  1.0000
  H   H24       1.0  0.9385399999999999  0.59142  0.0198  1.0000
  H   H25       1.0  0.2456000000000001  0.5135499999999998  0.2735100000000001  1.0000
  H   H26       1.0  0.4634999999999999  0.33657999999999993  0.4990700000000001  1.0000
  H   H27       1.0  0.66025  0.34022  0.05482  1.0000
  H   H28       1.0  0.0219  0.63989  0.42523  1.0000
  C   C1        1.0  0.9719399999999999  0.9642099999999999  0.66915  1.0000
  C   C2        1.0  0.41347999999999996  0.12626999999999983  0.6297200000000002  1.0000
  C   C3        1.0  0.54815  0.007900000000000004  0.8892100000000001  1.0000
  C   C4        1.0  0.10778999999999986  0.99146  0.59559  1.0000
  C   C5        1.0  0.33759999999999996  0.06788000000000002  0.57812  1.0000
  C   C6        1.0  0.05283  0.030759999999999944  0.71731  1.0000
  C   C7        1.0  0.9102099999999999  0.027059999999999904  0.9688300000000001  1.0000
  C   C8        1.0  0.7069299999999998  0.95257  0.9602600000000001  1.0000
  C   C9        1.0  0.0013999999999999746  0.95178  0.53699  1.0000
  C   C10       1.0  0.6181699999999999  0.5399299999999998  0.8309000000000002  1.0000
  C   C11       1.0  0.1710399999999999  0.3759399999999999  0.8724300000000003  1.0000
  C   C12       1.0  0.45016999999999996  0.49387999999999993  0.6110000000000002  1.0000
  C   C13       1.0  0.70267  0.5097099999999999  0.9053400000000003  1.0000
  C   C14       1.0  0.9851899999999999  0.4312799999999998  0.9242400000000001  1.0000
  C   C15       1.0  0.81233  0.4754  0.78271  1.0000
  C   C16       1.0  0.9059999999999998  0.47313999999999995  0.53137  1.0000
  C   C17       1.0  0.6248299999999999  0.5479500000000002  0.53978  1.0000
  C   C18       1.0  0.4957299999999999  0.5484999999999999  0.9630400000000001  1.0000
  C   C19       1.0  0.02804  0.03577999999999994  0.33085000000000003  1.0000
  C   C20       1.0  0.5865000000000001  0.87372  0.37029  1.0000
  C   C21       1.0  0.4518100000000001  0.99196  0.11082000000000002  1.0000
  C   C22       1.0  0.8921899999999998  0.008530000000000008  0.40441  1.0000
  C   C23       1.0  0.6623799999999999  0.9321199999999998  0.42188  1.0000
  C   C24       1.0  0.94715  0.96922  0.2827  1.0000
  C   C25       1.0  0.08973000000000005  0.97293  0.031170000000000003  1.0000
  C   C26       1.0  0.29302  0.0474  0.03976  1.0000
  C   C27       1.0  0.99858  0.04821999999999995  0.46301000000000003  1.0000
  C   C28       1.0  0.38181999999999994  0.46006  0.16910000000000006  1.0000
  C   C29       1.0  0.8289600000000001  0.62405  0.12758  1.0000
  C   C30       1.0  0.54984  0.50611  0.38901  1.0000
  C   C31       1.0  0.29732  0.49027999999999994  0.09467000000000002  1.0000
  C   C32       1.0  0.014810000000000016  0.56871  0.07577000000000002  1.0000
  C   C33       1.0  0.18767000000000003  0.5246  0.2173  1.0000
  C   C34       1.0  0.09402000000000003  0.5268399999999999  0.46864  1.0000
  C   C35       1.0  0.3752  0.45203999999999994  0.46023  1.0000
  C   C36       1.0  0.5042700000000001  0.4514899999999999  0.036960000000000014  1.0000
  N   N1        1.0  0.26156000000000007  0.11469000000000008  0.69705  1.0000
  N   N2        1.0  0.07897999999999993  0.39107999999999987  0.8039000000000002  1.0000
  N   N3        1.0  0.73842  0.8853000000000001  0.30296  1.0000
  N   N4        1.0  0.92102  0.60892  0.19610000000000005  1.0000
  O   O1        1.0  0.61302  0.13437999999999986  0.8360000000000001  1.0000
  O   O2        1.0  0.36990999999999996  0.93505  0.88212  1.0000
  O   O3        1.0  0.5856900000000002  0.37028999999999995  0.66492  1.0000
  O   O4        1.0  0.19454000000000002  0.5643799999999999  0.61776  1.0000
  O   O5        1.0  0.38684000000000013  0.8655099999999999  0.16402000000000003  1.0000
  O   O6        1.0  0.63023  0.06472999999999998  0.11789  1.0000
  O   O7        1.0  0.41429999999999995  0.6296900000000001  0.33509  1.0000
  O   O8        1.0  0.80548  0.43560999999999994  0.38224  1.0000
