data_image0
_chemical_formula_structural       Cu4H28C34N20O8
_chemical_formula_sum              "Cu4 H28 C34 N20 O8"
_cell_length_a       9.19919
_cell_length_b       9.266009999999998
_cell_length_c       14.113839999999998
_cell_angle_alpha    109.22825000000002
_cell_angle_beta     103.73069
_cell_angle_gamma    90.01099

_space_group_name_H-M_alt    "P 1"
_space_group_IT_number       1

loop_
  _space_group_symop_operation_xyz
  'x, y, z'

loop_
  _atom_site_type_symbol
  _atom_site_label
  _atom_site_symmetry_multiplicity
  _atom_site_fract_x
  _atom_site_fract_y
  _atom_site_fract_z
  _atom_site_occupancy
  Cu  Cu1       1.0  0.943  0.62802  0.6279  1.0000
  Cu  Cu2       1.0  0.55793  0.99924  0.37219  1.0000
  Cu  Cu3       1.0  0.05699000000000002  0.37197  0.3721  1.0000
  Cu  Cu4       1.0  0.44206  0.0007500000000000361  0.62781  1.0000
  H   H1        1.0  0.20553  0.72345  0.80118  1.0000
  H   H2        1.0  0.36412000000000005  0.6184699999999999  0.9279100000000001  1.0000
  H   H3        1.0  0.07649  0.19669000000000006  0.77894  1.0000
  H   H4        1.0  0.9286800000000001  0.31929  0.65829  1.0000
  H   H5        1.0  0.42435  0.41264  0.98832  1.0000
  H   H6        1.0  0.38436999999999993  0.23060999999999998  0.8881  1.0000
  H   H7        1.0  0.17001  0.16873999999999997  0.94748  1.0000
  H   H8        1.0  0.2965  0.92173  0.19968000000000002  1.0000
  H   H9        1.0  0.13793  0.68969  0.07243  1.0000
  H   H10       1.0  0.42411  0.41656  0.22112  1.0000
  H   H11       1.0  0.57137  0.6598  0.34295  1.0000
  H   H12       1.0  0.07649  0.4231  0.01211  1.0000
  H   H13       1.0  0.11794  0.3404  0.11170000000000001  1.0000
  H   H14       1.0  0.33204  0.22032  0.05104  1.0000
  H   H15       1.0  0.79447  0.27654  0.19882  1.0000
  H   H16       1.0  0.63588  0.38153  0.07209  1.0000
  H   H17       1.0  0.9234999999999999  0.8033  0.22106  1.0000
  H   H18       1.0  0.07130999999999998  0.6807000000000001  0.34172  1.0000
  H   H19       1.0  0.57565  0.58735  0.01168  1.0000
  H   H20       1.0  0.6156300000000001  0.76938  0.1119  1.0000
  H   H21       1.0  0.82999  0.83125  0.05252  1.0000
  H   H22       1.0  0.7035  0.07826000000000002  0.80032  1.0000
  H   H23       1.0  0.86208  0.3103  0.92757  1.0000
  H   H24       1.0  0.57589  0.58343  0.77888  1.0000
  H   H25       1.0  0.42862  0.34019  0.65705  1.0000
  H   H26       1.0  0.92351  0.57689  0.98789  1.0000
  H   H27       1.0  0.8820599999999998  0.65959  0.8883  1.0000
  H   H28       1.0  0.66796  0.77967  0.94896  1.0000
  C   C1        1.0  0.20665000000000006  0.9352700000000002  0.71128  1.0000
  C   C2        1.0  0.21094000000000004  0.79889  0.61954  1.0000
  C   C3        1.0  0.18288999999999994  0.60657  0.79802  1.0000
  C   C4        1.0  0.2697  0.54674  0.86869  1.0000
  C   C5        1.0  0.23623  0.39606  0.86326  1.0000
  C   C6        1.0  0.10933999999999996  0.3138  0.7867  1.0000
  C   C7        1.0  0.027139999999999997  0.3806  0.7184  1.0000
  C   C8        1.0  0.33365  0.32642  0.93563  1.0000
  C   C9        1.0  0.29445  0.22766  0.29051  1.0000
  C   C10       1.0  0.28988  0.18041  0.3812  1.0000
  C   C11       1.0  0.31876  0.80783  0.20276  1.0000
  C   C12       1.0  0.23187  0.67723  0.13182  1.0000
  C   C13       1.0  0.26508  0.5318  0.137  1.0000
  C   C14       1.0  0.39150000000000007  0.52611  0.21372000000000002  1.0000
  C   C15       1.0  0.47358  0.66124  0.28253  1.0000
  C   C16       1.0  0.16785  0.3895  0.06425  1.0000
  C   C17       1.0  0.79336  0.06471999999999997  0.28872  1.0000
  C   C18       1.0  0.78905  0.2011  0.38046  1.0000
  C   C19       1.0  0.8171  0.39343  0.20198  1.0000
  C   C20       1.0  0.7303  0.45325000000000004  0.13131  1.0000
  C   C21       1.0  0.76377  0.60393  0.13673  1.0000
  C   C22       1.0  0.8906599999999999  0.6861900000000001  0.2133  1.0000
  C   C23       1.0  0.9728599999999998  0.6193899999999999  0.2816  1.0000
  C   C24       1.0  0.66635  0.6735700000000001  0.06437  1.0000
  C   C25       1.0  0.70555  0.77234  0.70949  1.0000
  C   C26       1.0  0.71012  0.81958  0.6188  1.0000
  C   C27       1.0  0.68124  0.19215999999999994  0.79724  1.0000
  C   C28       1.0  0.76813  0.32276  0.86818  1.0000
  C   C29       1.0  0.73492  0.4681899999999999  0.863  1.0000
  C   C30       1.0  0.6085  0.4738800000000001  0.78628  1.0000
  C   C31       1.0  0.52642  0.33875  0.71747  1.0000
  C   C32       1.0  0.83215  0.61049  0.93575  1.0000
  C   C33       1.0  0.25087  0.26599000000000006  0.99957  1.0000
  C   C34       1.0  0.74913  0.73401  0.00043  1.0000
  N   N1        1.0  0.31441  0.79726  0.56657  1.0000
  N   N2        1.0  0.2916  0.6628  0.48817  1.0000
  N   N3        1.0  0.17529  0.58458  0.49434  1.0000
  N   N4        1.0  0.12294000000000001  0.66773  0.57601  1.0000
  N   N5        1.0  0.06415999999999994  0.52403  0.7226099999999999  1.0000
  N   N6        1.0  0.18526  0.23028  0.43348  1.0000
  N   N7        1.0  0.20692  0.17293  0.51103  1.0000
  N   N8        1.0  0.32374  0.08917000000000005  0.50515  1.0000
  N   N9        1.0  0.37753  0.09229000000000004  0.42435000000000006  1.0000
  N   N10       1.0  0.43688  0.8006  0.27842  1.0000
  N   N11       1.0  0.68559  0.20274  0.43343  1.0000
  N   N12       1.0  0.70839  0.33719  0.51183  1.0000
  N   N13       1.0  0.82471  0.41541  0.50566  1.0000
  N   N14       1.0  0.8770599999999998  0.33227  0.42399  1.0000
  N   N15       1.0  0.93584  0.47596000000000005  0.27739  1.0000
  N   N16       1.0  0.81474  0.76971  0.56652  1.0000
  N   N17       1.0  0.7930799999999999  0.8270599999999999  0.48896  1.0000
  N   N18       1.0  0.67625  0.9108200000000001  0.49485000000000007  1.0000
  N   N19       1.0  0.62246  0.9077  0.57565  1.0000
  N   N20       1.0  0.56312  0.19938999999999996  0.72158  1.0000
  O   O1        1.0  0.11185999999999999  0.9357000000000001  0.76153  1.0000
  O   O2        1.0  0.30840000000000006  0.043540000000000086  0.7286000000000001  1.0000
  O   O3        1.0  0.3875700000000001  0.17828999999999998  0.23875  1.0000
  O   O4        1.0  0.19408  0.32066  0.27511  1.0000
  O   O5        1.0  0.8881199999999999  0.06429000000000003  0.23848  1.0000
  O   O6        1.0  0.6916  0.95645  0.2714  1.0000
  O   O7        1.0  0.61247  0.8217100000000003  0.7612600000000002  1.0000
  O   O8        1.0  0.80593  0.67933  0.72489  1.0000
