data_image0
_chemical_formula_structural       Co4H4C20O16
_chemical_formula_sum              "Co4 H4 C20 O16"
_cell_length_a       9.51742
_cell_length_b       9.5295
_cell_length_c       11.59439
_cell_angle_alpha    88.7372
_cell_angle_beta     88.78784
_cell_angle_gamma    112.25224

_symmetry_space_group_name_H-M    'P 1'
_symmetry_Int_Tables_number       1

loop_
  _symmetry_equiv_pos_as_xyz
  'x,y,z'

loop_
  _atom_site_type_symbol
  _atom_site_label
  _atom_site_symmetry_multiplicity
  _atom_site_fract_x
  _atom_site_fract_y
  _atom_site_fract_z
  _atom_site_occupancy
  Co  Co1       1.0  0.89315  0.07276  0.48574  1.0000
  Co  Co2       1.0  0.8588100000000001  0.84964  0.32238  1.0000
  Co  Co3       1.0  0.07225  0.89336  0.98576  1.0000
  Co  Co4       1.0  0.84963  0.86002  0.82342  1.0000
  H   H1        1.0  0.43166  0.92431  0.7808200000000001  1.0000
  H   H2        1.0  0.32369  0.88162  0.36509  1.0000
  H   H3        1.0  0.9240800000000001  0.43242  0.28118  1.0000
  H   H4        1.0  0.88245  0.32419  0.86529  1.0000
  C   C1        1.0  0.58799  0.86184  0.40547000000000005  1.0000
  C   C2        1.0  0.66972  0.93096  0.66104  1.0000
  C   C3        1.0  0.15528  0.9098  0.74509  1.0000
  C   C4        1.0  0.10927000000000006  0.9373200000000002  0.48187  1.0000
  C   C5        1.0  0.4875299999999999  0.8943499999999999  0.49289  1.0000
  C   C6        1.0  0.5213  0.91438  0.61053  1.0000
  C   C7        1.0  0.4102699999999999  0.9200099999999999  0.68905  1.0000
  C   C8        1.0  0.27091999999999994  0.9199799999999999  0.65299  1.0000
  C   C9        1.0  0.2428  0.91549  0.53334  1.0000
  C   C10       1.0  0.3483000000000001  0.8956000000000002  0.4563  1.0000
  C   C11       1.0  0.86138  0.58812  0.90541  1.0000
  C   C12       1.0  0.9299700000000001  0.66965  0.16095  1.0000
  C   C13       1.0  0.90975  0.15609  0.24534000000000006  1.0000
  C   C14       1.0  0.93827  0.11041  0.98293  1.0000
  C   C15       1.0  0.8940800000000001  0.48783999999999994  0.99292  1.0000
  C   C16       1.0  0.91362  0.52146  0.11063000000000002  1.0000
  C   C17       1.0  0.91985  0.41093  0.18938  1.0000
  C   C18       1.0  0.92018  0.27189  0.15339  1.0000
  C   C19       1.0  0.91582  0.24377  0.0338  1.0000
  C   C20       1.0  0.8960600000000001  0.34904  0.9564700000000003  1.0000
  O   O1        1.0  0.72259  0.86765  0.44451  1.0000
  O   O2        1.0  0.55  0.8274  0.3061  1.0000
  O   O3        1.0  0.79074  0.0478  0.63355  1.0000
  O   O4        1.0  0.6661  0.83386  0.7388300000000001  1.0000
  O   O5        1.0  0.20092000000000002  0.9236800000000001  0.8500800000000002  1.0000
  O   O6        1.0  0.01966000000000004  0.88282  0.71652  1.0000
  O   O7        1.0  0.08429  0.05524  0.51128  1.0000
  O   O8        1.0  0.03635999999999999  0.8443  0.4068800000000001  1.0000
  O   O9        1.0  0.86733  0.72261  0.9445  1.0000
  O   O10       1.0  0.82694  0.55028  0.80609  1.0000
  O   O11       1.0  0.04672999999999998  0.79073  0.13347  1.0000
  O   O12       1.0  0.8330000000000001  0.6659  0.23885  1.0000
  O   O13       1.0  0.92351  0.20147  0.3502700000000001  1.0000
  O   O14       1.0  0.8823000000000001  0.02053  0.21668  1.0000
  O   O15       1.0  0.05479  0.0839  0.01428  1.0000
  O   O16       1.0  0.8466699999999996  0.03897  0.90657  1.0000
