data_image0
_chemical_formula_structural       Ag16H24C16S8N32
_chemical_formula_sum              "Ag16 H24 C16 S8 N32"
_cell_length_a       7.21819
_cell_length_b       9.769800000000002
_cell_length_c       23.697849999999995
_cell_angle_alpha    90.0067
_cell_angle_beta     112.53768000000001
_cell_angle_gamma    90.03977

_space_group_name_H-M_alt    "P 1"
_space_group_IT_number       1

loop_
  _space_group_symop_operation_xyz
  'x, y, z'

loop_
  _atom_site_type_symbol
  _atom_site_label
  _atom_site_symmetry_multiplicity
  _atom_site_fract_x
  _atom_site_fract_y
  _atom_site_fract_z
  _atom_site_occupancy
  Ag  Ag1       1.0  0.5886699999999996  0.68461  0.9719999999999998  1.0000
  Ag  Ag2       1.0  0.58935  0.57998  0.08365  1.0000
  Ag  Ag3       1.0  0.772  0.39853999999999995  0.01682  1.0000
  Ag  Ag4       1.0  0.73439  0.83065  0.36957  1.0000
  Ag  Ag5       1.0  0.91317  0.18434  0.52853  1.0000
  Ag  Ag6       1.0  0.9132199999999999  0.07948  0.4170499999999999  1.0000
  Ag  Ag7       1.0  0.7296800000000002  0.8974400000000001  0.48401  1.0000
  Ag  Ag8       1.0  0.76693  0.33072  0.13101  1.0000
  Ag  Ag9       1.0  0.41262  0.31642  0.028499999999999998  1.0000
  Ag  Ag10      1.0  0.41248000000000007  0.42099  0.9168599999999999  1.0000
  Ag  Ag11      1.0  0.2298299999999999  0.60325  0.9839899999999999  1.0000
  Ag  Ag12      1.0  0.26735  0.17048  0.63103  1.0000
  Ag  Ag13      1.0  0.08842999999999983  0.81621  0.47191999999999995  1.0000
  Ag  Ag14      1.0  0.08990999999999985  0.92092  0.5836399999999999  1.0000
  Ag  Ag15      1.0  0.2727400000000001  0.10219  0.51695  1.0000
  Ag  Ag16      1.0  0.23422999999999997  0.67023  0.8696  1.0000
  H   H1        1.0  0.09230999999999996  0.36778  0.25824  1.0000
  H   H2        1.0  0.04238000000000001  0.32226  0.32367  1.0000
  H   H3        1.0  0.24268999999999993  0.43993999999999994  0.33116  1.0000
  H   H4        1.0  0.44007  0.38245  0.26404  1.0000
  H   H5        1.0  0.3634299999999999  0.54998  0.23151999999999998  1.0000
  H   H6        1.0  0.57378  0.46503999999999995  0.22437  1.0000
  H   H7        1.0  0.41366  0.8638300000000001  0.2427  1.0000
  H   H8        1.0  0.45354  0.8240800000000001  0.17512  1.0000
  H   H9        1.0  0.25755  0.9408  0.1717  1.0000
  H   H10       1.0  0.04812999999999997  0.887  0.23597999999999997  1.0000
  H   H11       1.0  0.14406000000000002  0.052629999999999996  0.2677  1.0000
  H   H12       1.0  0.93216  0.9794199999999998  0.27826  1.0000
  H   H13       1.0  0.9109299999999999  0.63576  0.7423499999999998  1.0000
  H   H14       1.0  0.95343  0.67716  0.67529  1.0000
  H   H15       1.0  0.75741  0.55932  0.67085  1.0000
  H   H16       1.0  0.55138  0.61319  0.73592  1.0000
  H   H17       1.0  0.64057  0.4471  0.7682199999999999  1.0000
  H   H18       1.0  0.4298799999999997  0.52488  0.7778299999999998  1.0000
  H   H19       1.0  0.5926300000000003  0.13336  0.7583399999999999  1.0000
  H   H20       1.0  0.53951  0.18008  0.82305  1.0000
  H   H21       1.0  0.74096  0.06267  0.83179  1.0000
  H   H22       1.0  0.9379800000000001  0.11817  0.76405  1.0000
  H   H23       1.0  0.8644000000000001  0.9503399999999999  0.7312899999999999  1.0000
  H   H24       1.0  0.07464000000000003  0.03744  0.72487  1.0000
  C   C1        1.0  0.8761000000000001  0.60001  0.23864  1.0000
  C   C2        1.0  0.09265999999999995  0.40452  0.30181  1.0000
  C   C3        1.0  0.21589999999999998  0.44007  0.11258  1.0000
  C   C4        1.0  0.42638  0.45125000000000004  0.22639  1.0000
  C   C5        1.0  0.62467  0.10043  0.26198  1.0000
  C   C6        1.0  0.40835999999999995  0.90425  0.19915999999999998  1.0000
  C   C7        1.0  0.28579  0.9419199999999999  0.38733  1.0000
  C   C8        1.0  0.07441999999999993  0.95753  0.27403  1.0000
  C   C9        1.0  0.12418999999999993  0.4005  0.7618299999999999  1.0000
  C   C10       1.0  0.90762  0.59623  0.69889  1.0000
  C   C11       1.0  0.7858500000000004  0.559  0.88731  1.0000
  C   C12       1.0  0.57363  0.54368  0.77404  1.0000
  C   C13       1.0  0.3756499999999998  0.90102  0.7386499999999999  1.0000
  C   C14       1.0  0.5912499999999999  0.09721  0.8018199999999999  1.0000
  C   C15       1.0  0.7166100000000002  0.06053  0.61262  1.0000
  C   C16       1.0  0.9263100000000001  0.04969  0.72643  1.0000
  S   S1        1.0  0.92277  0.58308  0.17273999999999998  1.0000
  S   S2        1.0  0.23573000000000002  0.60826  0.09276  1.0000
  S   S3        1.0  0.5792099999999999  0.08357  0.32805999999999996  1.0000
  S   S4        1.0  0.26643000000000006  0.10907  0.4081  1.0000
  S   S5        1.0  0.07836000000000001  0.41734  0.82785  1.0000
  S   S6        1.0  0.7662200000000003  0.39173  0.90803  1.0000
  S   S7        1.0  0.4226000000000001  0.9181899999999998  0.67285  1.0000
  S   S8        1.0  0.73594  0.8923599999999999  0.59282  1.0000
  N   N1        1.0  0.76727  0.69818  0.25131  1.0000
  N   N2        1.0  0.7807200000000002  0.67181  0.30885  1.0000
  N   N3        1.0  0.89211  0.56434  0.33302  1.0000
  N   N4        1.0  0.95224  0.51811  0.28921  1.0000
  N   N5        1.0  0.10982000000000003  0.33715  0.07563  1.0000
  N   N6        1.0  0.12700999999999998  0.22505  0.11255999999999998  1.0000
  N   N7        1.0  0.23837  0.25423  0.16908  1.0000
  N   N8        1.0  0.29452  0.38752999999999993  0.16985  1.0000
  N   N9        1.0  0.73289  0.19871  0.24907  1.0000
  N   N10       1.0  0.71938  0.17209  0.19158  1.0000
  N   N11       1.0  0.60827  0.06421  0.16762  1.0000
  N   N12       1.0  0.54873  0.01779  0.21151999999999999  1.0000
  N   N13       1.0  0.39308  0.83842  0.4233199999999999  1.0000
  N   N14       1.0  0.37533  0.72749  0.38561  1.0000
  N   N15       1.0  0.26210999999999995  0.75829  0.32939  1.0000
  N   N16       1.0  0.20531000000000005  0.8911  0.32944  1.0000
  N   N17       1.0  0.23271999999999998  0.30235  0.74899  1.0000
  N   N18       1.0  0.2197599999999999  0.32921  0.6915499999999999  1.0000
  N   N19       1.0  0.10866000000000005  0.43696  0.66757  1.0000
  N   N20       1.0  0.048649999999999936  0.48307000000000005  0.7114  1.0000
  N   N21       1.0  0.89325  0.66255  0.9234099999999998  1.0000
  N   N22       1.0  0.8753499999999997  0.77333  0.88571  1.0000
  N   N23       1.0  0.7622400000000001  0.74273  0.82947  1.0000
  N   N24       1.0  0.70572  0.6098  0.82961  1.0000
  N   N25       1.0  0.26707000000000003  0.80266  0.75134  1.0000
  N   N26       1.0  0.28026  0.8289099999999999  0.80886  1.0000
  N   N27       1.0  0.39148  0.93662  0.83305  1.0000
  N   N28       1.0  0.45176000000000016  0.98341  0.78932  1.0000
  N   N29       1.0  0.61114  0.1634  0.57562  1.0000
  N   N30       1.0  0.6281999999999999  0.27575  0.6124799999999999  1.0000
  N   N31       1.0  0.73892  0.24657  0.66906  1.0000
  N   N32       1.0  0.79495  0.11326  0.66999  1.0000
