data_image0
_chemical_formula_structural       Er4H6C30O24
_chemical_formula_sum              "Er4 H6 C30 O24"
_cell_length_a       10.32545
_cell_length_b       10.45168
_cell_length_c       13.636500000000002
_cell_angle_alpha    106.56612
_cell_angle_beta     93.19115999999998
_cell_angle_gamma    111.7713

_space_group_name_H-M_alt    "P 1"
_space_group_IT_number       1

loop_
  _space_group_symop_operation_xyz
  'x, y, z'

loop_
  _atom_site_type_symbol
  _atom_site_label
  _atom_site_symmetry_multiplicity
  _atom_site_fract_x
  _atom_site_fract_y
  _atom_site_fract_z
  _atom_site_occupancy
  Er  Er1       1.0  0.46419  0.43232  0.8215699999999999  1.0000
  Er  Er2       1.0  0.0028199999999999987  0.04221  0.18057  1.0000
  Er  Er3       1.0  0.53266  0.56838  0.18022  1.0000
  Er  Er4       1.0  0.9968  0.95744  0.81943  1.0000
  H   H1        1.0  0.71333  0.18899  0.12528  1.0000
  H   H2        1.0  0.78268  0.2801000000000001  0.89754  1.0000
  H   H3        1.0  0.13167  0.26736  0.57258  1.0000
  H   H4        1.0  0.28528  0.8086  0.87475  1.0000
  H   H5        1.0  0.21492000000000006  0.7184500000000001  0.10341  1.0000
  H   H6        1.0  0.86832  0.73125  0.4274499999999999  1.0000
  C   C1        1.0  0.51219  0.88751  0.91717  1.0000
  C   C2        1.0  0.63337  0.99607  0.9894299999999998  1.0000
  C   C3        1.0  0.6187899999999998  0.10637  0.07025  1.0000
  C   C4        1.0  0.51849  0.76767  0.82543  1.0000
  C   C5        1.0  0.77896  0.9979399999999999  0.98253  1.0000
  C   C6        1.0  0.9865  0.62622  0.05970999999999999  1.0000
  C   C7        1.0  0.86458  0.50271  0.0006299999999999998  1.0000
  C   C8        1.0  0.87736  0.37656000000000006  0.94085  1.0000
  C   C9        1.0  0.98282  0.7708  0.10973  1.0000
  C   C10       1.0  0.72051  0.49958  0.00568  1.0000
  C   C11       1.0  0.10209  0.06213999999999999  0.5909  1.0000
  C   C12       1.0  0.07393000000000002  0.14979000000000006  0.53923  1.0000
  C   C13       1.0  0.026379999999999994  0.90881  0.552  1.0000
  C   C14       1.0  0.21316000000000002  0.13617000000000007  0.68623  1.0000
  C   C15       1.0  0.050530000000000005  0.8056200000000001  0.60201  1.0000
  C   C16       1.0  0.48689  0.11226  0.08236  1.0000
  C   C17       1.0  0.36563  0.0024100000000000002  0.01072  1.0000
  C   C18       1.0  0.3799299999999998  0.8921599999999997  0.9295299999999999  1.0000
  C   C19       1.0  0.4819  0.23419  0.17357999999999998  1.0000
  C   C20       1.0  0.22051  0.0009500000000000006  0.01752  1.0000
  C   C21       1.0  0.010749999999999992  0.37215  0.9406399999999998  1.0000
  C   C22       1.0  0.13181  0.49576  0.00029  1.0000
  C   C23       1.0  0.11993000000000004  0.62242  0.05956  1.0000
  C   C24       1.0  0.01568  0.22757  0.8904799999999999  1.0000
  C   C25       1.0  0.27541  0.49898  0.9962  1.0000
  C   C26       1.0  0.8978399999999999  0.93674  0.4092499999999999  1.0000
  C   C27       1.0  0.9257400000000001  0.84889  0.46087999999999996  1.0000
  C   C28       1.0  0.97311  0.08990000000000004  0.44825  1.0000
  C   C29       1.0  0.78737  0.86329  0.31382999999999994  1.0000
  C   C30       1.0  0.94921  0.19299  0.39806  1.0000
  O   O1        1.0  0.8750199999999999  0.07758  0.06388  1.0000
  O   O2        1.0  0.8009500000000003  0.92463  0.89806  1.0000
  O   O3        1.0  0.52528  0.65454  0.85081  1.0000
  O   O4        1.0  0.5103300000000001  0.7718300000000001  0.73698  1.0000
  O   O5        1.0  0.6223299999999999  0.42195999999999995  0.9252899999999997  1.0000
  O   O6        1.0  0.69913  0.57005  0.09107999999999998  1.0000
  O   O7        1.0  0.9060899999999998  0.80837  0.05738  1.0000
  O   O8        1.0  0.06383999999999998  0.85634  0.19691  1.0000
  O   O9        1.0  0.20328  0.08858  0.76221  1.0000
  O   O10       1.0  0.32016  0.25466999999999995  0.6893499999999999  1.0000
  O   O11       1.0  0.97798  0.78997  0.67835  1.0000
  O   O12       1.0  0.12720999999999996  0.7435199999999998  0.5702299999999999  1.0000
  O   O13       1.0  0.12498999999999988  0.9229199999999997  0.9357699999999998  1.0000
  O   O14       1.0  0.19795999999999997  0.07325  0.10215  1.0000
  O   O15       1.0  0.47377  0.34695  0.14872  1.0000
  O   O16       1.0  0.49207999999999996  0.23132000000000003  0.26233  1.0000
  O   O17       1.0  0.37334  0.57816  0.07659999999999999  1.0000
  O   O18       1.0  0.29673  0.42758000000000007  0.9109  1.0000
  O   O19       1.0  0.09114  0.18848  0.94273  1.0000
  O   O20       1.0  0.9363500000000001  0.14328999999999992  0.8024599999999997  1.0000
  O   O21       1.0  0.79707  0.9108900000000001  0.23787999999999998  1.0000
  O   O22       1.0  0.68058  0.7448699999999999  0.31105  1.0000
  O   O23       1.0  0.02241000000000001  0.20878000000000002  0.32206  1.0000
  O   O24       1.0  0.87287  0.25560000000000005  0.4295199999999999  1.0000
