data_image0
_chemical_formula_structural       U4H24C32N4O18
_chemical_formula_sum              "U4 H24 C32 N4 O18"
_cell_length_a       9.1759
_cell_length_b       10.72442
_cell_length_c       14.50162
_cell_angle_alpha    102.53782999999999
_cell_angle_beta     98.34172
_cell_angle_gamma    104.84878000000002

_symmetry_space_group_name_H-M    'P 1'
_symmetry_Int_Tables_number       1

loop_
  _symmetry_equiv_pos_as_xyz
  'x,y,z'

loop_
  _atom_site_type_symbol
  _atom_site_label
  _atom_site_symmetry_multiplicity
  _atom_site_fract_x
  _atom_site_fract_y
  _atom_site_fract_z
  _atom_site_occupancy
  U   U1        1.0  0.13345  0.30001  0.40653  1.0000
  U   U2        1.0  0.88433  0.8089600000000001  0.01508  1.0000
  U   U3        1.0  0.86393  0.6981399999999999  0.5941  1.0000
  U   U4        1.0  0.1151500000000001  0.19169000000000017  0.9848200000000003  1.0000
  H   H1        1.0  0.14850000000000005  0.8669700000000001  0.15258000000000005  1.0000
  H   H2        1.0  0.0718  0.49938  0.23891  1.0000
  H   H3        1.0  0.040700000000000056  0.8564300000000001  0.42602  1.0000
  H   H4        1.0  0.16396  0.64733  0.049170000000000005  1.0000
  H   H5        1.0  0.14658000000000004  0.5158300000000001  0.09600000000000002  1.0000
  H   H6        1.0  0.7668799999999999  0.85676  0.31684000000000007  1.0000
  H   H7        1.0  0.4441999999999999  0.5552899999999998  0.40033  1.0000
  H   H8        1.0  0.43417  0.52699  0.09592000000000003  1.0000
  H   H9        1.0  0.60636  0.80198  0.50408  1.0000
  H   H10       1.0  0.7703500000000001  0.8640300000000001  0.47377  1.0000
  H   H11       1.0  0.09263000000000009  0.9181600000000002  0.8770000000000002  1.0000
  H   H12       1.0  0.9258499999999998  0.9277100000000001  0.81298  1.0000
  H   H13       1.0  0.8508900000000001  0.13402000000000003  0.8466800000000001  1.0000
  H   H14       1.0  0.9244999999999999  0.50073  0.76154  1.0000
  H   H15       1.0  0.9579  0.14523999999999998  0.57306  1.0000
  H   H16       1.0  0.8351999999999999  0.35098  0.95081  1.0000
  H   H17       1.0  0.8537899999999999  0.48417  0.90549  1.0000
  H   H18       1.0  0.23377  0.13925  0.68281  1.0000
  H   H19       1.0  0.5571500000000001  0.4419300000000001  0.5999600000000002  1.0000
  H   H20       1.0  0.5624400000000003  0.47197000000000017  0.9031200000000003  1.0000
  H   H21       1.0  0.3948  0.19794000000000003  0.49862  1.0000
  H   H22       1.0  0.23224999999999998  0.13338999999999998  0.5272  1.0000
  H   H23       1.0  0.90531  0.08193000000000002  0.12217000000000001  1.0000
  H   H24       1.0  0.07741  0.07754  0.18901  1.0000
  C   C1        1.0  0.06333  0.004259999999999998  0.31369  1.0000
  C   C2        1.0  0.057439999999999915  0.86856  0.28176  1.0000
  C   C3        1.0  0.07524000000000002  0.80037  0.18742  1.0000
  C   C4        1.0  0.08268000000000002  0.66578  0.17585  1.0000
  C   C5        1.0  0.06638999999999999  0.60152  0.24995  1.0000
  C   C6        1.0  0.05738000000000004  0.6729  0.3424600000000001  1.0000
  C   C7        1.0  0.04740999999999999  0.80193  0.35559  1.0000
  C   C8        1.0  0.07977  0.62227  0.42871000000000004  1.0000
  C   C9        1.0  0.66402  0.75335  0.12245  1.0000
  C   C10       1.0  0.6050200000000001  0.6972500000000001  0.19797  1.0000
  C   C11       1.0  0.67037  0.76524  0.29658  1.0000
  C   C12       1.0  0.61467  0.70888  0.36718  1.0000
  C   C13       1.0  0.48983  0.5925599999999999  0.34349  1.0000
  C   C14       1.0  0.42042  0.52473  0.24345  1.0000
  C   C15       1.0  0.48159  0.57902  0.17188  1.0000
  C   C16       1.0  0.29232  0.40598  0.2194  1.0000
  C   C17       1.0  0.93614  0.9954199999999999  0.6859  1.0000
  C   C18       1.0  0.94199  0.13191  0.71753  1.0000
  C   C19       1.0  0.92477  0.19996  0.81199  1.0000
  C   C20       1.0  0.9158599999999999  0.3342899999999999  0.82406  1.0000
  C   C21       1.0  0.93232  0.39925  0.75046  1.0000
  C   C22       1.0  0.9427399999999999  0.32845  0.65816  1.0000
  C   C23       1.0  0.9527699999999999  0.1989000000000001  0.6441000000000002  1.0000
  C   C24       1.0  0.91927  0.37787  0.57154  1.0000
  C   C25       1.0  0.33665  0.24716  0.87753  1.0000
  C   C26       1.0  0.39489  0.29975  0.80076  1.0000
  C   C27       1.0  0.32968  0.23240000000000002  0.7028200000000001  1.0000
  C   C28       1.0  0.38397  0.28923  0.63256  1.0000
  C   C29       1.0  0.51103  0.40524  0.65652  1.0000
  C   C30       1.0  0.58066  0.4724  0.75617  1.0000
  C   C31       1.0  0.51978  0.41855  0.8277100000000002  1.0000
  C   C32       1.0  0.7067  0.59264  0.7815000000000002  1.0000
  N   N1        1.0  0.10515000000000002  0.59467  0.08923  1.0000
  N   N2        1.0  0.6868299999999999  0.77544  0.46823  1.0000
  N   N3        1.0  0.89425  0.4046  0.9112900000000003  1.0000
  N   N4        1.0  0.31191  0.22389  0.53171  1.0000
  O   O1        1.0  0.09725  0.09868  0.2623  1.0000
  O   O2        1.0  0.05077  0.062040000000000026  0.39861  1.0000
  O   O3        1.0  0.056569999999999995  0.68743  0.50956  1.0000
  O   O4        1.0  0.12679000000000007  0.5192700000000001  0.4247500000000001  1.0000
  O   O5        1.0  0.64964  0.67624  0.03726  1.0000
  O   O6        1.0  0.74764  0.87748  0.14025  1.0000
  O   O7        1.0  0.20994  0.348  0.12922  1.0000
  O   O8        1.0  0.2519  0.35396999999999995  0.28913  1.0000
  O   O9        1.0  0.02288000000000003  0.94322  0.91699  1.0000
  O   O10       1.0  0.9043199999999999  0.90331  0.73865  1.0000
  O   O11       1.0  0.9476699999999999  0.9375200000000001  0.60105  1.0000
  O   O12       1.0  0.9438200000000001  0.3118900000000001  0.49147000000000013  1.0000
  O   O13       1.0  0.8703800000000002  0.47946  0.57361  1.0000
  O   O14       1.0  0.35151  0.3249600000000001  0.96192  1.0000
  O   O15       1.0  0.24974  0.12338000000000002  0.86021  1.0000
  O   O16       1.0  0.78801  0.6498600000000001  0.8718500000000002  1.0000
  O   O17       1.0  0.7450699999999999  0.64792  0.71258  1.0000
  O   O18       1.0  0.9711900000000002  0.05609000000000001  0.07972000000000003  1.0000
