data_image0
_chemical_formula_structural       Cu4H24C28O16
_chemical_formula_sum              "Cu4 H24 C28 O16"
_cell_length_a       8.5003
_cell_length_b       8.50024
_cell_length_c       14.53388
_cell_angle_alpha    87.59138999999999
_cell_angle_beta     87.56419
_cell_angle_gamma    83.43428

_symmetry_space_group_name_H-M    'P 1'
_symmetry_Int_Tables_number       1

loop_
  _symmetry_equiv_pos_as_xyz
  'x,y,z'

loop_
  _atom_site_type_symbol
  _atom_site_label
  _atom_site_symmetry_multiplicity
  _atom_site_fract_x
  _atom_site_fract_y
  _atom_site_fract_z
  _atom_site_occupancy
  Cu  Cu1       1.0  0.35476  0.017890000000000003  0.50737  1.0000
  Cu  Cu2       1.0  0.9821299999999997  0.64524  0.99268  1.0000
  Cu  Cu3       1.0  0.64525  0.98211  0.4926299999999999  1.0000
  Cu  Cu4       1.0  0.01787  0.35475  0.007309999999999998  1.0000
  H   H1        1.0  0.62947  0.46399999999999997  0.58056  1.0000
  H   H2        1.0  0.41869  0.4748  0.58672  1.0000
  H   H3        1.0  0.77225  0.609  0.6941199999999998  1.0000
  H   H4        1.0  0.66462  0.71979  0.7808299999999998  1.0000
  H   H5        1.0  0.2611399999999999  0.63935  0.7101799999999999  1.0000
  H   H6        1.0  0.69548  0.20872999999999997  0.79641  1.0000
  H   H7        1.0  0.53597  0.37063  0.91941  1.0000
  H   H8        1.0  0.52518  0.5814  0.91328  1.0000
  H   H9        1.0  0.39104  0.22782000000000002  0.80584  1.0000
  H   H10       1.0  0.28025000000000005  0.33541  0.71918  1.0000
  H   H11       1.0  0.3606599999999999  0.73891  0.78986  1.0000
  H   H12       1.0  0.79134  0.30452  0.70351  1.0000
  H   H13       1.0  0.37053  0.53599  0.41943999999999987  1.0000
  H   H14       1.0  0.58131  0.5252  0.41326999999999997  1.0000
  H   H15       1.0  0.22775000000000004  0.39099  0.30587  1.0000
  H   H16       1.0  0.33538  0.2802  0.21917  1.0000
  H   H17       1.0  0.73886  0.36065  0.28981  1.0000
  H   H18       1.0  0.30453  0.79127  0.20358  1.0000
  H   H19       1.0  0.46403  0.6293599999999998  0.08059  1.0000
  H   H20       1.0  0.47482000000000013  0.4186  0.08672  1.0000
  H   H21       1.0  0.60896  0.77217  0.19416  1.0000
  H   H22       1.0  0.71975  0.66458  0.28081  1.0000
  H   H23       1.0  0.63934  0.26109  0.21014  1.0000
  H   H24       1.0  0.20865999999999998  0.69548  0.29649  1.0000
  C   C1        1.0  0.50976  0.76204  0.6142  1.0000
  C   C2        1.0  0.51657  0.6217599999999998  0.68441  1.0000
  C   C3        1.0  0.52467  0.47103  0.62779  1.0000
  C   C4        1.0  0.53441  0.32255  0.69402  1.0000
  C   C5        1.0  0.53309  0.18533  0.62928  1.0000
  C   C6        1.0  0.66688  0.6134  0.74056  1.0000
  C   C7        1.0  0.23793000000000009  0.49029  0.88578  1.0000
  C   C8        1.0  0.37828  0.4835  0.8155799999999997  1.0000
  C   C9        1.0  0.52897  0.47542  0.87219  1.0000
  C   C10       1.0  0.6775  0.46565  0.80594  1.0000
  C   C11       1.0  0.8147  0.46693999999999997  0.8706899999999999  1.0000
  C   C12       1.0  0.38664  0.33317  0.75942  1.0000
  C   C13       1.0  0.49023999999999995  0.23796  0.38579999999999987  1.0000
  C   C14       1.0  0.48343  0.37824  0.31559  1.0000
  C   C15       1.0  0.47534000000000004  0.52897  0.3722099999999999  1.0000
  C   C16       1.0  0.46559  0.67744  0.30598  1.0000
  C   C17       1.0  0.46692000000000006  0.8146599999999999  0.37072  1.0000
  C   C18       1.0  0.33312  0.38659  0.25943  1.0000
  C   C19       1.0  0.76207  0.5097  0.11422  1.0000
  C   C20       1.0  0.6217300000000001  0.5165  0.18441  1.0000
  C   C21       1.0  0.47103000000000006  0.52458  0.1278  1.0000
  C   C22       1.0  0.3225  0.53435  0.19405  1.0000
  C   C23       1.0  0.1853  0.53305  0.12931  1.0000
  C   C24       1.0  0.61336  0.66682  0.24057999999999993  1.0000
  C   C25       1.0  0.36866  0.6313799999999999  0.75001  1.0000
  C   C26       1.0  0.68576  0.31428000000000006  0.7499699999999999  1.0000
  C   C27       1.0  0.63134  0.36861  0.24998999999999993  1.0000
  C   C28       1.0  0.31424  0.6857099999999999  0.25003  1.0000
  O   O1        1.0  0.3729499999999999  0.8288599999999999  0.59298  1.0000
  O   O2        1.0  0.6426  0.79753  0.5796099999999998  1.0000
  O   O3        1.0  0.6656500000000001  0.12007000000000001  0.59697  1.0000
  O   O4        1.0  0.39574  0.15494  0.60745  1.0000
  O   O5        1.0  0.17107000000000003  0.62708  0.9070299999999998  1.0000
  O   O6        1.0  0.2024  0.35743  0.9203  1.0000
  O   O7        1.0  0.8799199999999999  0.33438  0.9029799999999999  1.0000
  O   O8        1.0  0.8450999999999999  0.60428  0.8925699999999998  1.0000
  O   O9        1.0  0.62705  0.17113999999999996  0.4070199999999999  1.0000
  O   O10       1.0  0.3574  0.20247  0.42038  1.0000
  O   O11       1.0  0.33435  0.87993  0.40303  1.0000
  O   O12       1.0  0.60426  0.84506  0.39255  1.0000
  O   O13       1.0  0.8289299999999998  0.37292  0.09297  1.0000
  O   O14       1.0  0.7976  0.64256  0.07969  1.0000
  O   O15       1.0  0.12008  0.66561  0.09701999999999997  1.0000
  O   O16       1.0  0.1549  0.39572  0.10742  1.0000
