data_image0
_chemical_formula_structural       Zn4H28C32N8O14
_chemical_formula_sum              "Zn4 H28 C32 N8 O14"
_cell_length_a       8.5427
_cell_length_b       10.13149
_cell_length_c       14.20004
_cell_angle_alpha    105.99459
_cell_angle_beta     102.06310999999998
_cell_angle_gamma    91.75993

_space_group_name_H-M_alt    "P 1"
_space_group_IT_number       1

loop_
  _space_group_symop_operation_xyz
  'x, y, z'

loop_
  _atom_site_type_symbol
  _atom_site_label
  _atom_site_symmetry_multiplicity
  _atom_site_fract_x
  _atom_site_fract_y
  _atom_site_fract_z
  _atom_site_occupancy
  Zn  Zn1       1.0  0.33907  0.63748  0.65271  1.0000
  Zn  Zn2       1.0  0.66093  0.36251  0.34729  1.0000
  Zn  Zn3       1.0  0.34404  0.41072999999999993  0.46919  1.0000
  Zn  Zn4       1.0  0.65596  0.58927  0.5308  1.0000
  H   H1        1.0  0.86684  0.7632  0.30533999999999994  1.0000
  H   H2        1.0  0.9844699999999998  0.35331  0.71489  1.0000
  H   H3        1.0  0.015529999999999995  0.64669  0.28511  1.0000
  H   H4        1.0  0.76686  0.54556  0.73828  1.0000
  H   H5        1.0  0.11751  0.15929  0.39165  1.0000
  H   H6        1.0  0.30223  0.9282399999999998  0.11734999999999997  1.0000
  H   H7        1.0  0.23314000000000001  0.45444  0.26171  1.0000
  H   H8        1.0  0.9913399999999999  0.13385000000000005  0.51536  1.0000
  H   H9        1.0  0.008659999999999992  0.86614  0.48464  1.0000
  H   H10       1.0  0.6230199999999999  0.76131  0.02779  1.0000
  H   H11       1.0  0.15112  0.8640199999999999  0.41001  1.0000
  H   H12       1.0  0.59896  0.04337000000000008  0.60985  1.0000
  H   H13       1.0  0.5072  0.92137  0.72538  1.0000
  H   H14       1.0  0.8488799999999997  0.13597999999999993  0.58999  1.0000
  H   H15       1.0  0.6977699999999999  0.07176  0.88265  1.0000
  H   H16       1.0  0.40104000000000006  0.9566300000000001  0.39015  1.0000
  H   H17       1.0  0.9687  0.66559  0.90338  1.0000
  H   H18       1.0  0.4928  0.07861999999999998  0.27462  1.0000
  H   H19       1.0  0.4335099999999999  0.62278  0.86387  1.0000
  H   H20       1.0  0.91277  0.027250000000000003  0.2349  1.0000
  H   H21       1.0  0.56649  0.37721  0.13613  1.0000
  H   H22       1.0  0.031300000000000015  0.3344  0.09662  1.0000
  H   H23       1.0  0.08722999999999997  0.97275  0.7651  1.0000
  H   H24       1.0  0.61017  0.9998799999999999  0.42635  1.0000
  H   H25       1.0  0.88249  0.84071  0.60835  1.0000
  H   H26       1.0  0.37698  0.23869  0.97221  1.0000
  H   H27       1.0  0.38983  0.00010999999999997617  0.57364  1.0000
  H   H28       1.0  0.13314999999999994  0.2368  0.69466  1.0000
  C   C1        1.0  0.07141999999999996  0.7979300000000001  0.43348999999999993  1.0000
  C   C2        1.0  0.15962999999999994  0.35923999999999995  0.25038  1.0000
  C   C3        1.0  0.9824099999999999  0.12035999999999998  0.23784  1.0000
  C   C4        1.0  0.53587  0.89134  0.79458  1.0000
  C   C5        1.0  0.6410499999999998  0.9732100000000001  0.8806699999999998  1.0000
  C   C6        1.0  0.9602  0.17126  0.15405  1.0000
  C   C7        1.0  0.40181  0.20155000000000003  0.03831  1.0000
  C   C8        1.0  0.92858  0.20206  0.56651  1.0000
  C   C9        1.0  0.5981899999999998  0.7984499999999999  0.9616899999999998  1.0000
  C   C10       1.0  0.82346  0.28702  0.50937  1.0000
  C   C11       1.0  0.017589999999999915  0.8796399999999998  0.7621599999999997  1.0000
  C   C12       1.0  0.50801  0.95666  0.44823  1.0000
  C   C13       1.0  0.6736  0.92553  0.96609  1.0000
  C   C14       1.0  0.95294  0.70332  0.3415  1.0000
  C   C15       1.0  0.5379  0.80693  0.4457  1.0000
  C   C16       1.0  0.039799999999999953  0.8287299999999999  0.8459499999999998  1.0000
  C   C17       1.0  0.90565  0.80765  0.67607  1.0000
  C   C18       1.0  0.35895  0.026789999999999994  0.11933  1.0000
  C   C19       1.0  0.4621  0.19307  0.55429  1.0000
  C   C20       1.0  0.8403699999999997  0.64076  0.74962  1.0000
  C   C21       1.0  0.14502  0.40209999999999996  0.63025  1.0000
  C   C22       1.0  0.49457999999999996  0.72271  0.87242  1.0000
  C   C23       1.0  0.04927  0.2934  0.16083  1.0000
  C   C24       1.0  0.95073  0.7066  0.8391699999999999  1.0000
  C   C25       1.0  0.50542  0.27729  0.12758  1.0000
  C   C26       1.0  0.047060000000000005  0.29668  0.6585  1.0000
  C   C27       1.0  0.3264  0.07447  0.0339  1.0000
  C   C28       1.0  0.09435  0.19235  0.32393  1.0000
  C   C29       1.0  0.85498  0.5979  0.36975  1.0000
  C   C30       1.0  0.49199  0.04334  0.55177  1.0000
  C   C31       1.0  0.17653999999999997  0.71298  0.49063  1.0000
  C   C32       1.0  0.46413  0.10866  0.20542  1.0000
  N   N1        1.0  0.18213  0.30837  0.32971  1.0000
  N   N2        1.0  0.85289  0.10630000000000002  0.06037  1.0000
  N   N3        1.0  0.22109999999999994  0.005450000000000011  0.94068  1.0000
  N   N4        1.0  0.4638  0.76834  0.7903  1.0000
  N   N5        1.0  0.5361999999999999  0.23165999999999998  0.2097  1.0000
  N   N6        1.0  0.81787  0.6916299999999997  0.6702899999999999  1.0000
  N   N7        1.0  0.7789  0.99455  0.05932  1.0000
  N   N8        1.0  0.14710999999999996  0.8936999999999999  0.93962  1.0000
  O   O1        1.0  0.50893  0.72015  0.3603999999999999  1.0000
  O   O2        1.0  0.49107  0.27985  0.6396  1.0000
  O   O3        1.0  0.84168  0.62684  0.46  1.0000
  O   O4        1.0  0.15832  0.37316  0.54  1.0000
  O   O5        1.0  0.77219  0.23198  0.4129199999999999  1.0000
  O   O6        1.0  0.59306  0.78605  0.53072  1.0000
  O   O7        1.0  0.508  0.47285999999999995  0.40413  1.0000
  O   O8        1.0  0.7941099999999998  0.48669  0.29996  1.0000
  O   O9        1.0  0.20623999999999995  0.5972399999999999  0.44208999999999987  1.0000
  O   O10       1.0  0.79376  0.40276  0.55791  1.0000
  O   O11       1.0  0.40693999999999997  0.21395  0.46928  1.0000
  O   O12       1.0  0.492  0.52714  0.59587  1.0000
  O   O13       1.0  0.20588999999999996  0.5133099999999999  0.7000399999999999  1.0000
  O   O14       1.0  0.22781  0.7680099999999997  0.58708  1.0000
