data_image0
_chemical_formula_structural       La2H24C24N6O18
_chemical_formula_sum              "La2 H24 C24 N6 O18"
_cell_length_a       4.13788
_cell_length_b       11.794780000000001
_cell_length_c       16.288750000000004
_cell_angle_alpha    92.16567
_cell_angle_beta     86.06083999999998
_cell_angle_gamma    88.82048

_symmetry_space_group_name_H-M    'P 1'
_symmetry_Int_Tables_number       1

loop_
  _symmetry_equiv_pos_as_xyz
  'x,y,z'

loop_
  _atom_site_type_symbol
  _atom_site_label
  _atom_site_symmetry_multiplicity
  _atom_site_fract_x
  _atom_site_fract_y
  _atom_site_fract_z
  _atom_site_occupancy
  La  La1       1.0  0.7651699999999999  0.7680000000000002  0.66335  1.0000
  La  La2       1.0  0.23483  0.23199999999999998  0.3366499999999999  1.0000
  H   H1        1.0  0.41035000000000005  0.08566999999999998  0.5433099999999997  1.0000
  H   H2        1.0  0.5685600000000001  0.09297  0.6404199999999998  1.0000
  H   H3        1.0  0.9086499999999995  0.12909999999999996  0.74096  1.0000
  H   H4        1.0  0.16056000000000004  0.2508  0.7478  1.0000
  H   H5        1.0  0.5302100000000001  0.26943  0.5411999999999999  1.0000
  H   H6        1.0  0.79098  0.3861000000000001  0.52727  1.0000
  H   H7        1.0  0.14301999999999998  0.4045000000000001  0.64932  1.0000
  H   H8        1.0  0.35415  0.45799  0.73166  1.0000
  H   H9        1.0  0.08351999999999998  0.7794700000000001  0.92454  1.0000
  H   H10       1.0  0.8816099999999999  0.89733  0.8852  1.0000
  H   H11       1.0  0.54562  0.79905  0.006289999999999998  1.0000
  H   H12       1.0  0.25517  0.88281  0.0745  1.0000
  H   H13       1.0  0.58965  0.9143300000000001  0.45669  1.0000
  H   H14       1.0  0.4314399999999999  0.9070200000000003  0.35958  1.0000
  H   H15       1.0  0.09134999999999999  0.8709  0.25903  1.0000
  H   H16       1.0  0.8394399999999997  0.7492  0.2522  1.0000
  H   H17       1.0  0.46979000000000004  0.73056  0.4587999999999999  1.0000
  H   H18       1.0  0.20902000000000004  0.6139  0.47273  1.0000
  H   H19       1.0  0.8569799999999999  0.59549  0.35068  1.0000
  H   H20       1.0  0.64585  0.54201  0.26834  1.0000
  H   H21       1.0  0.91648  0.22053000000000003  0.07545999999999997  1.0000
  H   H22       1.0  0.11838999999999998  0.10267  0.11479999999999997  1.0000
  H   H23       1.0  0.4543799999999998  0.20095000000000005  0.99371  1.0000
  H   H24       1.0  0.7448200000000001  0.11717999999999999  0.9254999999999998  1.0000
  C   C1        1.0  0.18032  0.97515  0.62778  1.0000
  C   C2        1.0  0.33872  0.08655  0.60946  1.0000
  C   C3        1.0  0.96909  0.20715000000000006  0.7098399999999998  1.0000
  C   C4        1.0  0.69254  0.28518  0.71487  1.0000
  C   C5        1.0  0.008850000000000004  0.23509  0.55993  1.0000
  C   C6        1.0  0.73612  0.31575  0.56743  1.0000
  C   C7        1.0  0.38697000000000004  0.43907000000000007  0.66499  1.0000
  C   C8        1.0  0.4447199999999998  0.55092  0.62444  1.0000
  C   C9        1.0  0.3165799999999999  0.8444700000000002  0.81609  1.0000
  C   C10       1.0  0.12571000000000007  0.86232  0.8976999999999998  1.0000
  C   C11       1.0  0.29451999999999984  0.048320000000000016  0.94197  1.0000
  C   C12       1.0  0.45384  0.88534  0.02145  1.0000
  C   C13       1.0  0.81968  0.02484  0.37222  1.0000
  C   C14       1.0  0.6612799999999998  0.91345  0.39053  1.0000
  C   C15       1.0  0.030910000000000007  0.79285  0.29016  1.0000
  C   C16       1.0  0.30745999999999996  0.7148100000000002  0.28513  1.0000
  C   C17       1.0  0.9911499999999999  0.7649100000000002  0.44007  1.0000
  C   C18       1.0  0.26388  0.68425  0.43256  1.0000
  C   C19       1.0  0.61303  0.56093  0.33501  1.0000
  C   C20       1.0  0.5552700000000002  0.44907  0.37556  1.0000
  C   C21       1.0  0.6834199999999998  0.15553  0.1839  1.0000
  C   C22       1.0  0.87429  0.13768  0.1023  1.0000
  C   C23       1.0  0.7054799999999999  0.9516800000000002  0.058029999999999984  1.0000
  C   C24       1.0  0.5461599999999999  0.11465000000000003  0.97855  1.0000
  N   N1        1.0  0.11272000000000001  0.18163  0.62627  1.0000
  N   N2        1.0  0.6577899999999998  0.36127000000000004  0.6516999999999997  1.0000
  N   N3        1.0  0.29614  0.93337  0.95306  1.0000
  N   N4        1.0  0.8872800000000004  0.81837  0.37373  1.0000
  N   N5        1.0  0.34220999999999996  0.63873  0.3483  1.0000
  N   N6        1.0  0.70386  0.06663  0.04694  1.0000
  O   O1        1.0  0.3283800000000001  0.8810500000000002  0.6058199999999998  1.0000
  O   O2        1.0  0.8979499999999999  0.9776500000000002  0.66265  1.0000
  O   O3        1.0  0.14825999999999998  0.21400000000000005  0.48991  1.0000
  O   O4        1.0  0.50404  0.2892  0.77782  1.0000
  O   O5        1.0  0.7001699999999998  0.5668800000000002  0.58027  1.0000
  O   O6        1.0  0.23370999999999992  0.6321  0.64396  1.0000
  O   O7        1.0  0.2043000000000001  0.7767900000000002  0.7604799999999998  1.0000
  O   O8        1.0  0.5818899999999998  0.8922700000000001  0.80281  1.0000
  O   O9        1.0  0.1162  0.09453  0.89326  1.0000
  O   O10       1.0  0.6716199999999998  0.11894  0.39417999999999986  1.0000
  O   O11       1.0  0.10205000000000002  0.022340000000000006  0.33735  1.0000
  O   O12       1.0  0.8517400000000002  0.7860000000000003  0.51009  1.0000
  O   O13       1.0  0.49595999999999996  0.7107900000000001  0.22218  1.0000
  O   O14       1.0  0.2998299999999999  0.43311000000000005  0.41973  1.0000
  O   O15       1.0  0.7662899999999998  0.3679000000000001  0.35603  1.0000
  O   O16       1.0  0.7957  0.22321000000000002  0.23952  1.0000
  O   O17       1.0  0.41811  0.10772000000000002  0.19717999999999994  1.0000
  O   O18       1.0  0.8838  0.9054600000000002  0.10674  1.0000
