data_image0
_chemical_formula_structural       Mn2P4H20C16O12
_chemical_formula_sum              "Mn2 P4 H20 C16 O12"
_cell_length_a       8.55503
_cell_length_b       9.18462
_cell_length_c       10.52227
_cell_angle_alpha    91.47367
_cell_angle_beta     114.12232000000002
_cell_angle_gamma    89.95365

_symmetry_space_group_name_H-M    'P 1'
_symmetry_Int_Tables_number       1

loop_
  _symmetry_equiv_pos_as_xyz
  'x,y,z'

loop_
  _atom_site_type_symbol
  _atom_site_label
  _atom_site_symmetry_multiplicity
  _atom_site_fract_x
  _atom_site_fract_y
  _atom_site_fract_z
  _atom_site_occupancy
  Mn  Mn1       1.0  0.89393  0.24969  1e-05  1.0000
  Mn  Mn2       1.0  0.10606999999999996  0.75031  0.99999  1.0000
  P   P1        1.0  0.17341  0.48772999999999994  0.20804  1.0000
  P   P2        1.0  0.9627700000000001  0.01153  0.79027  1.0000
  P   P3        1.0  0.82659  0.51227  0.79195  1.0000
  P   P4        1.0  0.03724000000000002  0.9884699999999998  0.20973  1.0000
  H   H1        1.0  0.018039999999999987  0.67053  0.21834999999999996  1.0000
  H   H2        1.0  0.20708  0.33535  0.60182  1.0000
  H   H3        1.0  0.14237000000000002  0.27196  0.4272000000000001  1.0000
  H   H4        1.0  0.07916999999999996  0.4464  0.4610099999999999  1.0000
  H   H5        1.0  0.51094  0.59322  0.28589  1.0000
  H   H6        1.0  0.79813  0.8274099999999998  0.77969  1.0000
  H   H7        1.0  0.60407  0.16509  0.39716  1.0000
  H   H8        1.0  0.71462  0.22807999999999998  0.57199  1.0000
  H   H9        1.0  0.61779  0.0539  0.53789  1.0000
  H   H10       1.0  0.2249  0.9063499999999999  0.71483  1.0000
  H   H11       1.0  0.9819600000000002  0.3294699999999999  0.78165  1.0000
  H   H12       1.0  0.79292  0.6646499999999997  0.39818  1.0000
  H   H13       1.0  0.85763  0.7280399999999998  0.5727999999999999  1.0000
  H   H14       1.0  0.92083  0.5535999999999999  0.53898  1.0000
  H   H15       1.0  0.48906000000000005  0.4067799999999999  0.71411  1.0000
  H   H16       1.0  0.20186999999999997  0.17259  0.22030999999999998  1.0000
  H   H17       1.0  0.39593  0.8349099999999998  0.60283  1.0000
  H   H18       1.0  0.28538  0.77193  0.42799999999999994  1.0000
  H   H19       1.0  0.38220999999999994  0.9461  0.46210999999999997  1.0000
  H   H20       1.0  0.7751000000000002  0.09364999999999998  0.28517  1.0000
  C   C1        1.0  0.18540000000000004  0.36856  0.49665999999999993  1.0000
  C   C2        1.0  0.34489000000000003  0.43499999999999994  0.49494000000000005  1.0000
  C   C3        1.0  0.3549400000000001  0.48903  0.37373  1.0000
  C   C4        1.0  0.50772  0.5520899999999999  0.38083  1.0000
  C   C5        1.0  0.6880900000000002  0.13171  0.50224  1.0000
  C   C6        1.0  0.84954  0.0652  0.50423  1.0000
  C   C7        1.0  0.98071  0.010940000000000004  0.62573  1.0000
  C   C8        1.0  0.12687000000000007  0.94765  0.61962  1.0000
  C   C9        1.0  0.8146000000000002  0.63144  0.50334  1.0000
  C   C10       1.0  0.65511  0.5649999999999998  0.50506  1.0000
  C   C11       1.0  0.6450700000000001  0.51097  0.62627  1.0000
  C   C12       1.0  0.49228  0.4479099999999999  0.61917  1.0000
  C   C13       1.0  0.31191  0.8683  0.49776000000000004  1.0000
  C   C14       1.0  0.15045999999999998  0.9348  0.49576999999999993  1.0000
  C   C15       1.0  0.01930000000000002  0.9890599999999998  0.37427  1.0000
  C   C16       1.0  0.87313  0.05235  0.38038  1.0000
  O   O1        1.0  0.11730000000000002  0.3290899999999999  0.16156  1.0000
  O   O2        1.0  0.2193  0.57416  0.10535  1.0000
  O   O3        1.0  0.018139999999999993  0.56246  0.23225  1.0000
  O   O4        1.0  0.95248  0.16987  0.8373500000000001  1.0000
  O   O5        1.0  0.11172999999999993  0.92551  0.8939399999999998  1.0000
  O   O6        1.0  0.78311  0.9352299999999999  0.76282  1.0000
  O   O7        1.0  0.8827000000000002  0.6709099999999999  0.83844  1.0000
  O   O8        1.0  0.7807  0.42584  0.8946499999999998  1.0000
  O   O9        1.0  0.9818600000000001  0.43754  0.76774  1.0000
  O   O10       1.0  0.047519999999999986  0.83013  0.16265  1.0000
  O   O11       1.0  0.88827  0.07449  0.10606  1.0000
  O   O12       1.0  0.2169  0.06477  0.23717999999999997  1.0000
