data_image0
_chemical_formula_structural       Er2H24C24N6O18
_chemical_formula_sum              "Er2 H24 C24 N6 O18"
_cell_length_a       7.78907
_cell_length_b       12.3229
_cell_length_c       13.25979
_cell_angle_alpha    112.90702999999999
_cell_angle_beta     105.08805999999998
_cell_angle_gamma    92.17915000000002

_space_group_name_H-M_alt    "P 1"
_space_group_IT_number       1

loop_
  _space_group_symop_operation_xyz
  'x, y, z'

loop_
  _atom_site_type_symbol
  _atom_site_label
  _atom_site_symmetry_multiplicity
  _atom_site_fract_x
  _atom_site_fract_y
  _atom_site_fract_z
  _atom_site_occupancy
  Er  Er1       1.0  0.74554  0.99207  0.00784  1.0000
  Er  Er2       1.0  0.25446  0.007930000000000052  0.99216  1.0000
  H   H1        1.0  0.05719000000000005  0.14078000000000002  0.41195000000000004  1.0000
  H   H2        1.0  0.049220000000000055  0.2791100000000001  0.3976000000000001  1.0000
  H   H3        1.0  0.27633  0.23099  0.28898  1.0000
  H   H4        1.0  0.30076000000000014  0.10043000000000006  0.31538000000000005  1.0000
  H   H5        1.0  0.5995  0.10752000000000002  0.66688  1.0000
  H   H6        1.0  0.70869  0.2415599999999999  0.78991  1.0000
  H   H7        1.0  0.4416700000000001  0.24607000000000004  0.86264  1.0000
  H   H8        1.0  0.3293200000000001  0.11245  0.74298  1.0000
  H   H9        1.0  0.6388500000000001  0.60153  0.7809000000000001  1.0000
  H   H10       1.0  0.51353  0.6063200000000001  0.6496400000000001  1.0000
  H   H11       1.0  0.34399  0.59028  0.82962  1.0000
  H   H12       1.0  0.23251000000000002  0.61532  0.7087  1.0000
  H   H13       1.0  0.9428100000000005  0.85922  0.5880500000000001  1.0000
  H   H14       1.0  0.95077  0.72089  0.60241  1.0000
  H   H15       1.0  0.72366  0.7690100000000001  0.71102  1.0000
  H   H16       1.0  0.6992400000000002  0.89957  0.6846200000000001  1.0000
  H   H17       1.0  0.4004900000000001  0.89248  0.33313  1.0000
  H   H18       1.0  0.29130000000000006  0.75844  0.21009000000000005  1.0000
  H   H19       1.0  0.55832  0.7539300000000001  0.13737  1.0000
  H   H20       1.0  0.67067  0.8875500000000001  0.25703  1.0000
  H   H21       1.0  0.36114  0.39847  0.21910000000000004  1.0000
  H   H22       1.0  0.48646000000000017  0.39368  0.35036  1.0000
  H   H23       1.0  0.656  0.40971  0.17038000000000003  1.0000
  H   H24       1.0  0.76748  0.38468  0.2913  1.0000
  C   C1        1.0  0.33563000000000015  0.3946200000000001  0.5543700000000001  1.0000
  C   C2        1.0  0.3628  0.19932  0.56481  1.0000
  C   C3        1.0  0.53572  0.38481000000000004  0.72845  1.0000
  C   C4        1.0  0.13427000000000006  0.21228000000000005  0.40506000000000003  1.0000
  C   C5        1.0  0.20607000000000003  0.16099000000000005  0.30166000000000004  1.0000
  C   C6        1.0  0.05832000000000001  0.08813  0.19275  1.0000
  C   C7        1.0  0.5784  0.18959000000000004  0.73167  1.0000
  C   C8        1.0  0.46312  0.16220999999999994  0.79897  1.0000
  C   C9        1.0  0.5530600000000001  0.09349000000000011  0.8646400000000002  1.0000
  C   C10       1.0  0.5064300000000002  0.5779900000000001  0.7171900000000001  1.0000
  C   C11       1.0  0.36365  0.6325400000000001  0.77313  1.0000
  C   C12       1.0  0.4113300000000002  0.7655500000000001  0.8479300000000002  1.0000
  C   C13       1.0  0.6643600000000002  0.60538  0.44563  1.0000
  C   C14       1.0  0.6372  0.80067  0.43519  1.0000
  C   C15       1.0  0.46427000000000007  0.61519  0.27155000000000007  1.0000
  C   C16       1.0  0.86572  0.78772  0.59494  1.0000
  C   C17       1.0  0.79392  0.83901  0.6983400000000001  1.0000
  C   C18       1.0  0.9416700000000002  0.91186  0.8072500000000001  1.0000
  C   C19       1.0  0.4216  0.8104100000000001  0.26833  1.0000
  C   C20       1.0  0.53687  0.8377900000000001  0.20103  1.0000
  C   C21       1.0  0.44694  0.90651  0.13536  1.0000
  C   C22       1.0  0.49356  0.42201  0.28281  1.0000
  C   C23       1.0  0.6363400000000002  0.36745000000000005  0.22687  1.0000
  C   C24       1.0  0.5886600000000002  0.23445  0.15207  1.0000
  N   N1        1.0  0.46262000000000014  0.44681000000000004  0.6628600000000001  1.0000
  N   N2        1.0  0.28121  0.27167  0.51323  1.0000
  N   N3        1.0  0.4924500000000002  0.26045  0.67112  1.0000
  N   N4        1.0  0.5373799999999997  0.55319  0.33714  1.0000
  N   N5        1.0  0.7187800000000002  0.72833  0.4867800000000001  1.0000
  N   N6        1.0  0.50754  0.7395500000000002  0.32888  1.0000
  O   O1        1.0  0.9321900000000002  0.019659999999999997  0.1916  1.0000
  O   O2        1.0  0.05938  0.09718000000000002  0.09826  1.0000
  O   O3        1.0  0.5755400000000004  0.81382  0.8785200000000002  1.0000
  O   O4        1.0  0.28382  0.81839  0.87701  1.0000
  O   O5        1.0  0.4621900000000001  0.0443  0.90849  1.0000
  O   O6        1.0  0.7186800000000003  0.08504000000000006  0.8793300000000002  1.0000
  O   O7        1.0  0.6341300000000002  0.43489999999999995  0.82755  1.0000
  O   O8        1.0  0.2735800000000001  0.45268  0.50024  1.0000
  O   O9        1.0  0.3219  0.09029000000000004  0.52025  1.0000
  O   O10       1.0  0.06780000000000001  0.98034  0.8084  1.0000
  O   O11       1.0  0.94061  0.90282  0.90174  1.0000
  O   O12       1.0  0.4244600000000001  0.18618  0.12148000000000002  1.0000
  O   O13       1.0  0.71618  0.18161  0.12299000000000002  1.0000
  O   O14       1.0  0.53781  0.9557  0.09151  1.0000
  O   O15       1.0  0.28130999999999995  0.91496  0.12067  1.0000
  O   O16       1.0  0.36586  0.5650999999999999  0.17245  1.0000
  O   O17       1.0  0.7264100000000002  0.5473200000000001  0.4997600000000001  1.0000
  O   O18       1.0  0.6781  0.9097000000000001  0.47976  1.0000
