data_image0
_chemical_formula_structural       Lu2H22C24N6O14
_chemical_formula_sum              "Lu2 H22 C24 N6 O14"
_cell_length_a       10.18044
_cell_length_b       10.07978
_cell_length_c       11.14036
_cell_angle_alpha    103.22442
_cell_angle_beta     116.04879000000001
_cell_angle_gamma    92.35003

_space_group_name_H-M_alt    "P 1"
_space_group_IT_number       1

loop_
  _space_group_symop_operation_xyz
  'x, y, z'

loop_
  _atom_site_type_symbol
  _atom_site_label
  _atom_site_symmetry_multiplicity
  _atom_site_fract_x
  _atom_site_fract_y
  _atom_site_fract_z
  _atom_site_occupancy
  Lu  Lu1       1.0  0.47848999999999997  0.24003  0.03023  1.0000
  Lu  Lu2       1.0  0.52151  0.75997  0.96977  1.0000
  H   H1        1.0  0.28033  0.022920000000000024  0.7606  1.0000
  H   H2        1.0  0.44378  0.9907099999999999  0.82221  1.0000
  H   H3        1.0  0.21723  0.178  0.16701  1.0000
  H   H4        1.0  0.25983  0.60378  0.16351  1.0000
  H   H5        1.0  0.9107799999999999  0.57587  0.28528999999999993  1.0000
  H   H6        1.0  0.94292  0.6835  0.77795  1.0000
  H   H7        1.0  0.13291  0.7314199999999998  0.86453  1.0000
  H   H8        1.0  0.8428100000000001  0.1783  0.7962699999999999  1.0000
  H   H9        1.0  0.01850999999999998  0.1905  0.81674  1.0000
  H   H10       1.0  0.72349  0.25553  0.44127  1.0000
  H   H11       1.0  0.8583600000000001  0.27029  0.6125  1.0000
  H   H12       1.0  0.71967  0.97708  0.2394  1.0000
  H   H13       1.0  0.55622  0.009290000000000001  0.17779  1.0000
  H   H14       1.0  0.78277  0.82199  0.83299  1.0000
  H   H15       1.0  0.74018  0.39621000000000006  0.8365000000000001  1.0000
  H   H16       1.0  0.08921999999999997  0.42413  0.71471  1.0000
  H   H17       1.0  0.05708999999999998  0.3165  0.22205  1.0000
  H   H18       1.0  0.8670899999999999  0.26858  0.13546999999999998  1.0000
  H   H19       1.0  0.1572  0.8217  0.20373  1.0000
  H   H20       1.0  0.9815  0.8095  0.18326  1.0000
  H   H21       1.0  0.27651  0.74447  0.55874  1.0000
  H   H22       1.0  0.14164  0.72971  0.3875  1.0000
  C   C1        1.0  0.11612999999999987  0.43179999999999996  0.9954399999999999  1.0000
  C   C2        1.0  0.72086  0.37656999999999996  0.26073  1.0000
  C   C3        1.0  0.29362  0.9715899999999998  0.03299  1.0000
  C   C4        1.0  0.12058  0.10056999999999999  0.09381999999999999  1.0000
  C   C5        1.0  0.14188  0.9821  0.01362  1.0000
  C   C6        1.0  0.96764  0.36796  0.90274  1.0000
  C   C7        1.0  0.86241  0.43796999999999997  0.38549  1.0000
  C   C8        1.0  0.14492999999999998  0.56049  0.09076999999999999  1.0000
  C   C9        1.0  0.018290000000000025  0.87654  0.91605  1.0000
  C   C10       1.0  0.95198  0.5437699999999999  0.38042  1.0000
  C   C11       1.0  0.91039  0.39061  0.50757  1.0000
  C   C12       1.0  0.2458099999999999  0.36816  0.9995899999999999  1.0000
  C   C13       1.0  0.8838799999999999  0.5682  0.004559999999999999  1.0000
  C   C14       1.0  0.27915  0.6234299999999999  0.73928  1.0000
  C   C15       1.0  0.7063799999999998  0.02840999999999993  0.9670099999999999  1.0000
  C   C16       1.0  0.8794200000000001  0.89942  0.90618  1.0000
  C   C17       1.0  0.8581199999999999  0.017900000000000006  0.98639  1.0000
  C   C18       1.0  0.03237  0.63204  0.09726  1.0000
  C   C19       1.0  0.13760000000000003  0.56202  0.61452  1.0000
  C   C20       1.0  0.85507  0.43950999999999996  0.90924  1.0000
  C   C21       1.0  0.98171  0.12345999999999997  0.08396  1.0000
  C   C22       1.0  0.04802000000000003  0.45623  0.61958  1.0000
  C   C23       1.0  0.08960999999999993  0.6093899999999999  0.4924299999999999  1.0000
  C   C24       1.0  0.75419  0.63184  0.00041  1.0000
  N   N1        1.0  0.03120999999999995  0.76077  0.83117  1.0000
  N   N2        1.0  0.92955  0.23985  0.80407  1.0000
  N   N3        1.0  0.83098  0.28194  0.51581  1.0000
  N   N4        1.0  0.96879  0.23923  0.16883  1.0000
  N   N5        1.0  0.07045  0.76015  0.19593  1.0000
  N   N6        1.0  0.16902000000000003  0.71805  0.4842000000000001  1.0000
  O   O1        1.0  0.3753  0.42009  0.09967  1.0000
  O   O2        1.0  0.68245  0.41307  0.14773  1.0000
  O   O3        1.0  0.39467  0.08131  0.10009  1.0000
  O   O4        1.0  0.23154000000000002  0.25872  0.9043499999999999  1.0000
  O   O5        1.0  0.3245700000000001  0.85597  0.98632  1.0000
  O   O6        1.0  0.63271  0.27901  0.25998  1.0000
  O   O7        1.0  0.38341  0.06648  0.8145  1.0000
  O   O8        1.0  0.6246999999999999  0.5799  0.9003399999999999  1.0000
  O   O9        1.0  0.31755999999999995  0.58693  0.85227  1.0000
  O   O10       1.0  0.60534  0.91869  0.89991  1.0000
  O   O11       1.0  0.76846  0.74128  0.09565  1.0000
  O   O12       1.0  0.67544  0.14403  0.01368  1.0000
  O   O13       1.0  0.36729  0.7209899999999999  0.74002  1.0000
  O   O14       1.0  0.6166  0.9335199999999999  0.1855  1.0000
