data_image0
_chemical_formula_structural       Ce2H8C24O18
_chemical_formula_sum              "Ce2 H8 C24 O18"
_cell_length_a       10.65153
_cell_length_b       11.10797
_cell_length_c       12.45589
_cell_angle_alpha    104.10437
_cell_angle_beta     106.59478
_cell_angle_gamma    98.65073

_space_group_name_H-M_alt    "P 1"
_space_group_IT_number       1

loop_
  _space_group_symop_operation_xyz
  'x, y, z'

loop_
  _atom_site_type_symbol
  _atom_site_label
  _atom_site_symmetry_multiplicity
  _atom_site_fract_x
  _atom_site_fract_y
  _atom_site_fract_z
  _atom_site_occupancy
  Ce  Ce1       1.0  0.09054000000000001  0.05950000000000004  0.67725  1.0000
  Ce  Ce2       1.0  0.91103  0.94048  0.32226  1.0000
  H   H1        1.0  0.00817000000000003  0.66001  0.68008  1.0000
  H   H2        1.0  0.3836500000000001  0.06392  0.64481  1.0000
  H   H3        1.0  0.91887  0.63065  0.29067  1.0000
  H   H4        1.0  0.17573  0.41721  0.94235  1.0000
  H   H5        1.0  0.9917900000000006  0.34022  0.31991  1.0000
  H   H6        1.0  0.61622  0.93599  0.35506  1.0000
  H   H7        1.0  0.08129999999999997  0.36952  0.70877  1.0000
  H   H8        1.0  0.82384  0.58269  0.05742  1.0000
  C   C1        1.0  0.20396  0.96045  0.4251499999999999  1.0000
  C   C2        1.0  0.95328  0.74732  0.49786  1.0000
  C   C3        1.0  0.005210000000000028  0.58955  0.60163  1.0000
  C   C4        1.0  0.42350000000000004  0.9452699999999999  0.37598  1.0000
  C   C5        1.0  0.53118  0.39926  0.9413  1.0000
  C   C6        1.0  0.36079000000000006  0.49741  0.99326  1.0000
  C   C7        1.0  0.35341  0.97994  0.4625  1.0000
  C   C8        1.0  0.96736  0.52762  0.39034  1.0000
  C   C9        1.0  0.39677  0.38833  0.92961  1.0000
  C   C10       1.0  0.9742600000000001  0.61921  0.49553  1.0000
  C   C11       1.0  0.29294999999999993  0.26999  0.85698  1.0000
  C   C12       1.0  0.42816  0.032780000000000024  0.57745  1.0000
  C   C13       1.0  0.79634  0.03975999999999997  0.5748  1.0000
  C   C14       1.0  0.04624  0.25275  0.50257  1.0000
  C   C15       1.0  0.9944100000000001  0.41059  0.39832  1.0000
  C   C16       1.0  0.5763600000000001  0.054880000000000005  0.62375  1.0000
  C   C17       1.0  0.46853  0.60025  0.05848999999999999  1.0000
  C   C18       1.0  0.63882  0.50205  0.00663  1.0000
  C   C19       1.0  0.6466599999999999  0.020090000000000025  0.53733  1.0000
  C   C20       1.0  0.03227999999999999  0.47261000000000003  0.60967  1.0000
  C   C21       1.0  0.6027900000000002  0.61124  0.06969  1.0000
  C   C22       1.0  0.026380000000000015  0.38136  0.50467  1.0000
  C   C23       1.0  0.70643  0.72967  0.1431  1.0000
  C   C24       1.0  0.57185  0.96724  0.42240999999999995  1.0000
  O   O1        1.0  0.9827500000000001  0.8338200000000001  0.59572  1.0000
  O   O2        1.0  0.9126700000000001  0.7683  0.39731  1.0000
  O   O3        1.0  0.1701  0.26086999999999994  0.8547699999999999  1.0000
  O   O4        1.0  0.32327999999999996  0.17653  0.7928499999999999  1.0000
  O   O5        1.0  0.14950999999999998  0.98012  0.5061  1.0000
  O   O6        1.0  0.13351000000000005  0.92798  0.31741  1.0000
  O   O7        1.0  0.36526  0.90029  0.26878  1.0000
  O   O8        1.0  0.93829  0.54526  0.28306  1.0000
  O   O9        1.0  0.23468000000000008  0.50254  0.99087  1.0000
  O   O10       1.0  0.01720999999999997  0.16624  0.40525  1.0000
  O   O11       1.0  0.08983  0.23262  0.60338  1.0000
  O   O12       1.0  0.82899  0.7391899999999999  0.14445  1.0000
  O   O13       1.0  0.6754300000000002  0.82271  0.20641  1.0000
  O   O14       1.0  0.85092  0.01925000000000001  0.49461  1.0000
  O   O15       1.0  0.8654900000000001  0.07174999999999997  0.68256  1.0000
  O   O16       1.0  0.6340000000000001  0.09953  0.73126  1.0000
  O   O17       1.0  0.06161000000000002  0.45481000000000005  0.71685  1.0000
  O   O18       1.0  0.76526  0.49738  0.00907  1.0000
