data_image0
_chemical_formula_structural       Co2H22C36N4O9
_chemical_formula_sum              "Co2 H22 C36 N4 O9"
_cell_length_a       7.86
_cell_length_b       11.22341
_cell_length_c       12.945379999999998
_cell_angle_alpha    103.66999
_cell_angle_beta     107.89948
_cell_angle_gamma    89.73567999999999

_space_group_name_H-M_alt    "P 1"
_space_group_IT_number       1

loop_
  _space_group_symop_operation_xyz
  'x, y, z'

loop_
  _atom_site_type_symbol
  _atom_site_label
  _atom_site_symmetry_multiplicity
  _atom_site_fract_x
  _atom_site_fract_y
  _atom_site_fract_z
  _atom_site_occupancy
  Co  Co1       1.0  0.67073  0.93449  0.38123000000000007  1.0000
  Co  Co2       1.0  0.29331000000000007  0.06796000000000003  0.6222700000000001  1.0000
  H   H1        1.0  0.1352600000000001  0.7995299999999999  0.9763  1.0000
  H   H2        1.0  0.87979  0.6974700000000001  0.8055500000000001  1.0000
  H   H3        1.0  0.78301  0.79665  0.6451400000000002  1.0000
  H   H4        1.0  0.6909700000000002  0.1781800000000001  0.5459600000000001  1.0000
  H   H5        1.0  0.68233  0.39971  0.54353  1.0000
  H   H6        1.0  0.70525  0.29138  0.20438  1.0000
  H   H7        1.0  0.7131900000000002  0.07561000000000001  0.22237000000000007  1.0000
  H   H8        1.0  0.52104  0.54424  0.47755  1.0000
  H   H9        1.0  0.54089  0.7677600000000001  0.48349000000000003  1.0000
  H   H10       1.0  0.8420200000000004  0.71284  0.26718  1.0000
  H   H11       1.0  0.8473000000000003  0.48847  0.25773000000000007  1.0000
  H   H12       1.0  0.16086  0.20272000000000004  0.02558  1.0000
  H   H13       1.0  0.07390000000000001  0.30572  0.19509000000000004  1.0000
  H   H14       1.0  0.13549  0.20623  0.35542  1.0000
  H   H15       1.0  0.15086000000000002  0.82601  0.45611000000000007  1.0000
  H   H16       1.0  0.14006000000000007  0.60447  0.4573600000000001  1.0000
  H   H17       1.0  0.5053600000000001  0.70799  0.7966300000000001  1.0000
  H   H18       1.0  0.5002  0.92392  0.77977  1.0000
  H   H19       1.0  0.045590000000000054  0.45783999999999997  0.5225400000000001  1.0000
  H   H20       1.0  0.059610000000000066  0.23435  0.51762  1.0000
  H   H21       1.0  0.5786200000000001  0.2874900000000001  0.7343300000000001  1.0000
  H   H22       1.0  0.59345  0.51135  0.74328  1.0000
  C   C1        1.0  0.92175  0.9944500000000001  0.6184000000000001  1.0000
  C   C2        1.0  0.9866999999999999  0.94467  0.72001  1.0000
  C   C3        1.0  0.13288000000000003  0.0015300000000000235  0.8149000000000001  1.0000
  C   C4        1.0  0.1799  0.9466900000000001  0.90585  1.0000
  C   C5        1.0  0.09107000000000003  0.83817  0.90346  1.0000
  C   C6        1.0  0.9489500000000001  0.7826  0.8086100000000002  1.0000
  C   C7        1.0  0.8960899999999999  0.8365099999999999  0.71853  1.0000
  C   C8        1.0  0.6937  0.20840999999999998  0.4726  1.0000
  C   C9        1.0  0.68796  0.33123000000000014  0.46986000000000006  1.0000
  C   C10       1.0  0.6931600000000002  0.36599  0.37332  1.0000
  C   C11       1.0  0.7045  0.27218  0.28278  1.0000
  C   C12       1.0  0.70881  0.15107000000000004  0.29163000000000006  1.0000
  C   C13       1.0  0.68912  0.49658  0.37042  1.0000
  C   C14       1.0  0.5989700000000001  0.57758  0.43246  1.0000
  C   C15       1.0  0.6081  0.702  0.43608  1.0000
  C   C16       1.0  0.7776400000000002  0.672  0.31529000000000007  1.0000
  C   C17       1.0  0.77701  0.54641  0.30889000000000005  1.0000
  C   C18       1.0  0.23152000000000006  0.12200000000000004  0.82525  1.0000
  C   C19       1.0  0.30137000000000014  0.007010000000000028  0.3830400000000001  1.0000
  C   C20       1.0  0.26332  0.05637  0.28108  1.0000
  C   C21       1.0  0.31544  0.99901  0.18674  1.0000
  C   C22       1.0  0.27283  0.05416  0.09603  1.0000
  C   C23       1.0  0.18665  0.16339  0.09789000000000003  1.0000
  C   C24       1.0  0.13823  0.21939  0.19211000000000003  1.0000
  C   C25       1.0  0.17419  0.16515  0.28201  1.0000
  C   C26       1.0  0.22625000000000006  0.79468  0.5293000000000001  1.0000
  C   C27       1.0  0.22085  0.67175  0.5314800000000001  1.0000
  C   C28       1.0  0.32273000000000013  0.6354900000000002  0.6276  1.0000
  C   C29       1.0  0.42633  0.7283000000000001  0.71844  1.0000
  C   C30       1.0  0.4242900000000001  0.8496100000000001  0.7101900000000002  1.0000
  C   C31       1.0  0.32138  0.50476  0.63026  1.0000
  C   C32       1.0  0.16894  0.4242  0.56813  1.0000
  C   C33       1.0  0.17435  0.2998100000000001  0.5650800000000001  1.0000
  C   C34       1.0  0.46559999999999996  0.3288  0.68615  1.0000
  C   C35       1.0  0.4713500000000001  0.45424000000000003  0.6921000000000002  1.0000
  C   C36       1.0  0.40445000000000003  0.87819  0.17682  1.0000
  N   N1        1.0  0.69983  0.74994  0.3809  1.0000
  N   N2        1.0  0.704  0.11875000000000001  0.38496  1.0000
  N   N3        1.0  0.32164000000000004  0.25134000000000006  0.6208200000000001  1.0000
  N   N4        1.0  0.32648  0.88328  0.61708  1.0000
  O   O1        1.0  0.75896  0.96456  0.55678  1.0000
  O   O2        1.0  0.02508000000000003  0.06299000000000003  0.5940200000000001  1.0000
  O   O3        1.0  0.1827700000000001  0.21944000000000008  0.8711200000000002  1.0000
  O   O4        1.0  0.36773999999999996  0.11457  0.78563  1.0000
  O   O5        1.0  0.20137000000000008  0.03688000000000001  0.44510000000000005  1.0000
  O   O6        1.0  0.42986000000000013  0.9380000000000001  0.40698  1.0000
  O   O7        1.0  0.30937000000000003  0.7812  0.13021  1.0000
  O   O8        1.0  0.58055  0.8852  0.21766  1.0000
  O   O9        1.0  0.32448  0.00036999999999999994  0.00149  1.0000
