data_image0
_chemical_formula_structural       Eu2H18C36N6O12
_chemical_formula_sum              "Eu2 H18 C36 N6 O12"
_cell_length_a       12.65373
_cell_length_b       13.95548
_cell_length_c       14.21506
_cell_angle_alpha    115.98358000000002
_cell_angle_beta     94.16164
_cell_angle_gamma    109.85089

_symmetry_space_group_name_H-M    'P 1'
_symmetry_Int_Tables_number       1

loop_
  _symmetry_equiv_pos_as_xyz
  'x,y,z'

loop_
  _atom_site_type_symbol
  _atom_site_label
  _atom_site_symmetry_multiplicity
  _atom_site_fract_x
  _atom_site_fract_y
  _atom_site_fract_z
  _atom_site_occupancy
  Eu  Eu1       1.0  0.6619600000000002  0.5449  0.54744  1.0000
  Eu  Eu2       1.0  0.33799  0.45525  0.45265  1.0000
  H   H1        1.0  0.5926400000000001  0.18037  0.50723  1.0000
  H   H2        1.0  0.18028  0.90519  0.3622  1.0000
  H   H3        1.0  0.24110000000000004  0.09142000000000004  0.3521700000000001  1.0000
  H   H4        1.0  0.7048800000000002  0.60922  0.33627000000000007  1.0000
  H   H5        1.0  0.8003700000000002  0.66292  0.20757  1.0000
  H   H6        1.0  0.37611000000000006  0.43894999999999995  0.09597000000000001  1.0000
  H   H7        1.0  0.034659999999999996  0.89943  0.76354  1.0000
  H   H8        1.0  0.14555000000000004  0.10435000000000001  0.79578  1.0000
  H   H9        1.0  0.8858  0.8011100000000001  0.43541000000000013  1.0000
  H   H10       1.0  0.4073300000000001  0.8196399999999999  0.49268000000000006  1.0000
  H   H11       1.0  0.8196600000000003  0.09479999999999995  0.63789  1.0000
  H   H12       1.0  0.7587900000000002  0.9083699999999999  0.64765  1.0000
  H   H13       1.0  0.29496000000000006  0.39054  0.66367  1.0000
  H   H14       1.0  0.19961000000000015  0.3372300000000001  0.7925300000000001  1.0000
  H   H15       1.0  0.6239600000000001  0.56094  0.90379  1.0000
  H   H16       1.0  0.9651400000000003  0.10047000000000002  0.23645000000000002  1.0000
  H   H17       1.0  0.8543900000000002  0.8954199999999999  0.20424  1.0000
  H   H18       1.0  0.11412000000000003  0.19870999999999997  0.56459  1.0000
  C   C1        1.0  0.46009  0.26575  0.43128  1.0000
  C   C2        1.0  0.42171  0.15003000000000008  0.4293400000000001  1.0000
  C   C3        1.0  0.5005600000000001  0.12198000000000002  0.47391  1.0000
  C   C4        1.0  0.45932  0.016360000000000024  0.4764300000000001  1.0000
  C   C5        1.0  0.2710800000000001  0.96803  0.3926  1.0000
  C   C6        1.0  0.3043  0.07113  0.38687  1.0000
  C   C7        1.0  0.4682700000000001  0.48773  0.29948  1.0000
  C   C8        1.0  0.53246  0.519  0.22531000000000004  1.0000
  C   C9        1.0  0.6533  0.58279  0.25742  1.0000
  C   C10       1.0  0.7065400000000001  0.61185  0.18507  1.0000
  C   C11       1.0  0.5314300000000001  0.51724  0.05497  1.0000
  C   C12       1.0  0.47035  0.48651  0.12311  1.0000
  C   C13       1.0  0.87735  0.71494  0.57516  1.0000
  C   C14       1.0  0.9527300000000002  0.83514  0.59654  1.0000
  C   C15       1.0  0.02662000000000008  0.9213199999999999  0.69953  1.0000
  C   C16       1.0  0.08678000000000001  0.034569999999999955  0.71695  1.0000
  C   C17       1.0  0.005380000000000069  0.98182  0.5414  1.0000
  C   C18       1.0  0.94287  0.86547  0.51608  1.0000
  C   C19       1.0  0.5397800000000001  0.73412  0.56887  1.0000
  C   C20       1.0  0.5782600000000001  0.8497300000000001  0.57056  1.0000
  C   C21       1.0  0.4994200000000001  0.8778  0.52596  1.0000
  C   C22       1.0  0.5406300000000002  0.9835  0.52357  1.0000
  C   C23       1.0  0.72885  0.03186999999999992  0.60735  1.0000
  C   C24       1.0  0.69564  0.92863  0.61286  1.0000
  C   C25       1.0  0.5316300000000003  0.5121300000000001  0.70052  1.0000
  C   C26       1.0  0.46747999999999995  0.48084999999999994  0.77463  1.0000
  C   C27       1.0  0.34664  0.41702  0.74251  1.0000
  C   C28       1.0  0.29346000000000017  0.38815000000000016  0.8149700000000002  1.0000
  C   C29       1.0  0.4686700000000001  0.48275999999999997  0.94501  1.0000
  C   C30       1.0  0.5297  0.51337  0.8768  1.0000
  C   C31       1.0  0.12265000000000001  0.28499  0.42494000000000004  1.0000
  C   C32       1.0  0.047199999999999985  0.16469999999999996  0.40343  1.0000
  C   C33       1.0  0.9733300000000003  0.07850999999999997  0.30044  1.0000
  C   C34       1.0  0.9131900000000002  0.96525  0.28304  1.0000
  C   C35       1.0  0.99461  0.01801000000000003  0.4586100000000001  1.0000
  C   C36       1.0  0.057110000000000036  0.13435  0.48391  1.0000
  N   N1        1.0  0.34618999999999994  0.9414999999999999  0.43678  1.0000
  N   N2        1.0  0.64769  0.57948  0.08647000000000002  1.0000
  N   N3        1.0  0.07621  0.06538999999999999  0.6408  1.0000
  N   N4        1.0  0.6537  0.05852  0.56338  1.0000
  N   N5        1.0  0.35237000000000007  0.42072  0.91362  1.0000
  N   N6        1.0  0.9237600000000001  0.93445  0.35923  1.0000
  O   O1        1.0  0.56792  0.33404  0.46737  1.0000
  O   O2        1.0  0.38005000000000005  0.28847  0.3987  1.0000
  O   O3        1.0  0.52746  0.50199  0.38638  1.0000
  O   O4        1.0  0.35865  0.45041  0.27714  1.0000
  O   O5        1.0  0.86847  0.69427  0.65349  1.0000
  O   O6        1.0  0.8147500000000001  0.6363  0.47805000000000003  1.0000
  O   O7        1.0  0.43194  0.66585  0.53251  1.0000
  O   O8        1.0  0.6197200000000003  0.71155  0.60185  1.0000
  O   O9        1.0  0.47241000000000005  0.49789  0.61364  1.0000
  O   O10       1.0  0.64128  0.5495200000000002  0.7229  1.0000
  O   O11       1.0  0.13153  0.30587  0.3467100000000001  1.0000
  O   O12       1.0  0.18529000000000007  0.36348  0.52204  1.0000
