data_image0
_chemical_formula_structural       Ga4H16C32O20
_chemical_formula_sum              "Ga4 H16 C32 O20"
_cell_length_a       6.94417
_cell_length_b       12.19367
_cell_length_c       17.760420000000003
_cell_angle_alpha    90.00045
_cell_angle_beta     90.00811
_cell_angle_gamma    90.00178999999999

_symmetry_space_group_name_H-M    'P 1'
_symmetry_Int_Tables_number       1

loop_
  _symmetry_equiv_pos_as_xyz
  'x,y,z'

loop_
  _atom_site_type_symbol
  _atom_site_label
  _atom_site_symmetry_multiplicity
  _atom_site_fract_x
  _atom_site_fract_y
  _atom_site_fract_z
  _atom_site_occupancy
  Ga  Ga1       1.0  0.5001  0.00025  0.49995  1.0000
  Ga  Ga2       1.0  0.50004  0.49987999999999994  0.9999900000000002  1.0000
  Ga  Ga3       1.0  0.00106  0.9993  0.5001900000000002  1.0000
  Ga  Ga4       1.0  0.0004799999999999999  0.50031  2e-05  1.0000
  H   H1        1.0  0.55894  0.7831799999999999  0.32142  1.0000
  H   H2        1.0  0.5590399999999999  0.67928  0.19838000000000003  1.0000
  H   H3        1.0  0.44108  0.28314  0.17797000000000004  1.0000
  H   H4        1.0  0.44078  0.1802  0.3015100000000001  1.0000
  H   H5        1.0  0.05773  0.21677000000000002  0.67867  1.0000
  H   H6        1.0  0.05785999999999999  0.32081  0.80157  1.0000
  H   H7        1.0  0.94224  0.71689  0.8218200000000001  1.0000
  H   H8        1.0  0.9424199999999998  0.8199900000000001  0.6984600000000002  1.0000
  H   H9        1.0  0.44108999999999987  0.21683  0.6785800000000001  1.0000
  H   H10       1.0  0.4409899999999999  0.32072  0.80162  1.0000
  H   H11       1.0  0.55896  0.71686  0.82204  1.0000
  H   H12       1.0  0.55926  0.8198100000000001  0.6984900000000002  1.0000
  H   H13       1.0  0.94231  0.78324  0.32133  1.0000
  H   H14       1.0  0.94217  0.6792  0.19843000000000005  1.0000
  H   H15       1.0  0.05779  0.28311  0.17818000000000006  1.0000
  H   H16       1.0  0.05762999999999999  0.18000999999999998  0.30155  1.0000
  C   C1        1.0  0.4260799999999999  0.75957  0.29382  1.0000
  C   C2        1.0  0.4261199999999999  0.70248  0.22609000000000004  1.0000
  C   C3        1.0  0.57381  0.25972  0.20575  1.0000
  C   C4        1.0  0.57366  0.20338  0.2737500000000001  1.0000
  C   C5        1.0  0.9247399999999999  0.24038  0.7062000000000003  1.0000
  C   C6        1.0  0.9247999999999997  0.29759  0.77391  1.0000
  C   C7        1.0  0.07522  0.74027  0.7942  1.0000
  C   C8        1.0  0.07529999999999998  0.79672  0.72622  1.0000
  C   C9        1.0  0.57397  0.24044  0.70617  1.0000
  C   C10       1.0  0.57393  0.29752  0.77391  1.0000
  C   C11       1.0  0.4262399999999999  0.7402800000000002  0.79426  1.0000
  C   C12       1.0  0.42638999999999994  0.7966299999999998  0.72627  1.0000
  C   C13       1.0  0.07529999999999998  0.75963  0.2938  1.0000
  C   C14       1.0  0.07523999999999997  0.70242  0.22609000000000004  1.0000
  C   C15       1.0  0.9248199999999998  0.25973  0.20581000000000005  1.0000
  C   C16       1.0  0.9247499999999997  0.20328  0.27379  1.0000
  C   C17       1.0  0.25136  0.8581400000000001  0.3978500000000001  1.0000
  C   C18       1.0  0.25077  0.78961  0.32736  1.0000
  C   C19       1.0  0.25072  0.67377  0.19203  1.0000
  C   C20       1.0  0.25129999999999997  0.61226  0.11858  1.0000
  C   C21       1.0  0.74885  0.35797  0.10179  1.0000
  C   C22       1.0  0.74931  0.2896  0.17225000000000004  1.0000
  C   C23       1.0  0.74914  0.17537  0.30802000000000007  1.0000
  C   C24       1.0  0.74878  0.11509  0.38198  1.0000
  C   C25       1.0  0.7487699999999998  0.14182  0.6021200000000002  1.0000
  C   C26       1.0  0.74929  0.21039  0.67263  1.0000
  C   C27       1.0  0.7493199999999998  0.32623  0.8079800000000003  1.0000
  C   C28       1.0  0.74878  0.38777  0.8814400000000002  1.0000
  C   C29       1.0  0.25123  0.64206  0.8982  1.0000
  C   C30       1.0  0.25074  0.7104099999999999  0.8277500000000002  1.0000
  C   C31       1.0  0.25093  0.82462  0.69199  1.0000
  C   C32       1.0  0.25137  0.88484  0.61807  1.0000
  O   O1        1.0  0.4166199999999999  0.88319  0.42393  1.0000
  O   O2        1.0  0.4166199999999999  0.59088  0.09115000000000002  1.0000
  O   O3        1.0  0.58354  0.38296  0.07575  1.0000
  O   O4        1.0  0.5830999999999997  0.09383  0.40918  1.0000
  O   O5        1.0  0.9137799999999998  0.11658000000000002  0.576  1.0000
  O   O6        1.0  0.9137999999999997  0.41011  0.90876  1.0000
  O   O7        1.0  0.08616  0.61692  0.92433  1.0000
  O   O8        1.0  0.08599999999999997  0.90577  0.59054  1.0000
  O   O9        1.0  0.5833799999999999  0.11684  0.5761  1.0000
  O   O10       1.0  0.58337  0.40909  0.9088400000000001  1.0000
  O   O11       1.0  0.41646  0.61702  0.92427  1.0000
  O   O12       1.0  0.4168499999999999  0.9062  0.59079  1.0000
  O   O13       1.0  0.08623999999999997  0.88331  0.42398000000000013  1.0000
  O   O14       1.0  0.08620999999999997  0.58998  0.09127000000000003  1.0000
  O   O15       1.0  0.9138499999999998  0.38316  0.07565  1.0000
  O   O16       1.0  0.9139599999999999  0.0941  0.40955  1.0000
  O   O17       1.0  0.2493  0.06548  0.49633  1.0000
  O   O18       1.0  0.7509099999999997  0.56581  0.004  1.0000
  O   O19       1.0  0.7509599999999997  0.93465  0.50367  1.0000
  O   O20       1.0  0.24921  0.43414  0.996  1.0000
