data_image0
_chemical_formula_structural       Tb2H18C36N6O12
_chemical_formula_sum              "Tb2 H18 C36 N6 O12"
_cell_length_a       9.68681
_cell_length_b       11.38466
_cell_length_c       11.88549
_cell_angle_alpha    114.26714
_cell_angle_beta     91.81813
_cell_angle_gamma    106.53515

_symmetry_space_group_name_H-M    'P 1'
_symmetry_Int_Tables_number       1

loop_
  _symmetry_equiv_pos_as_xyz
  'x,y,z'

loop_
  _atom_site_type_symbol
  _atom_site_label
  _atom_site_symmetry_multiplicity
  _atom_site_fract_x
  _atom_site_fract_y
  _atom_site_fract_z
  _atom_site_occupancy
  Tb  Tb1       1.0  0.6923800000000001  0.96097  0.9801  1.0000
  Tb  Tb2       1.0  0.3096400000000001  0.03941999999999999  0.01998  1.0000
  H   H1        1.0  0.87353  0.31484999999999996  0.03431000000000001  1.0000
  H   H2        1.0  0.16961000000000004  0.8720199999999999  0.61531  1.0000
  H   H3        1.0  0.50853  0.40270999999999996  0.90639  1.0000
  H   H4        1.0  0.21404000000000006  0.8811  0.23612  1.0000
  H   H5        1.0  0.6006200000000002  0.83491  0.58169  1.0000
  H   H6        1.0  0.75303  0.8311299999999999  0.22117000000000003  1.0000
  H   H7        1.0  0.5502500000000001  0.7902699999999998  0.35569  1.0000
  H   H8        1.0  0.7622700000000001  0.774  0.40444  1.0000
  H   H9        1.0  0.6913300000000002  0.59094  0.8793500000000001  1.0000
  H   H10       1.0  0.12683000000000005  0.68532  0.96565  1.0000
  H   H11       1.0  0.83019  0.12827  0.38465  1.0000
  H   H12       1.0  0.49149  0.5974  0.09366  1.0000
  H   H13       1.0  0.7860300000000001  0.119  0.76382  1.0000
  H   H14       1.0  0.3988700000000001  0.16546000000000002  0.41910000000000003  1.0000
  H   H15       1.0  0.24682  0.16895  0.77857  1.0000
  H   H16       1.0  0.4497  0.20963  0.64476  1.0000
  H   H17       1.0  0.23771  0.22609  0.59528  1.0000
  H   H18       1.0  0.3087  0.40926  0.12064  1.0000
  C   C1        1.0  0.9855400000000002  0.8997099999999999  0.10763000000000003  1.0000
  C   C2        1.0  0.57197  0.2340200000000001  0.9939400000000002  1.0000
  C   C3        1.0  0.82698  0.37395  0.00156  1.0000
  C   C4        1.0  0.6767600000000001  0.34546000000000004  0.9748200000000001  1.0000
  C   C5        1.0  0.25753000000000004  0.85481  0.56208  1.0000
  C   C6        1.0  0.62531  0.42384  0.92965  1.0000
  C   C7        1.0  0.11135999999999996  0.8604899999999999  0.27077  1.0000
  C   C8        1.0  0.9204700000000001  0.48266000000000003  0.9850300000000001  1.0000
  C   C9        1.0  0.9835100000000001  0.86302  0.21559  1.0000
  C   C10       1.0  0.42072000000000004  0.89197  0.7514700000000001  1.0000
  C   C11       1.0  0.38978000000000007  0.8571099999999998  0.61543  1.0000
  C   C12       1.0  0.24119999999999994  0.8314599999999999  0.43615  1.0000
  C   C13       1.0  0.49717999999999996  0.8329499999999999  0.54117  1.0000
  C   C14       1.0  0.85465  0.83127  0.26335  1.0000
  C   C15       1.0  0.10602999999999996  0.8313699999999999  0.37462  1.0000
  C   C16       1.0  0.46946000000000004  0.8099399999999998  0.41673  1.0000
  C   C17       1.0  0.8607099999999999  0.8013599999999999  0.3658600000000001  1.0000
  C   C18       1.0  0.7276700000000002  0.52833  0.9143500000000002  1.0000
  C   C19       1.0  0.015080000000000022  0.10075000000000003  0.8927700000000001  1.0000
  C   C20       1.0  0.42857  0.76628  0.006  1.0000
  C   C21       1.0  0.1734400000000001  0.6263300000000002  0.9984700000000001  1.0000
  C   C22       1.0  0.32359  0.65488  0.02518  1.0000
  C   C23       1.0  0.7423  0.14540999999999996  0.43803  1.0000
  C   C24       1.0  0.3748700000000001  0.57636  0.07029  1.0000
  C   C25       1.0  0.8887900000000001  0.13953999999999997  0.72923  1.0000
  C   C26       1.0  0.07982999999999997  0.5175899999999999  0.014930000000000002  1.0000
  C   C27       1.0  0.016650000000000005  0.13712  0.78444  1.0000
  C   C28       1.0  0.57937  0.10845999999999999  0.2486  1.0000
  C   C29       1.0  0.60991  0.14286999999999997  0.38461  1.0000
  C   C30       1.0  0.75874  0.16873  0.56398  1.0000
  C   C31       1.0  0.50261  0.16724  0.45909  1.0000
  C   C32       1.0  0.14533000000000001  0.16888000000000003  0.73645  1.0000
  C   C33       1.0  0.8940000000000001  0.16872  0.62533  1.0000
  C   C34       1.0  0.53046  0.19022  0.58355  1.0000
  C   C35       1.0  0.13923  0.19864999999999997  0.6338  1.0000
  C   C36       1.0  0.27244  0.47178999999999993  0.08553  1.0000
  N   N1        1.0  0.8724700000000001  0.55934  0.9419500000000001  1.0000
  N   N2        1.0  0.34553  0.8110599999999999  0.36436  1.0000
  N   N3        1.0  0.9835900000000001  0.80313  0.42328  1.0000
  N   N4        1.0  0.12774000000000002  0.44082999999999994  0.05794  1.0000
  N   N5        1.0  0.65443  0.18894999999999998  0.63582  1.0000
  N   N6        1.0  0.01633  0.19689  0.57652  1.0000
  O   O1        1.0  0.86689  0.89784  0.05814  1.0000
  O   O2        1.0  0.10935  0.9309499999999998  0.07340000000000002  1.0000
  O   O3        1.0  0.5369300000000002  0.8795000000000002  0.7920600000000001  1.0000
  O   O4        1.0  0.6117800000000002  0.13612000000000007  0.9939200000000002  1.0000
  O   O5        1.0  0.32776000000000005  0.93458  0.81676  1.0000
  O   O6        1.0  0.44396  0.23885999999999993  0.0097  1.0000
  O   O7        1.0  0.13370000000000007  0.10295000000000011  0.9425900000000003  1.0000
  O   O8        1.0  0.8911400000000002  0.06913999999999995  0.92679  1.0000
  O   O9        1.0  0.4634  0.12123999999999999  0.20836  1.0000
  O   O10       1.0  0.38847  0.86413  0.00587  1.0000
  O   O11       1.0  0.67237  0.06620000000000001  0.18309000000000003  1.0000
  O   O12       1.0  0.55643  0.76146  0.9901900000000001  1.0000
