data_image0
_chemical_formula_structural       Cd6H12C18O24
_chemical_formula_sum              "Cd6 H12 C18 O24"
_cell_length_a       9.89508
_cell_length_b       9.8473
_cell_length_c       9.91869
_cell_angle_alpha    109.36288
_cell_angle_beta     109.4214
_cell_angle_gamma    109.32939

_symmetry_space_group_name_H-M    'P 1'
_symmetry_Int_Tables_number       1

loop_
  _symmetry_equiv_pos_as_xyz
  'x,y,z'

loop_
  _atom_site_type_symbol
  _atom_site_label
  _atom_site_symmetry_multiplicity
  _atom_site_fract_x
  _atom_site_fract_y
  _atom_site_fract_z
  _atom_site_occupancy
  Cd  Cd1       1.0  0.31427  0.77024  0.8712  1.0000
  Cd  Cd2       1.0  0.7694899999999999  0.8705499999999999  0.3161000000000001  1.0000
  Cd  Cd3       1.0  0.87028  0.31439000000000006  0.7720800000000002  1.0000
  Cd  Cd4       1.0  0.68573  0.22975  0.1288  1.0000
  Cd  Cd5       1.0  0.23051000000000016  0.12944000000000008  0.6839000000000002  1.0000
  Cd  Cd6       1.0  0.12972000000000006  0.68561  0.22791  1.0000
  H   H1        1.0  0.5504  0.19333  0.4205300000000001  1.0000
  H   H2        1.0  0.37759  0.19793  0.31326  1.0000
  H   H3        1.0  0.19549999999999998  0.4201699999999999  0.54673  1.0000
  H   H4        1.0  0.19113  0.30933  0.36968  1.0000
  H   H5        1.0  0.41813  0.54887  0.19487  1.0000
  H   H6        1.0  0.30938  0.3691799999999999  0.19005  1.0000
  H   H7        1.0  0.4496  0.80666  0.57946  1.0000
  H   H8        1.0  0.62241  0.80206  0.68673  1.0000
  H   H9        1.0  0.8045000000000001  0.57983  0.45327  1.0000
  H   H10       1.0  0.8088699999999999  0.6906699999999998  0.63031  1.0000
  H   H11       1.0  0.5818700000000002  0.4511299999999999  0.80512  1.0000
  H   H12       1.0  0.6906200000000001  0.6308199999999999  0.80994  1.0000
  C   C1        1.0  0.37195999999999996  0.9742299999999999  0.18873  1.0000
  C   C2        1.0  0.41502  0.11496999999999999  0.34649  1.0000
  C   C3        1.0  0.35309000000000007  0.08903000000000001  0.46133  1.0000
  C   C4        1.0  0.97198  0.18972  0.37163  1.0000
  C   C5        1.0  0.11297  0.34645  0.4122400000000001  1.0000
  C   C6        1.0  0.08775000000000008  0.46354000000000006  0.35230000000000006  1.0000
  C   C7        1.0  0.18963999999999998  0.37070999999999993  0.97172  1.0000
  C   C8        1.0  0.34646  0.41345  0.11279  1.0000
  C   C9        1.0  0.46365000000000006  0.3544299999999999  0.08688  1.0000
  C   C10       1.0  0.6280399999999999  0.02575999999999998  0.81126  1.0000
  C   C11       1.0  0.58498  0.8850199999999999  0.65351  1.0000
  C   C12       1.0  0.6469100000000001  0.91096  0.53867  1.0000
  C   C13       1.0  0.028020000000000024  0.81027  0.62837  1.0000
  C   C14       1.0  0.88703  0.65354  0.58775  1.0000
  C   C15       1.0  0.91225  0.53645  0.64769  1.0000
  C   C16       1.0  0.81036  0.62929  0.02828  1.0000
  C   C17       1.0  0.65354  0.5865399999999998  0.8872  1.0000
  C   C18       1.0  0.53634  0.64556  0.91311  1.0000
  O   O1        1.0  0.27745000000000003  0.8213599999999999  0.13287  1.0000
  O   O2        1.0  0.43295  0.01783  0.10476  1.0000
  O   O3        1.0  0.55142  0.7255899999999998  0.05276  1.0000
  O   O4        1.0  0.41739  0.6098799999999999  0.7802600000000002  1.0000
  O   O5        1.0  0.8199400000000002  0.13414  0.27699  1.0000
  O   O6        1.0  0.014290000000000067  0.10565000000000006  0.4340900000000001  1.0000
  O   O7        1.0  0.72362  0.05113000000000003  0.5514  1.0000
  O   O8        1.0  0.6155200000000001  0.77741  0.42313  1.0000
  O   O9        1.0  0.13339999999999996  0.2737299999999999  0.82056  1.0000
  O   O10       1.0  0.1061  0.43400999999999995  0.01398  1.0000
  O   O11       1.0  0.05146  0.54871  0.72431  1.0000
  O   O12       1.0  0.77886  0.4200199999999999  0.61547  1.0000
  O   O13       1.0  0.7225500000000005  0.17863000000000007  0.8671200000000002  1.0000
  O   O14       1.0  0.5670500000000002  0.9821699999999999  0.89524  1.0000
  O   O15       1.0  0.44858000000000003  0.2744  0.94724  1.0000
  O   O16       1.0  0.5826100000000002  0.39011000000000007  0.21973  1.0000
  O   O17       1.0  0.18005999999999991  0.8658599999999999  0.723  1.0000
  O   O18       1.0  0.9857100000000001  0.8943399999999999  0.56591  1.0000
  O   O19       1.0  0.27638  0.94886  0.44859  1.0000
  O   O20       1.0  0.38448000000000004  0.22258  0.57687  1.0000
  O   O21       1.0  0.8666  0.72626  0.17943  1.0000
  O   O22       1.0  0.8939000000000001  0.5659800000000001  0.9860100000000002  1.0000
  O   O23       1.0  0.9485400000000003  0.45128  0.2756800000000001  1.0000
  O   O24       1.0  0.22113999999999998  0.5799699999999999  0.38453  1.0000
