data_image0
_chemical_formula_structural       Cu6H24C16N32O16
_chemical_formula_sum              "Cu6 H24 C16 N32 O16"
_cell_length_a       6.14753
_cell_length_b       9.93503
_cell_length_c       21.44674
_cell_angle_alpha    89.70657
_cell_angle_beta     86.4306
_cell_angle_gamma    90.1117

_space_group_name_H-M_alt    "P 1"
_space_group_IT_number       1

loop_
  _space_group_symop_operation_xyz
  'x, y, z'

loop_
  _atom_site_type_symbol
  _atom_site_label
  _atom_site_symmetry_multiplicity
  _atom_site_fract_x
  _atom_site_fract_y
  _atom_site_fract_z
  _atom_site_occupancy
  Cu  Cu1       1.0  0.3243  0.29409  0.71971  1.0000
  Cu  Cu2       1.0  0.69387  0.7958300000000001  0.77968  1.0000
  Cu  Cu3       1.0  0.68479  0.704  0.2822  1.0000
  Cu  Cu4       1.0  0.31486  0.20433  0.22160000000000002  1.0000
  Cu  Cu5       1.0  0.9999400000000002  0.9990300000000001  0.00167  1.0000
  Cu  Cu6       1.0  0.0013300000000000076  0.4972  0.50101  1.0000
  H   H1        1.0  0.7756100000000001  0.09257  0.7563700000000001  1.0000
  H   H2        1.0  0.9963099999999999  0.23542  0.9370000000000002  1.0000
  H   H3        1.0  0.24763  0.16889  0.92772  1.0000
  H   H4        1.0  0.43757999999999997  0.72235  0.6631  1.0000
  H   H5        1.0  0.05901999999999999  0.1236  0.64094  1.0000
  H   H6        1.0  0.26789  0.18884000000000004  0.59802  1.0000
  H   H7        1.0  0.24839000000000003  0.59145  0.74266  1.0000
  H   H8        1.0  0.02160999999999999  0.73453  0.56423  1.0000
  H   H9        1.0  0.76631  0.67432  0.5737  1.0000
  H   H10       1.0  0.58449  0.22128  0.83605  1.0000
  H   H11       1.0  0.9617200000000002  0.62481  0.85833  1.0000
  H   H12       1.0  0.75042  0.68806  0.90051  1.0000
  H   H13       1.0  0.23869000000000007  0.9067600000000001  0.24548  1.0000
  H   H14       1.0  0.013  0.7634  0.06622  1.0000
  H   H15       1.0  0.75994  0.8264000000000001  0.07695  1.0000
  H   H16       1.0  0.57385  0.27737  0.33805  1.0000
  H   H17       1.0  0.95144  0.8739000000000001  0.36157  1.0000
  H   H18       1.0  0.73911  0.81044  0.4036  1.0000
  H   H19       1.0  0.76078  0.40568  0.25822  1.0000
  H   H20       1.0  0.99176  0.26023  0.43654  1.0000
  H   H21       1.0  0.2436200000000001  0.32613  0.42708  1.0000
  H   H22       1.0  0.42604000000000003  0.7781  0.16554  1.0000
  H   H23       1.0  0.04854  0.37667  0.14296  1.0000
  H   H24       1.0  0.25782999999999995  0.31244  0.10030000000000001  1.0000
  C   C1        1.0  0.90171  0.9647300000000001  0.87847  1.0000
  C   C2        1.0  0.007170000000000014  0.14858  0.81845  1.0000
  C   C3        1.0  0.45887  0.01722  0.7043  1.0000
  C   C4        1.0  0.32628  0.90152  0.62234  1.0000
  C   C5        1.0  0.0969  0.46159000000000006  0.62424  1.0000
  C   C6        1.0  0.015159999999999996  0.65143  0.68209  1.0000
  C   C7        1.0  0.56568  0.51699  0.7933699999999999  1.0000
  C   C8        1.0  0.69784  0.40096  0.87596  1.0000
  C   C9        1.0  0.10287  0.03447  0.12452000000000002  1.0000
  C   C10       1.0  0.006609999999999997  0.84813  0.18434  1.0000
  C   C11       1.0  0.55583  0.9823600000000001  0.29613  1.0000
  C   C12       1.0  0.6875200000000001  0.09776999999999998  0.37828  1.0000
  C   C13       1.0  0.90373  0.53338  0.378  1.0000
  C   C14       1.0  0.9948400000000001  0.34711  0.31892  1.0000
  C   C15       1.0  0.4437  0.48267000000000004  0.20796  1.0000
  C   C16       1.0  0.31420000000000003  0.59885  0.12516  1.0000
  N   N1        1.0  0.89451  0.05781  0.78485  1.0000
  N   N2        1.0  0.8191000000000003  0.94819  0.82312  1.0000
  N   N3        1.0  0.02408999999999998  0.08538  0.8763  1.0000
  N   N4        1.0  0.08458  0.14639  0.9314400000000002  1.0000
  N   N5        1.0  0.45802  0.8234800000000001  0.65766  1.0000
  N   N6        1.0  0.5244200000000001  0.8915900000000001  0.71083  1.0000
  N   N7        1.0  0.33835  0.0275  0.65093  1.0000
  N   N8        1.0  0.22242  0.1442  0.63996  1.0000
  N   N9        1.0  0.12413  0.55857  0.71576  1.0000
  N   N10       1.0  0.18587000000000004  0.44555000000000006  0.67871  1.0000
  N   N11       1.0  0.98274  0.58543  0.62581  1.0000
  N   N12       1.0  0.9274700000000001  0.64751  0.57002  1.0000
  N   N13       1.0  0.56767  0.3227300000000001  0.8405800000000001  1.0000
  N   N14       1.0  0.50094  0.39104  0.7872700000000001  1.0000
  N   N15       1.0  0.6845300000000001  0.5274  0.8470900000000001  1.0000
  N   N16       1.0  0.7983400000000003  0.64461  0.85867  1.0000
  N   N17       1.0  0.11697  0.94041  0.21776  1.0000
  N   N18       1.0  0.18713000000000002  0.05136000000000001  0.17961  1.0000
  N   N19       1.0  0.9837000000000001  0.9124700000000001  0.12699  1.0000
  N   N20       1.0  0.92195  0.85132  0.07204  1.0000
  N   N21       1.0  0.55705  0.17590000000000003  0.34279  1.0000
  N   N22       1.0  0.49058000000000007  0.10807000000000001  0.28966  1.0000
  N   N23       1.0  0.67478  0.97162  0.34982  1.0000
  N   N24       1.0  0.7879  0.8542500000000001  0.3617  1.0000
  N   N25       1.0  0.88283  0.43931  0.28562  1.0000
  N   N26       1.0  0.8155200000000002  0.55021  0.32344  1.0000
  N   N27       1.0  0.020889999999999985  0.41108  0.37589  1.0000
  N   N28       1.0  0.08109  0.34927  0.43115  1.0000
  N   N29       1.0  0.44503000000000004  0.67692  0.16053  1.0000
  N   N30       1.0  0.50984  0.60839  0.2141  1.0000
  N   N31       1.0  0.32775000000000004  0.4722  0.15369  1.0000
  N   N32       1.0  0.21163  0.3556500000000001  0.14232  1.0000
  O   O1        1.0  0.88374  0.89101  0.92727  1.0000
  O   O2        1.0  0.07997000000000001  0.26066  0.80257  1.0000
  O   O3        1.0  0.50117  0.11998  0.73747  1.0000
  O   O4        1.0  0.22855000000000003  0.8720300000000001  0.57539  1.0000
  O   O5        1.0  0.10404  0.38564  0.57652  1.0000
  O   O6        1.0  0.95805  0.76667  0.69732  1.0000
  O   O7        1.0  0.5231400000000003  0.61942  0.75955  1.0000
  O   O8        1.0  0.7970600000000003  0.37189  0.92271  1.0000
  O   O9        1.0  0.11686  0.10835000000000002  0.07574  1.0000
  O   O10       1.0  0.94067  0.73442  0.20027  1.0000
  O   O11       1.0  0.51338  0.8800200000000001  0.2627  1.0000
  O   O12       1.0  0.78553  0.12729  0.42511999999999994  1.0000
  O   O13       1.0  0.8941500000000002  0.608  0.42611  1.0000
  O   O14       1.0  0.06072000000000001  0.23391  0.30307  1.0000
  O   O15       1.0  0.48117  0.38035  0.24231  1.0000
  O   O16       1.0  0.21571  0.62822  0.07829  1.0000
