data_image0
_chemical_formula_structural       Eu2H12C24O12
_chemical_formula_sum              "Eu2 H12 C24 O12"
_cell_length_a       9.78753
_cell_length_b       10.27702
_cell_length_c       11.454870000000001
_cell_angle_alpha    51.93257
_cell_angle_beta     76.30483
_cell_angle_gamma    78.15933

_symmetry_space_group_name_H-M    'P 1'
_symmetry_Int_Tables_number       1

loop_
  _symmetry_equiv_pos_as_xyz
  'x,y,z'

loop_
  _atom_site_type_symbol
  _atom_site_label
  _atom_site_symmetry_multiplicity
  _atom_site_fract_x
  _atom_site_fract_y
  _atom_site_fract_z
  _atom_site_occupancy
  Eu  Eu1       1.0  0.48476  0.12264  0.28279  1.0000
  Eu  Eu2       1.0  0.51525  0.87736  0.71722  1.0000
  H   H1        1.0  0.38367  0.78688  0.36436  1.0000
  H   H2        1.0  0.6047399999999999  0.3822  0.72724  1.0000
  H   H3        1.0  0.9975999999999999  0.09237000000000001  0.15706  1.0000
  H   H4        1.0  0.77385  0.93608  0.98815  1.0000
  H   H5        1.0  0.23361000000000015  0.49953000000000003  0.85558  1.0000
  H   H6        1.0  0.9682699999999999  0.29608  0.27836  1.0000
  H   H7        1.0  0.6163400000000001  0.21313000000000001  0.63564  1.0000
  H   H8        1.0  0.39526999999999995  0.6178000000000001  0.27276  1.0000
  H   H9        1.0  0.0023999999999999517  0.90763  0.84294  1.0000
  H   H10       1.0  0.22615  0.06392000000000003  0.01185  1.0000
  H   H11       1.0  0.76639  0.50047  0.14441  1.0000
  H   H12       1.0  0.03172999999999996  0.7039300000000001  0.72164  1.0000
  C   C1        1.0  0.48944999999999994  0.69204  0.60925  1.0000
  C   C2        1.0  0.49288999999999994  0.5939900000000002  0.55263  1.0000
  C   C3        1.0  0.43472999999999995  0.6613  0.42315  1.0000
  C   C4        1.0  0.5583000000000001  0.43168000000000006  0.62865  1.0000
  C   C5        1.0  0.7401299999999998  0.036860000000000004  0.15985  1.0000
  C   C6        1.0  0.8747799999999999  0.015810000000000008  0.07986  1.0000
  C   C7        1.0  0.0016500000000000009  0.05166  0.08793  1.0000
  C   C8        1.0  0.8737899999999998  0.9633200000000001  0.99192  1.0000
  C   C9        1.0  0.23613999999999996  0.27891  0.14558  1.0000
  C   C10       1.0  0.112  0.38873  0.07267  1.0000
  C   C11       1.0  0.13045999999999994  0.50217  0.9161500000000001  1.0000
  C   C12       1.0  0.98097  0.3854800000000001  0.1574  1.0000
  C   C13       1.0  0.51055  0.30796  0.39075  1.0000
  C   C14       1.0  0.5071099999999998  0.40601999999999994  0.44737  1.0000
  C   C15       1.0  0.56527  0.3387  0.57685  1.0000
  C   C16       1.0  0.4416999999999999  0.5683200000000002  0.37136  1.0000
  C   C17       1.0  0.25987999999999994  0.96314  0.84016  1.0000
  C   C18       1.0  0.12521999999999997  0.9841899999999999  0.9201500000000001  1.0000
  C   C19       1.0  0.9983599999999999  0.9483400000000003  0.91208  1.0000
  C   C20       1.0  0.12620999999999996  0.03668  0.00808  1.0000
  C   C21       1.0  0.76386  0.7211000000000001  0.85442  1.0000
  C   C22       1.0  0.8880099999999999  0.6112800000000002  0.92733  1.0000
  C   C23       1.0  0.8695399999999999  0.49784000000000006  0.08384000000000001  1.0000
  C   C24       1.0  0.019039999999999963  0.61452  0.8426000000000001  1.0000
  O   O1        1.0  0.4644499999999999  0.85259  0.52034  1.0000
  O   O2        1.0  0.5132500000000001  0.62092  0.74083  1.0000
  O   O3        1.0  0.7392099999999999  0.09183000000000002  0.23565  1.0000
  O   O4        1.0  0.62365  0.0049400000000000095  0.15269  1.0000
  O   O5        1.0  0.22529999999999997  0.17307  0.28917  1.0000
  O   O6        1.0  0.35631  0.29178  0.06672  1.0000
  O   O7        1.0  0.53556  0.14740999999999999  0.47966000000000003  1.0000
  O   O8        1.0  0.48674999999999996  0.37908000000000003  0.25917  1.0000
  O   O9        1.0  0.26078999999999997  0.9081700000000001  0.76436  1.0000
  O   O10       1.0  0.37636  0.9950600000000001  0.84732  1.0000
  O   O11       1.0  0.7746999999999999  0.8269399999999999  0.71083  1.0000
  O   O12       1.0  0.64369  0.7082300000000001  0.9332799999999999  1.0000
