data_image0
_chemical_formula_structural       Mn4H12C12O24
_chemical_formula_sum              "Mn4 H12 C12 O24"
_cell_length_a       8.14435
_cell_length_b       8.8876
_cell_length_c       11.80649
_cell_angle_alpha    90.46107
_cell_angle_beta     90.53113
_cell_angle_gamma    89.22534

_space_group_name_H-M_alt    "P 1"
_space_group_IT_number       1

loop_
  _space_group_symop_operation_xyz
  'x, y, z'

loop_
  _atom_site_type_symbol
  _atom_site_label
  _atom_site_symmetry_multiplicity
  _atom_site_fract_x
  _atom_site_fract_y
  _atom_site_fract_z
  _atom_site_occupancy
  Mn  Mn1       1.0  0.75573  0.74906  0.7468399999999997  1.0000
  Mn  Mn2       1.0  0.72678  0.75286  0.24683999999999995  1.0000
  Mn  Mn3       1.0  0.22889  0.25026  0.25117  1.0000
  Mn  Mn4       1.0  0.25502  0.24919000000000002  0.74857  1.0000
  H   H1        1.0  0.41003  0.54742  0.682  1.0000
  H   H2        1.0  0.08973  0.56764  0.30911  1.0000
  H   H3        1.0  0.10191  0.9320100000000001  0.19368  1.0000
  H   H4        1.0  0.42862  0.9543  0.8198099999999999  1.0000
  H   H5        1.0  0.59702  0.44474  0.30429  1.0000
  H   H6        1.0  0.9330099999999998  0.43804  0.6793499999999999  1.0000
  H   H7        1.0  0.94731  0.047  0.8240499999999997  1.0000
  H   H8        1.0  0.5688  0.06623  0.18783999999999998  1.0000
  H   H9        1.0  0.75637  0.82827  0.49545999999999996  1.0000
  H   H10       1.0  0.75248  0.66755  0.00010999999999999998  1.0000
  H   H11       1.0  0.24729  0.17033  0.4941  1.0000
  H   H12       1.0  0.26646  0.33117  0.00797  1.0000
  C   C1        1.0  0.47165  0.51254  0.76164  1.0000
  C   C2        1.0  0.030860000000000005  0.53212  0.22891999999999998  1.0000
  C   C3        1.0  0.0366  0.96509  0.27225  1.0000
  C   C4        1.0  0.47766999999999993  0.98385  0.73614  1.0000
  C   C5        1.0  0.53135  0.47267  0.22402  1.0000
  C   C6        1.0  0.98148  0.47763000000000005  0.76158  1.0000
  C   C7        1.0  0.9881599999999999  0.01806  0.7377  1.0000
  C   C8        1.0  0.51971  0.030720000000000004  0.2700099999999999  1.0000
  C   C9        1.0  0.74699  0.70441  0.49442999999999987  1.0000
  C   C10       1.0  0.74291  0.79142  0.00011999999999999999  1.0000
  C   C11       1.0  0.24371  0.29436  0.49472  1.0000
  C   C12       1.0  0.25254  0.20767  0.006039999999999999  1.0000
  O   O1        1.0  0.75012  0.63577  0.5879  1.0000
  O   O2        1.0  0.57709  0.59959  0.8052799999999999  1.0000
  O   O3        1.0  0.43282  0.38747  0.80529  1.0000
  O   O4        1.0  0.73325  0.63777  0.39853  1.0000
  O   O5        1.0  0.92494  0.62127  0.18371  1.0000
  O   O6        1.0  0.06842  0.40703  0.18358999999999998  1.0000
  O   O7        1.0  0.7258  0.86011  0.09498  1.0000
  O   O8        1.0  0.95104  0.86102  0.31669  1.0000
  O   O9        1.0  0.04865  0.09606  0.31150999999999995  1.0000
  O   O10       1.0  0.74923  0.8598799999999999  0.9066299999999999  1.0000
  O   O11       1.0  0.58253  0.89685  0.6892499999999999  1.0000
  O   O12       1.0  0.42634  0.10383  0.68901  1.0000
  O   O13       1.0  0.23346  0.36306  0.39997  1.0000
  O   O14       1.0  0.44156  0.36978  0.18262999999999996  1.0000
  O   O15       1.0  0.55092  0.60114  0.18235  1.0000
  O   O16       1.0  0.24977  0.36327  0.58877  1.0000
  O   O17       1.0  0.09303  0.40021  0.81152  1.0000
  O   O18       1.0  0.92544  0.59868  0.8052799999999999  1.0000
  O   O19       1.0  0.25786  0.14023  0.9113799999999997  1.0000
  O   O20       1.0  0.09126  0.10306000000000001  0.689  1.0000
  O   O21       1.0  0.9311499999999999  0.9023600000000002  0.68905  1.0000
  O   O22       1.0  0.23264  0.13997  0.09978999999999998  1.0000
  O   O23       1.0  0.40763  0.1104  0.31663  1.0000
  O   O24       1.0  0.57575  0.9122100000000001  0.31648  1.0000
