data_image0
_chemical_formula_structural       Cd6H24C36N24
_chemical_formula_sum              "Cd6 H24 C36 N24"
_cell_length_a       9.85921
_cell_length_b       9.86011
_cell_length_c       21.5271
_cell_angle_alpha    90.00061000000001
_cell_angle_beta     89.99955
_cell_angle_gamma    119.90593000000001

_symmetry_space_group_name_H-M    'P 1'
_symmetry_Int_Tables_number       1

loop_
  _symmetry_equiv_pos_as_xyz
  'x,y,z'

loop_
  _atom_site_type_symbol
  _atom_site_label
  _atom_site_symmetry_multiplicity
  _atom_site_fract_x
  _atom_site_fract_y
  _atom_site_fract_z
  _atom_site_occupancy
  Cd  Cd1       1.0  0.08736  0.17529  0.25011  1.0000
  Cd  Cd2       1.0  0.82478  0.91265  0.58313  1.0000
  Cd  Cd3       1.0  0.08749000000000005  0.91254  0.9166300000000001  1.0000
  Cd  Cd4       1.0  0.91263  0.82472  0.7502  1.0000
  Cd  Cd5       1.0  0.17524  0.08732  0.08321  1.0000
  Cd  Cd6       1.0  0.9125399999999999  0.08747  0.41672  1.0000
  H   H1        1.0  0.73872  0.05288  0.18223  1.0000
  H   H2        1.0  0.5976899999999998  0.10972  0.36639  1.0000
  H   H3        1.0  0.94678  0.68583  0.51552  1.0000
  H   H4        1.0  0.89018  0.48877  0.69977  1.0000
  H   H5        1.0  0.31429999999999997  0.26183  0.8489  1.0000
  H   H6        1.0  0.51144  0.40198  0.03308  1.0000
  H   H7        1.0  0.26118999999999987  0.94702  0.68217  1.0000
  H   H8        1.0  0.4025700000000001  0.8904  0.86629  1.0000
  H   H9        1.0  0.05333  0.31416  0.01546  1.0000
  H   H10       1.0  0.10972000000000004  0.51137  0.19968  1.0000
  H   H11       1.0  0.6857099999999999  0.7383  0.34884  1.0000
  H   H12       1.0  0.48848  0.59773  0.533  1.0000
  H   H13       1.0  0.05287  0.73863  0.15112  1.0000
  H   H14       1.0  0.10975999999999995  0.59778  0.9669399999999999  1.0000
  H   H15       1.0  0.68584  0.94678  0.8178  1.0000
  H   H16       1.0  0.48874999999999996  0.89013  0.63353  1.0000
  H   H17       1.0  0.2617499999999999  0.31423  0.4844399999999999  1.0000
  H   H18       1.0  0.40211  0.51149  0.30028  1.0000
  H   H19       1.0  0.9470399999999999  0.26126  0.65118  1.0000
  H   H20       1.0  0.89038  0.40248  0.46703999999999996  1.0000
  H   H21       1.0  0.31415  0.05333  0.31786  1.0000
  H   H22       1.0  0.51141  0.10976  0.13363  1.0000
  H   H23       1.0  0.7383799999999999  0.68576  0.9845  1.0000
  H   H24       1.0  0.5976199999999999  0.48844  0.80037  1.0000
  C   C1        1.0  0.60668  0.0774  0.26299  1.0000
  C   C2        1.0  0.72544  0.06609  0.23151  1.0000
  C   C3        1.0  0.6538399999999999  0.09562  0.32551  1.0000
  C   C4        1.0  0.92267  0.52964  0.59632  1.0000
  C   C5        1.0  0.9339  0.65957  0.5648  1.0000
  C   C6        1.0  0.9045  0.55875  0.65883  1.0000
  C   C7        1.0  0.4702799999999999  0.39365  0.92969  1.0000
  C   C8        1.0  0.34075  0.2748  0.89815  1.0000
  C   C9        1.0  0.4414699999999999  0.34603  0.99219  1.0000
  C   C10       1.0  0.39339  0.92262  0.7629  1.0000
  C   C11       1.0  0.27457  0.93389  0.73145  1.0000
  C   C12       1.0  0.34631999999999996  0.90445  0.82544  1.0000
  C   C13       1.0  0.07733000000000002  0.47041000000000005  0.09622  1.0000
  C   C14       1.0  0.06613999999999998  0.34046  0.06474  1.0000
  C   C15       1.0  0.09544  0.44134  0.15876  1.0000
  C   C16       1.0  0.52969  0.60629  0.4296  1.0000
  C   C17       1.0  0.65922  0.72521  0.39810000000000006  1.0000
  C   C18       1.0  0.55849  0.65377  0.49212  1.0000
  C   C19       1.0  0.07737999999999999  0.60665  0.07034  1.0000
  C   C20       1.0  0.06608  0.72538  0.10184  1.0000
  C   C21       1.0  0.09567999999999997  0.65391  0.00783  1.0000
  C   C22       1.0  0.52962  0.92264  0.737  1.0000
  C   C23       1.0  0.6595799999999998  0.93387  0.76851  1.0000
  C   C24       1.0  0.55873  0.90447  0.67448  1.0000
  C   C25       1.0  0.39364999999999994  0.47025999999999996  0.40366  1.0000
  C   C26       1.0  0.27479  0.34072  0.43519  1.0000
  C   C27       1.0  0.34612  0.44146  0.34117  1.0000
  C   C28       1.0  0.92264  0.3934  0.57043  1.0000
  C   C29       1.0  0.9339  0.27462  0.6019  1.0000
  C   C30       1.0  0.9043899999999999  0.34625  0.5079  1.0000
  C   C31       1.0  0.47042999999999996  0.07737  0.23709999999999998  1.0000
  C   C32       1.0  0.34046  0.06618  0.26857  1.0000
  C   C33       1.0  0.44136999999999993  0.09546  0.17455  1.0000
  C   C34       1.0  0.6063  0.52971  0.90375  1.0000
  C   C35       1.0  0.72523  0.65924  0.9352499999999999  1.0000
  C   C36       1.0  0.6537  0.5585  0.84123  1.0000
  N   N1        1.0  0.83467  0.07632  0.27244  1.0000
  N   N2        1.0  0.79068  0.09649  0.33065  1.0000
  N   N3        1.0  0.9237299999999999  0.75872  0.6057  1.0000
  N   N4        1.0  0.90367  0.69478  0.66392  1.0000
  N   N5        1.0  0.24217999999999998  0.16516  0.93897  1.0000
  N   N6        1.0  0.30614  0.20883  0.9971999999999999  1.0000
  N   N7        1.0  0.16539  0.92367  0.7724  1.0000
  N   N8        1.0  0.2094899999999999  0.90356  0.83061  1.0000
  N   N9        1.0  0.07629999999999998  0.24134999999999998  0.10566  1.0000
  N   N10       1.0  0.09629  0.30533  0.16387  1.0000
  N   N11       1.0  0.7577799999999999  0.83477  0.43894  1.0000
  N   N12       1.0  0.6937899999999999  0.79095  0.49717  1.0000
  N   N13       1.0  0.07636000000000001  0.83466  0.06093  1.0000
  N   N14       1.0  0.09657999999999996  0.79075  0.00271  1.0000
  N   N15       1.0  0.75872  0.92369  0.72761  1.0000
  N   N16       1.0  0.69474  0.90361  0.66939  1.0000
  N   N17       1.0  0.1652  0.24213999999999997  0.39435  1.0000
  N   N18       1.0  0.20892999999999998  0.30609  0.33612  1.0000
  N   N19       1.0  0.92363  0.16539  0.56096  1.0000
  N   N20       1.0  0.9034899999999999  0.20942  0.50275  1.0000
  N   N21       1.0  0.24135999999999996  0.07633  0.22765  1.0000
  N   N22       1.0  0.30539  0.09635  0.16943  1.0000
  N   N23       1.0  0.8347499999999999  0.75782  0.89439  1.0000
  N   N24       1.0  0.7908799999999999  0.69384  0.83617  1.0000
