data_image0
_chemical_formula_structural       Ca4H24C48O16
_chemical_formula_sum              "Ca4 H24 C48 O16"
_cell_length_a       6.37284
_cell_length_b       14.57331
_cell_length_c       15.079160000000002
_cell_angle_alpha    90.00766
_cell_angle_beta     90.00495
_cell_angle_gamma    89.99640999999998

_space_group_name_H-M_alt    "P 1"
_space_group_IT_number       1

loop_
  _space_group_symop_operation_xyz
  'x, y, z'

loop_
  _atom_site_type_symbol
  _atom_site_label
  _atom_site_symmetry_multiplicity
  _atom_site_fract_x
  _atom_site_fract_y
  _atom_site_fract_z
  _atom_site_occupancy
  Ca  Ca1       1.0  0.14020999999999997  0.79929  0.46358  1.0000
  Ca  Ca2       1.0  0.36060999999999993  0.20061  0.96336  1.0000
  Ca  Ca3       1.0  0.8605599999999998  0.29933  0.03668  1.0000
  Ca  Ca4       1.0  0.64026  0.70065  0.53645  1.0000
  H   H1        1.0  0.14989  0.66643  0.7576399999999998  1.0000
  H   H2        1.0  0.10923  0.54678  0.8750899999999998  1.0000
  H   H3        1.0  0.11626999999999997  0.50005  0.48296  1.0000
  H   H4        1.0  0.11883  0.33586  0.4421299999999999  1.0000
  H   H5        1.0  0.12859  0.21576  0.55982  1.0000
  H   H6        1.0  0.13668  0.26074  0.7183699999999998  1.0000
  H   H7        1.0  0.34959  0.33343  0.2575  1.0000
  H   H8        1.0  0.3910099999999999  0.4532  0.37487  1.0000
  H   H9        1.0  0.38384  0.49971000000000004  0.98271  1.0000
  H   H10       1.0  0.38160999999999995  0.66388  0.94186  1.0000
  H   H11       1.0  0.37123  0.7841000000000002  0.059479999999999984  1.0000
  H   H12       1.0  0.36332  0.7392300000000003  0.21807999999999994  1.0000
  H   H13       1.0  0.8496199999999999  0.16657  0.7424799999999998  1.0000
  H   H14       1.0  0.8909899999999997  0.04678  0.62515  1.0000
  H   H15       1.0  0.8838899999999997  0.0003100000000000001  0.017279999999999993  1.0000
  H   H16       1.0  0.8816499999999999  0.8361600000000002  0.05816  1.0000
  H   H17       1.0  0.8712999999999999  0.7159300000000002  0.94055  1.0000
  H   H18       1.0  0.86336  0.76077  0.7819499999999998  1.0000
  H   H19       1.0  0.65002  0.8334500000000002  0.24244999999999994  1.0000
  H   H20       1.0  0.60919  0.9531  0.12495999999999997  1.0000
  H   H21       1.0  0.61636  0.99994  0.5171  1.0000
  H   H22       1.0  0.6188099999999999  0.16416  0.5578699999999999  1.0000
  H   H23       1.0  0.6286599999999999  0.28423  0.44013  1.0000
  H   H24       1.0  0.6367699999999997  0.23917000000000005  0.28159  1.0000
  C   C1        1.0  0.13911  0.6449  0.5837  1.0000
  C   C2        1.0  0.11145999999999999  0.36780000000000007  0.8600399999999998  1.0000
  C   C3        1.0  0.13445999999999997  0.5698100000000001  0.6506399999999998  1.0000
  C   C4        1.0  0.13819  0.59438  0.73947  1.0000
  C   C5        1.0  0.12039  0.52701  0.8056699999999998  1.0000
  C   C6        1.0  0.1196  0.4344900000000001  0.78412  1.0000
  C   C7        1.0  0.12627  0.4063200000000001  0.6930899999999998  1.0000
  C   C8        1.0  0.12376999999999999  0.47553  0.6248299999999998  1.0000
  C   C9        1.0  0.12018  0.4477700000000001  0.53434  1.0000
  C   C10       1.0  0.12117999999999998  0.3560300000000001  0.51163  1.0000
  C   C11       1.0  0.12597  0.28793  0.5784399999999997  1.0000
  C   C12       1.0  0.12859  0.31254  0.6668099999999998  1.0000
  C   C13       1.0  0.36071999999999993  0.35469  0.08360999999999998  1.0000
  C   C14       1.0  0.3889599999999999  0.63226  0.3599099999999999  1.0000
  C   C15       1.0  0.3647399999999999  0.42997  0.15044  1.0000
  C   C16       1.0  0.36124  0.40548  0.23929  1.0000
  C   C17       1.0  0.37928  0.47294  0.30547  1.0000
  C   C18       1.0  0.3804499999999999  0.5654700000000003  0.28398  1.0000
  C   C19       1.0  0.37352999999999986  0.5935800000000002  0.19292  1.0000
  C   C20       1.0  0.37581  0.52428  0.12464  1.0000
  C   C21       1.0  0.37966999999999995  0.552  0.03413  1.0000
  C   C22       1.0  0.37894999999999995  0.6437500000000003  0.01138  1.0000
  C   C23       1.0  0.37412999999999996  0.71192  0.07816  1.0000
  C   C24       1.0  0.37138  0.68736  0.16656  1.0000
  C   C25       1.0  0.8607199999999998  0.14532  0.91638  1.0000
  C   C26       1.0  0.8890899999999998  0.86775  0.6400999999999998  1.0000
  C   C27       1.0  0.86463  0.07004  0.84956  1.0000
  C   C28       1.0  0.86113  0.09452  0.7607  1.0000
  C   C29       1.0  0.8792299999999997  0.027050000000000008  0.6945399999999998  1.0000
  C   C30       1.0  0.8803999999999997  0.9345200000000002  0.7160399999999998  1.0000
  C   C31       1.0  0.87343  0.90642  0.80711  1.0000
  C   C32       1.0  0.87566  0.9757400000000003  0.87537  1.0000
  C   C33       1.0  0.87959  0.94802  0.9658799999999998  1.0000
  C   C34       1.0  0.87893  0.8562800000000003  0.98864  1.0000
  C   C35       1.0  0.87409  0.7881  0.92187  1.0000
  C   C36       1.0  0.87134  0.81265  0.8334699999999998  1.0000
  C   C37       1.0  0.6391  0.85503  0.41634  1.0000
  C   C38       1.0  0.61129  0.13213  0.13992  1.0000
  C   C39       1.0  0.6344399999999998  0.93013  0.34941  1.0000
  C   C40       1.0  0.63821  0.9055100000000003  0.26059  1.0000
  C   C41       1.0  0.62038  0.9728800000000002  0.19436  1.0000
  C   C42       1.0  0.6195299999999999  0.06542  0.21583  1.0000
  C   C43       1.0  0.62622  0.09361  0.30686  1.0000
  C   C44       1.0  0.62373  0.02442  0.37518  1.0000
  C   C45       1.0  0.6201399999999999  0.05221  0.46568  1.0000
  C   C46       1.0  0.62114  0.14397  0.4883699999999999  1.0000
  C   C47       1.0  0.62595  0.21204  0.42152  1.0000
  C   C48       1.0  0.6285999999999999  0.18739  0.3331499999999999  1.0000
  O   O1        1.0  0.9901599999999999  0.6523700000000002  0.52722  1.0000
  O   O2        1.0  0.291  0.7024  0.5853599999999998  1.0000
  O   O3        1.0  0.99176  0.3889100000000001  0.9246199999999998  1.0000
  O   O4        1.0  0.22624999999999995  0.29606  0.8567899999999998  1.0000
  O   O5        1.0  0.50984  0.3475400000000001  0.02719  1.0000
  O   O6        1.0  0.20963  0.2967700000000001  0.08529999999999997  1.0000
  O   O7        1.0  0.50832  0.61104  0.4246  1.0000
  O   O8        1.0  0.27445  0.70405  0.35667  1.0000
  O   O9        1.0  0.00987  0.15246  0.9727999999999998  1.0000
  O   O10       1.0  0.70962  0.20323000000000005  0.91471  1.0000
  O   O11       1.0  0.00865  0.88895  0.57548  1.0000
  O   O12       1.0  0.7744899999999998  0.79599  0.64327  1.0000
  O   O13       1.0  0.49015  0.84759  0.47281  1.0000
  O   O14       1.0  0.7909299999999999  0.79748  0.41464  1.0000
  O   O15       1.0  0.49202  0.11095  0.07523  1.0000
  O   O16       1.0  0.72553  0.20403000000000004  0.14330999999999994  1.0000
