data_image0
_chemical_formula_structural       La4H16C28N4O18
_chemical_formula_sum              "La4 H16 C28 N4 O18"
_cell_length_a       10.10321
_cell_length_b       10.10293
_cell_length_c       10.452460000000002
_cell_angle_alpha    73.4152
_cell_angle_beta     73.32285
_cell_angle_gamma    109.26931000000002

_symmetry_space_group_name_H-M    'P 1'
_symmetry_Int_Tables_number       1

loop_
  _symmetry_equiv_pos_as_xyz
  'x,y,z'

loop_
  _atom_site_type_symbol
  _atom_site_label
  _atom_site_symmetry_multiplicity
  _atom_site_fract_x
  _atom_site_fract_y
  _atom_site_fract_z
  _atom_site_occupancy
  La  La1       1.0  0.10523000000000002  0.6517400000000001  0.60203  1.0000
  La  La2       1.0  0.01223999999999999  0.11328  0.90976  1.0000
  La  La3       1.0  0.1524  0.60577  0.1017  1.0000
  La  La4       1.0  0.6142999999999998  0.51263  0.40847  1.0000
  H   H1        1.0  0.17594  0.9161799999999999  0.93049  1.0000
  H   H2        1.0  0.06909000000000001  0.81517  0.87328  1.0000
  H   H3        1.0  0.6268200000000002  0.38173000000000007  0.05393  1.0000
  H   H4        1.0  0.46615  0.19117  0.32089  1.0000
  H   H5        1.0  0.51312  0.95956  0.41445  1.0000
  H   H6        1.0  0.15042000000000003  0.24849000000000007  0.43488  1.0000
  H   H7        1.0  0.26627  0.3238  0.16247  1.0000
  H   H8        1.0  0.295  0.12242  0.07432  1.0000
  H   H9        1.0  0.4133200000000001  0.6724700000000001  0.43256  1.0000
  H   H10       1.0  0.31335  0.5669  0.37388  1.0000
  H   H11       1.0  0.88178  0.12605000000000002  0.55248  1.0000
  H   H12       1.0  0.69175  0.96659  0.81977  1.0000
  H   H13       1.0  0.46107  0.015109999999999969  0.91401  1.0000
  H   H14       1.0  0.7492900000000001  0.6505500000000001  0.93407  1.0000
  H   H15       1.0  0.8244200000000002  0.7656999999999999  0.66172  1.0000
  H   H16       1.0  0.62265  0.7931400000000001  0.57382  1.0000
  C   C1        1.0  0.8569200000000001  0.36225000000000007  0.85674  1.0000
  C   C2        1.0  0.75186  0.25362  0.00931  1.0000
  C   C3        1.0  0.64208  0.27962  0.09942  1.0000
  C   C4        1.0  0.55366  0.17386  0.24834999999999996  1.0000
  C   C5        1.0  0.57803  0.04397  0.29992  1.0000
  C   C6        1.0  0.68724  0.021550000000000003  0.20279  1.0000
  C   C7        1.0  0.7178100000000001  0.8876399999999998  0.24157000000000003  1.0000
  C   C8        1.0  0.06396  0.96189  0.6494  1.0000
  C   C9        1.0  0.11999999999999994  0.014969999999999956  0.49057000000000006  1.0000
  C   C10       1.0  0.16384  0.16481000000000007  0.39264  1.0000
  C   C11       1.0  0.22851  0.20711999999999997  0.24038  1.0000
  C   C12       1.0  0.24485  0.09586  0.19092  1.0000
  C   C13       1.0  0.19336000000000006  0.9463900000000001  0.29299  1.0000
  C   C14       1.0  0.19299000000000002  0.8215900000000002  0.25015  1.0000
  C   C15       1.0  0.86278  0.35667000000000015  0.35554  1.0000
  C   C16       1.0  0.7542400000000001  0.25193  0.50826  1.0000
  C   C17       1.0  0.78004  0.14194  0.5982  1.0000
  C   C18       1.0  0.6746000000000001  0.05421999999999999  0.74734  1.0000
  C   C19       1.0  0.5452000000000001  0.07944000000000002  0.79934  1.0000
  C   C20       1.0  0.5229000000000001  0.18872  0.70238  1.0000
  C   C21       1.0  0.38932999999999995  0.22010999999999994  0.74155  1.0000
  C   C22       1.0  0.46199999999999997  0.5639100000000001  0.14892  1.0000
  C   C23       1.0  0.51548  0.6198900000000002  0.9900300000000001  1.0000
  C   C24       1.0  0.66543  0.6636300000000002  0.8920400000000002  1.0000
  C   C25       1.0  0.70764  0.72787  0.73977  1.0000
  C   C26       1.0  0.59624  0.74358  0.69039  1.0000
  C   C27       1.0  0.44671  0.6923  0.79262  1.0000
  C   C28       1.0  0.32165000000000005  0.69151  0.75028  1.0000
  N   N1        1.0  0.77671  0.12592  0.05751  1.0000
  N   N2        1.0  0.13320000000000004  0.9035400000000001  0.4426  1.0000
  N   N3        1.0  0.62695  0.27746  0.55691  1.0000
  N   N4        1.0  0.4040800000000001  0.6329500000000003  0.94214  1.0000
  O   O1        1.0  0.08350999999999995  0.8184099999999999  0.9643400000000001  1.0000
  O   O2        1.0  0.84052  0.47854  0.78901  1.0000
  O   O3        1.0  0.97451  0.33965000000000006  0.79198  1.0000
  O   O4        1.0  0.6279900000000002  0.7673900000000002  0.36621  1.0000
  O   O5        1.0  0.8345499999999999  0.89053  0.14559  1.0000
  O   O6        1.0  0.04838000000000006  0.8255900000000003  0.72262  1.0000
  O   O7        1.0  0.03362999999999997  0.047719999999999985  0.71366  1.0000
  O   O8        1.0  0.11324  0.67969  0.35191  1.0000
  O   O9        1.0  0.26485000000000003  0.8478600000000001  0.11536  1.0000
  O   O10       1.0  0.31543  0.5804800000000001  0.46556  1.0000
  O   O11       1.0  0.97927  0.34040999999999993  0.28781  1.0000
  O   O12       1.0  0.84003  0.47407000000000005  0.29062  1.0000
  O   O13       1.0  0.26866  0.13005999999999998  0.86585  1.0000
  O   O14       1.0  0.39302  0.33749  0.64601  1.0000
  O   O15       1.0  0.32567  0.5486  0.22193000000000002  1.0000
  O   O16       1.0  0.54735  0.5331300000000001  0.21342  1.0000
  O   O17       1.0  0.17986  0.6131500000000001  0.85253  1.0000
  O   O18       1.0  0.34754999999999997  0.7618899999999998  0.6154  1.0000
