data_image0
_chemical_formula_structural       Nd2H24C48O12
_chemical_formula_sum              "Nd2 H24 C48 O12"
_cell_length_a       10.69057
_cell_length_b       11.58982
_cell_length_c       13.25849
_cell_angle_alpha    107.55496
_cell_angle_beta     90.08377
_cell_angle_gamma    92.35701000000002

_space_group_name_H-M_alt    "P 1"
_space_group_IT_number       1

loop_
  _space_group_symop_operation_xyz
  'x, y, z'

loop_
  _atom_site_type_symbol
  _atom_site_label
  _atom_site_symmetry_multiplicity
  _atom_site_fract_x
  _atom_site_fract_y
  _atom_site_fract_z
  _atom_site_occupancy
  Nd  Nd1       1.0  0.4913  0.44412  0.34637000000000007  1.0000
  Nd  Nd2       1.0  0.5085399999999999  0.55566  0.65248  1.0000
  H   H1        1.0  0.40976  0.08707000000000001  0.2681  1.0000
  H   H2        1.0  0.28332  0.79177  0.55724  1.0000
  H   H3        1.0  0.24292999999999998  0.30019  0.4047200000000001  1.0000
  H   H4        1.0  0.31578  0.9000200000000002  0.29362  1.0000
  H   H5        1.0  0.08555999999999998  0.8965500000000001  0.58596  1.0000
  H   H6        1.0  0.15083  0.14212  0.25382  1.0000
  H   H7        1.0  0.3052  0.7073000000000002  0.14387  1.0000
  H   H8        1.0  0.07682  0.10831  0.57673  1.0000
  H   H9        1.0  0.9256999999999999  0.14854000000000006  0.20207000000000006  1.0000
  H   H10       1.0  0.39060999999999996  0.70127  0.96976  1.0000
  H   H11       1.0  0.26729  0.21519  0.54115  1.0000
  H   H12       1.0  0.79779  0.31350000000000006  0.29965  1.0000
  H   H13       1.0  0.5901299999999999  0.9129200000000002  0.73201  1.0000
  H   H14       1.0  0.71684  0.20822000000000002  0.44279  1.0000
  H   H15       1.0  0.75655  0.6999600000000001  0.59543  1.0000
  H   H16       1.0  0.6843  0.09990000000000004  0.7063700000000003  1.0000
  H   H17       1.0  0.91448  0.10338  0.41406  1.0000
  H   H18       1.0  0.8491  0.8579400000000003  0.74628  1.0000
  H   H19       1.0  0.6947299999999998  0.29266  0.85609  1.0000
  H   H20       1.0  0.92326  0.8916300000000003  0.42328  1.0000
  H   H21       1.0  0.07427999999999998  0.8513  0.7978  1.0000
  H   H22       1.0  0.60948  0.2988  0.03021  1.0000
  H   H23       1.0  0.7326499999999999  0.78487  0.45888  1.0000
  H   H24       1.0  0.20182999999999998  0.68627  0.70013  1.0000
  C   C1        1.0  0.49736999999999987  0.23159  0.16821  1.0000
  C   C2        1.0  0.50705  0.748  0.50032  1.0000
  C   C3        1.0  0.26002  0.49286  0.5622  1.0000
  C   C4        1.0  0.50087  0.11120000000000002  0.08344000000000001  1.0000
  C   C5        1.0  0.50385  0.8787200000000001  0.50232  1.0000
  C   C6        1.0  0.12656  0.49565000000000003  0.52988  1.0000
  C   C7        1.0  0.44993  0.004640000000000006  0.10134000000000001  1.0000
  C   C8        1.0  0.39086  0.9392900000000001  0.52405  1.0000
  C   C9        1.0  0.07549  0.4047500000000001  0.4413900000000001  1.0000
  C   C10       1.0  0.40322999999999987  0.0038499999999999993  0.20205  1.0000
  C   C11       1.0  0.27981  0.8826700000000002  0.55008  1.0000
  C   C12       1.0  0.14596999999999996  0.30537000000000003  0.38247  1.0000
  C   C13       1.0  0.35205  0.8989600000000001  0.21662  1.0000
  C   C14       1.0  0.16935  0.94187  0.56719  1.0000
  C   C15       1.0  0.09418999999999998  0.21608000000000002  0.29775  1.0000
  C   C16       1.0  0.34676  0.78928  0.13182  1.0000
  C   C17       1.0  0.16465999999999997  0.06239000000000001  0.56244  1.0000
  C   C18       1.0  0.96702  0.21976  0.26849  1.0000
  C   C19       1.0  0.39450999999999997  0.7854800000000001  0.03454  1.0000
  C   C20       1.0  0.27083999999999997  0.12164000000000001  0.54123  1.0000
  C   C21       1.0  0.89497  0.31304  0.32352  1.0000
  C   C22       1.0  0.4480399999999999  0.8918100000000002  0.01588  1.0000
  C   C23       1.0  0.3869  0.06308000000000004  0.52142  1.0000
  C   C24       1.0  0.9455799999999998  0.4078700000000001  0.41155  1.0000
  C   C25       1.0  0.50197  0.76839  0.8313000000000001  1.0000
  C   C26       1.0  0.49271  0.25196  0.49962  1.0000
  C   C27       1.0  0.7394699999999998  0.50634  0.43835  1.0000
  C   C28       1.0  0.4990499999999999  0.8888200000000003  0.9166  1.0000
  C   C29       1.0  0.49616  0.12143000000000007  0.49780000000000013  1.0000
  C   C30       1.0  0.87328  0.5042700000000001  0.4702200000000001  1.0000
  C   C31       1.0  0.55003  0.99539  0.89876  1.0000
  C   C32       1.0  0.6091  0.06083000000000003  0.4759300000000001  1.0000
  C   C33       1.0  0.92416  0.59539  0.55864  1.0000
  C   C34       1.0  0.5967300000000001  0.9961600000000004  0.7980200000000002  1.0000
  C   C35       1.0  0.72021  0.11723  0.44973  1.0000
  C   C36       1.0  0.8536099999999999  0.69484  0.61754  1.0000
  C   C37       1.0  0.6479599999999999  0.10099000000000005  0.7833700000000001  1.0000
  C   C38       1.0  0.8306899999999998  0.058080000000000014  0.43286  1.0000
  C   C39       1.0  0.9056  0.7840000000000001  0.70221  1.0000
  C   C40       1.0  0.6531299999999999  0.21069000000000002  0.86815  1.0000
  C   C41       1.0  0.8354  0.9375600000000002  0.4376  1.0000
  C   C42       1.0  0.03278  0.78016  0.7314  1.0000
  C   C43       1.0  0.6054  0.21455000000000005  0.9654600000000001  1.0000
  C   C44       1.0  0.72907  0.8783200000000001  0.45852  1.0000
  C   C45       1.0  0.10472  0.6868900000000001  0.6761700000000002  1.0000
  C   C46       1.0  0.5518  0.10826000000000005  0.9841700000000001  1.0000
  C   C47       1.0  0.61307  0.9370300000000003  0.4785400000000001  1.0000
  C   C48       1.0  0.054099999999999995  0.59204  0.58834  1.0000
  O   O1        1.0  0.3926599999999999  0.28177  0.19274  1.0000
  O   O2        1.0  0.49165999999999993  0.66734  0.41158  1.0000
  O   O3        1.0  0.3482  0.50473  0.49781  1.0000
  O   O4        1.0  0.5997499999999999  0.28368  0.21268000000000004  1.0000
  O   O5        1.0  0.52479  0.72725  0.58873  1.0000
  O   O6        1.0  0.28719  0.48691000000000006  0.6532000000000001  1.0000
  O   O7        1.0  0.6065999999999999  0.7180800000000002  0.8058  1.0000
  O   O8        1.0  0.50714  0.33323  0.58844  1.0000
  O   O9        1.0  0.6508199999999998  0.49494  0.50281  1.0000
  O   O10       1.0  0.39955  0.7155800000000001  0.7876  1.0000
  O   O11       1.0  0.47479999999999994  0.27178  0.4111  1.0000
  O   O12       1.0  0.71246  0.5132500000000001  0.34783  1.0000
