data_image0
_chemical_formula_structural       Cu8H16C32S4O32
_chemical_formula_sum              "Cu8 H16 C32 S4 O32"
_cell_length_a       10.8102
_cell_length_b       11.56594
_cell_length_c       16.93633
_cell_angle_alpha    89.93819999999998
_cell_angle_beta     90.0
_cell_angle_gamma    89.99953999999998

_space_group_name_H-M_alt    "P 1"
_space_group_IT_number       1

loop_
  _space_group_symop_operation_xyz
  'x, y, z'

loop_
  _atom_site_type_symbol
  _atom_site_label
  _atom_site_symmetry_multiplicity
  _atom_site_fract_x
  _atom_site_fract_y
  _atom_site_fract_z
  _atom_site_occupancy
  Cu  Cu1       1.0  0.00017  0.84712  0.86342  1.0000
  Cu  Cu2       1.0  0.00017  0.15269  0.13655  1.0000
  Cu  Cu3       1.0  0.14305  0.00033999999999999986  0.99949  1.0000
  Cu  Cu4       1.0  0.8574000000000002  0.0003499999999999999  0.99946  1.0000
  Cu  Cu5       1.0  0.50001  0.65115  0.36315  1.0000
  Cu  Cu6       1.0  0.50001  0.3494  0.63699  1.0000
  Cu  Cu7       1.0  0.35785  0.49809  0.4984100000000001  1.0000
  Cu  Cu8       1.0  0.64219  0.49808  0.4984100000000001  1.0000
  H   H1        1.0  0.30031  0.29831  0.23696  1.0000
  H   H2        1.0  0.30034  0.70158  0.7632  1.0000
  H   H3        1.0  0.69954  0.70112  0.76325  1.0000
  H   H4        1.0  0.6996000000000001  0.29877  0.23688999999999996  1.0000
  H   H5        1.0  0.99995  0.8348799999999998  0.01828  1.0000
  H   H6        1.0  0.9999600000000001  0.16555  0.9817600000000001  1.0000
  H   H7        1.0  0.50015  0.10576  0.060410000000000005  1.0000
  H   H8        1.0  0.5001600000000002  0.89438  0.93966  1.0000
  H   H9        1.0  0.19952000000000003  0.20158999999999996  0.73659  1.0000
  H   H10       1.0  0.19949  0.7985699999999999  0.26347  1.0000
  H   H11       1.0  0.80053  0.7986  0.26347  1.0000
  H   H12       1.0  0.80051  0.20156  0.73659  1.0000
  H   H13       1.0  6.268397974167363e-22  0.39525999999999994  0.5601  1.0000
  H   H14       1.0  0.0  0.60484  0.43996  1.0000
  H   H15       1.0  0.50001  0.66386  0.51823  1.0000
  H   H16       1.0  0.5  0.33249  0.48216  1.0000
  C   C1        1.0  0.26741  0.15772  0.11108  1.0000
  C   C2        1.0  0.26745  0.84226  0.88892  1.0000
  C   C3        1.0  0.38777000000000006  0.19871  0.14455  1.0000
  C   C4        1.0  0.3874  0.27155  0.21067  1.0000
  C   C5        1.0  0.38781  0.80121  0.85558  1.0000
  C   C6        1.0  0.38745000000000007  0.72832  0.78949  1.0000
  C   C7        1.0  0.7327300000000001  0.84213  0.88899  1.0000
  C   C8        1.0  0.7327600000000001  0.15784999999999996  0.11101  1.0000
  C   C9        1.0  0.61233  0.8010199999999998  0.85566  1.0000
  C   C10       1.0  0.61253  0.7280399999999999  0.78958  1.0000
  C   C11       1.0  0.61236  0.19888999999999998  0.14448  1.0000
  C   C12       1.0  0.61259  0.27182  0.21057  1.0000
  C   C13       1.0  0.5000800000000001  0.16285  0.11138  1.0000
  C   C14       1.0  0.4999700000000001  0.30756  0.24247999999999997  1.0000
  C   C15       1.0  0.5000800000000001  0.83714  0.88877  1.0000
  C   C16       1.0  0.4999700000000001  0.69226  0.75764  1.0000
  C   C17       1.0  0.11222  0.30167  0.64426  1.0000
  C   C18       1.0  0.11248  0.22836  0.71022  1.0000
  C   C19       1.0  0.11222  0.69853  0.35589  1.0000
  C   C20       1.0  0.11248  0.77186  0.28992  1.0000
  C   C21       1.0  0.23242000000000004  0.34347  0.61107  1.0000
  C   C22       1.0  0.23232  0.65623  0.38891  1.0000
  C   C23       1.0  0.8878000000000001  0.69853  0.35589  1.0000
  C   C24       1.0  0.8875400000000002  0.7718699999999998  0.28992  1.0000
  C   C25       1.0  0.8878000000000001  0.30167  0.64427  1.0000
  C   C26       1.0  0.8875400000000002  0.22834  0.71022  1.0000
  C   C27       1.0  0.7677100000000001  0.65622  0.38891  1.0000
  C   C28       1.0  0.76761  0.34347  0.61107  1.0000
  C   C29       1.0  1e-05  0.33794  0.61105  1.0000
  C   C30       1.0  1e-05  0.19201  0.74206  1.0000
  C   C31       1.0  1e-05  0.66226  0.38907  1.0000
  C   C32       1.0  0.0  0.80822  0.25808  1.0000
  S   S1        1.0  0.49998000000000004  0.40459  0.32362  1.0000
  S   S2        1.0  0.4999700000000001  0.59559  0.67624  1.0000
  S   S3        1.0  3.0000000000000008e-05  0.09601999999999998  0.82409  1.0000
  S   S4        1.0  1e-05  0.9040199999999999  0.1759  1.0000
  O   O1        1.0  0.27301000000000003  0.09169999999999999  0.05122  1.0000
  O   O2        1.0  0.16985  0.80648  0.8532  1.0000
  O   O3        1.0  0.27301000000000003  0.9084  0.9487500000000001  1.0000
  O   O4        1.0  0.16982  0.19354999999999997  0.1468  1.0000
  O   O5        1.0  0.38560000000000005  0.38363  0.36946  1.0000
  O   O6        1.0  0.3856300000000001  0.61654  0.63054  1.0000
  O   O7        1.0  0.72732  0.9084  0.9487700000000001  1.0000
  O   O8        1.0  0.83035  0.19376999999999997  0.14672  1.0000
  O   O9        1.0  0.7272900000000001  0.09170999999999999  0.0512  1.0000
  O   O10       1.0  0.83032  0.80625  0.85328  1.0000
  O   O11       1.0  0.61431  0.61655  0.63054  1.0000
  O   O12       1.0  0.61434  0.38363  0.36947  1.0000
  O   O13       1.0  7e-05  0.8928699999999999  0.97606  1.0000
  O   O14       1.0  5e-05  0.10727  0.02379  1.0000
  O   O15       1.0  0.5  0.5209  0.28266  1.0000
  O   O16       1.0  0.5  0.47913999999999995  0.71727  1.0000
  O   O17       1.0  0.11448  0.11809999999999998  0.86952  1.0000
  O   O18       1.0  0.11445  0.8818799999999999  0.13053  1.0000
  O   O19       1.0  0.22649000000000002  0.40958  0.55124  1.0000
  O   O20       1.0  0.33017  0.69141  0.35308  1.0000
  O   O21       1.0  0.22630000000000003  0.5893  0.44838  1.0000
  O   O22       1.0  0.33029  0.30853  0.64701  1.0000
  O   O23       1.0  0.8855100000000001  0.88213  0.13053  1.0000
  O   O24       1.0  0.88553  0.1179  0.86953  1.0000
  O   O25       1.0  0.77374  0.58929  0.44838  1.0000
  O   O26       1.0  0.6697300000000002  0.30854  0.64701  1.0000
  O   O27       1.0  0.77356  0.40956  0.55124  1.0000
  O   O28       1.0  0.6698500000000001  0.6914000000000001  0.35308  1.0000
  O   O29       1.0  3.9999999999999996e-05  0.9786199999999999  0.78477  1.0000
  O   O30       1.0  5e-05  0.02147  0.21525  1.0000
  O   O31       1.0  0.50001  0.6064  0.47578000000000004  1.0000
  O   O32       1.0  0.50001  0.39116  0.52377  1.0000
