data_image0
_chemical_formula_structural       K2Gd2H4C20O18
_chemical_formula_sum              "K2 Gd2 H4 C20 O18"
_cell_length_a       7.12172
_cell_length_b       8.95465
_cell_length_c       15.077140000000002
_cell_angle_alpha    79.55387999999999
_cell_angle_beta     86.03186000000001
_cell_angle_gamma    85.40445000000001

_symmetry_space_group_name_H-M    'P 1'
_symmetry_Int_Tables_number       1

loop_
  _symmetry_equiv_pos_as_xyz
  'x,y,z'

loop_
  _atom_site_type_symbol
  _atom_site_label
  _atom_site_symmetry_multiplicity
  _atom_site_fract_x
  _atom_site_fract_y
  _atom_site_fract_z
  _atom_site_occupancy
  K   K1        1.0  0.02524  0.5546  0.12023  1.0000
  K   K2        1.0  0.9747600000000004  0.44540000000000013  0.87977  1.0000
  Gd  Gd1       1.0  0.5312100000000001  0.4094400000000002  0.22124  1.0000
  Gd  Gd2       1.0  0.46878999999999993  0.59056  0.7787700000000002  1.0000
  H   H1        1.0  0.35064  0.48694  0.48174  1.0000
  H   H2        1.0  0.6366800000000002  0.03647000000000003  0.8409  1.0000
  H   H3        1.0  0.64936  0.51306  0.51827  1.0000
  H   H4        1.0  0.3633199999999999  0.9635200000000002  0.1591  1.0000
  C   C1        1.0  0.19711000000000012  0.49321000000000004  0.49012  1.0000
  C   C2        1.0  0.09057000000000001  0.4611399999999999  0.42115  1.0000
  C   C3        1.0  0.10858  0.53294  0.56849  1.0000
  C   C4        1.0  0.20001000000000002  0.42776  0.33832  1.0000
  C   C5        1.0  0.22777999999999998  0.56663  0.63987  1.0000
  C   C6        1.0  0.48632000000000003  0.14408000000000007  0.94474  1.0000
  C   C7        1.0  0.3086200000000001  0.25470000000000004  0.07138  1.0000
  C   C8        1.0  0.4112800000000001  0.12308000000000001  0.03566  1.0000
  C   C9        1.0  0.57765  0.02146999999999997  0.91023  1.0000
  C   C10       1.0  0.47647000000000006  0.2995999999999999  0.8873800000000001  1.0000
  C   C11       1.0  0.8028900000000002  0.50679  0.50988  1.0000
  C   C12       1.0  0.90943  0.5388600000000001  0.5788500000000002  1.0000
  C   C13       1.0  0.89142  0.46706  0.43151  1.0000
  C   C14       1.0  0.7999900000000002  0.5722400000000001  0.66168  1.0000
  C   C15       1.0  0.7722200000000002  0.43337000000000003  0.36013  1.0000
  C   C16       1.0  0.51367  0.85591  0.05526  1.0000
  C   C17       1.0  0.69137  0.7453  0.92862  1.0000
  C   C18       1.0  0.58872  0.87691  0.96434  1.0000
  C   C19       1.0  0.4223400000000001  0.9785200000000001  0.08977  1.0000
  C   C20       1.0  0.5235200000000002  0.70039  0.11262  1.0000
  O   O1        1.0  0.27775  0.29615  0.33756  1.0000
  O   O2        1.0  0.23121  0.54021  0.27472  1.0000
  O   O3        1.0  0.1495600000000001  0.60712  0.71175  1.0000
  O   O4        1.0  0.4062900000000001  0.5531100000000001  0.6268  1.0000
  O   O5        1.0  0.3347700000000001  0.2744500000000001  0.15092  1.0000
  O   O6        1.0  0.1944800000000001  0.33296  0.01822  1.0000
  O   O7        1.0  0.5839900000000002  0.3947100000000001  0.9066800000000002  1.0000
  O   O8        1.0  0.3688900000000001  0.3316000000000001  0.82164  1.0000
  O   O9        1.0  0.75423  0.34093  0.11996000000000001  1.0000
  O   O10       1.0  0.72225  0.70385  0.66244  1.0000
  O   O11       1.0  0.76879  0.45979000000000003  0.72528  1.0000
  O   O12       1.0  0.85044  0.39288  0.28825  1.0000
  O   O13       1.0  0.59371  0.44688999999999995  0.3732  1.0000
  O   O14       1.0  0.66523  0.7255499999999999  0.84909  1.0000
  O   O15       1.0  0.8055200000000002  0.6670499999999999  0.98178  1.0000
  O   O16       1.0  0.4160100000000001  0.60527  0.09332  1.0000
  O   O17       1.0  0.63111  0.6684  0.17837  1.0000
  O   O18       1.0  0.2457700000000001  0.65907  0.88004  1.0000
