data_image0
_chemical_formula_structural       Cd5H24C44N10O16
_chemical_formula_sum              "Cd5 H24 C44 N10 O16"
_cell_length_a       10.12012
_cell_length_b       10.83818
_cell_length_c       14.845139999999999
_cell_angle_alpha    98.42038999999998
_cell_angle_beta     95.91871
_cell_angle_gamma    110.26356999999999

_space_group_name_H-M_alt    "P 1"
_space_group_IT_number       1

loop_
  _space_group_symop_operation_xyz
  'x, y, z'

loop_
  _atom_site_type_symbol
  _atom_site_label
  _atom_site_symmetry_multiplicity
  _atom_site_fract_x
  _atom_site_fract_y
  _atom_site_fract_z
  _atom_site_occupancy
  Cd  Cd1       1.0  0.0  0.4999999999999999  0.0  1.0000
  Cd  Cd2       1.0  0.90346  0.3777499999999999  0.3964799999999999  1.0000
  Cd  Cd3       1.0  0.019270000000000002  0.27403  0.17389  1.0000
  Cd  Cd4       1.0  0.09653999999999997  0.6222499999999999  0.6035199999999998  1.0000
  Cd  Cd5       1.0  0.98073  0.7259699999999999  0.8261099999999998  1.0000
  H   H1        1.0  0.31516  0.05368999999999998  0.8244099999999999  1.0000
  H   H2        1.0  0.16963999999999999  0.92419  0.34329  1.0000
  H   H3        1.0  0.60688  0.5803099999999998  0.66674  1.0000
  H   H4        1.0  0.45812  0.21731999999999996  0.19404999999999994  1.0000
  H   H5        1.0  0.74488  0.54001  0.077  1.0000
  H   H6        1.0  0.82225  0.84922  0.68243  1.0000
  H   H7        1.0  0.6549400000000001  0.4870899999999999  0.3821099999999999  1.0000
  H   H8        1.0  0.52464  0.22684999999999989  0.9342299999999998  1.0000
  H   H9        1.0  0.5418799999999998  0.7826699999999998  0.8059599999999998  1.0000
  H   H10       1.0  0.08256999999999996  0.013249999999999948  0.9368999999999997  1.0000
  H   H11       1.0  0.17775000000000002  0.15076999999999996  0.31757  1.0000
  H   H12       1.0  0.83036  0.07580999999999993  0.6567099999999998  1.0000
  H   H13       1.0  0.25512  0.45998999999999995  0.9229999999999999  1.0000
  H   H14       1.0  0.91743  0.9867399999999998  0.06309999999999998  1.0000
  H   H15       1.0  0.53875  0.46087999999999996  0.16014  1.0000
  H   H16       1.0  0.09160999999999993  0.2439699999999999  0.9268199999999998  1.0000
  H   H17       1.0  0.39313  0.41969  0.33326  1.0000
  H   H18       1.0  0.3450599999999999  0.51291  0.6178899999999998  1.0000
  H   H19       1.0  0.68484  0.9463099999999995  0.17558999999999994  1.0000
  H   H20       1.0  0.46124999999999994  0.5391199999999999  0.8398599999999998  1.0000
  H   H21       1.0  0.26031000000000004  0.05285  0.07494  1.0000
  H   H22       1.0  0.47536000000000006  0.77315  0.06576999999999998  1.0000
  H   H23       1.0  0.73969  0.9471499999999999  0.9250599999999998  1.0000
  H   H24       1.0  0.90839  0.7560199999999998  0.07317999999999997  1.0000
  C   C1        1.0  0.35244999999999993  0.46116999999999997  0.4724999999999999  1.0000
  C   C2        1.0  0.4769299999999999  0.5214299999999997  0.9097899999999998  1.0000
  C   C3        1.0  0.2986499999999999  0.8122599999999999  0.7356299999999998  1.0000
  C   C4        1.0  0.6475499999999998  0.5388299999999999  0.52751  1.0000
  C   C5        1.0  0.036479999999999985  0.82141  0.21059999999999995  1.0000
  C   C6        1.0  0.59005  0.96725  0.15431999999999996  1.0000
  C   C7        1.0  0.8807400000000001  0.9398999999999998  0.7339199999999998  1.0000
  C   C8        1.0  0.36213  0.47655999999999993  0.9562799999999998  1.0000
  C   C9        1.0  0.5835300000000001  0.09107999999999998  0.19248999999999994  1.0000
  C   C10       1.0  0.35217000000000004  0.02903  0.09855  1.0000
  C   C11       1.0  0.52566  0.12832999999999992  0.9071799999999998  1.0000
  C   C12       1.0  0.46345  0.12152999999999992  0.16451999999999994  1.0000
  C   C13       1.0  0.8045400000000001  0.5842899999999999  0.55932  1.0000
  C   C14       1.0  0.96352  0.17859  0.78941  1.0000
  C   C15       1.0  0.02493  0.031830000000000004  0.87759  1.0000
  C   C16       1.0  0.11926000000000002  0.06009999999999997  0.2660799999999999  1.0000
  C   C17       1.0  0.6478299999999999  0.9709699999999998  0.9014499999999998  1.0000
  C   C18       1.0  0.22774999999999995  0.7991399999999999  0.9998799999999999  1.0000
  C   C19       1.0  0.26146  0.40284  0.09601999999999997  1.0000
  C   C20       1.0  0.5872700000000001  0.49279999999999996  0.4336099999999999  1.0000
  C   C21       1.0  0.88542  0.06543999999999993  0.7203699999999997  1.0000
  C   C22       1.0  0.41273000000000004  0.50719  0.56639  1.0000
  C   C23       1.0  0.3842999999999999  0.45482999999999996  0.04670999999999999  1.0000
  C   C24       1.0  0.9808600000000001  0.3124999999999999  0.7725999999999997  1.0000
  C   C25       1.0  0.03172999999999996  0.16018999999999997  0.8704699999999997  1.0000
  C   C26       1.0  0.73854  0.5971599999999999  0.90398  1.0000
  C   C27       1.0  0.52307  0.47857  0.09021  1.0000
  C   C28       1.0  0.70135  0.18773  0.26437999999999995  1.0000
  C   C29       1.0  0.55944  0.54589  0.5939399999999998  1.0000
  C   C30       1.0  0.53655  0.87847  0.8354799999999999  1.0000
  C   C31       1.0  0.47434000000000004  0.8716599999999999  0.09281999999999999  1.0000
  C   C32       1.0  0.4099499999999999  0.032739999999999915  0.8456799999999998  1.0000
  C   C33       1.0  0.7722500000000001  0.20085999999999996  0.00012999999999999993  1.0000
  C   C34       1.0  0.3546000000000001  0.90212  0.06446999999999999  1.0000
  C   C35       1.0  0.11457999999999992  0.9345499999999998  0.2796299999999999  1.0000
  C   C36       1.0  0.019140000000000008  0.6875  0.22739999999999994  1.0000
  C   C37       1.0  0.6454000000000001  0.09787999999999995  0.9355299999999998  1.0000
  C   C38       1.0  0.6157  0.5451699999999999  0.9532899999999997  1.0000
  C   C39       1.0  0.63787  0.52344  0.043719999999999995  1.0000
  C   C40       1.0  0.41646999999999984  0.9089199999999997  0.8075099999999997  1.0000
  C   C41       1.0  0.9682700000000001  0.8398  0.12952999999999995  1.0000
  C   C42       1.0  0.19547000000000006  0.41571  0.4406799999999999  1.0000
  C   C43       1.0  0.9750700000000002  0.96817  0.12240999999999998  1.0000
  C   C44       1.0  0.44056000000000006  0.4541099999999999  0.40605999999999987  1.0000
  N   N1        1.0  0.007100000000000013  0.65785  0.31210999999999994  1.0000
  N   N2        1.0  0.9845000000000003  0.47902  0.21246999999999994  1.0000
  N   N3        1.0  0.014659999999999992  0.47219999999999995  0.6999899999999998  1.0000
  N   N4        1.0  0.9853400000000001  0.5277999999999999  0.30002  1.0000
  N   N5        1.0  0.9950000000000001  0.4223699999999999  0.8355399999999997  1.0000
  N   N6        1.0  0.9517800000000001  0.9234999999999999  0.81057  1.0000
  N   N7        1.0  0.01550999999999995  0.5209799999999999  0.7875299999999998  1.0000
  N   N8        1.0  0.9929000000000001  0.34214999999999995  0.6879  1.0000
  N   N9        1.0  0.0050000000000000105  0.57762  0.16446  1.0000
  N   N10       1.0  0.04821999999999999  0.07649999999999997  0.18942999999999993  1.0000
  O   O1        1.0  0.11497000000000003  0.44974  0.4955599999999999  1.0000
  O   O2        1.0  0.7198000000000002  0.6257  0.8253199999999998  1.0000
  O   O3        1.0  0.32686000000000004  0.7304899999999999  0.6762299999999998  1.0000
  O   O4        1.0  0.17138000000000006  0.81275  0.7318  1.0000
  O   O5        1.0  0.82862  0.18724  0.26819999999999994  1.0000
  O   O6        1.0  0.7939800000000001  0.32400999999999996  0.99974  1.0000
  O   O7        1.0  0.20602  0.6759799999999999  0.00025999999999999987  1.0000
  O   O8        1.0  0.84854  0.15579  0.049599999999999984  1.0000
  O   O9        1.0  0.8600000000000001  0.65646  0.63778  1.0000
  O   O10       1.0  0.15145999999999996  0.8442099999999999  0.9503999999999999  1.0000
  O   O11       1.0  0.14  0.34353  0.3622299999999999  1.0000
  O   O12       1.0  0.2802  0.37429  0.17467999999999995  1.0000
  O   O13       1.0  0.67314  0.26951  0.3237699999999999  1.0000
  O   O14       1.0  0.13388000000000003  0.38098999999999994  0.05429  1.0000
  O   O15       1.0  0.88503  0.55025  0.50444  1.0000
  O   O16       1.0  0.86612  0.6189999999999998  0.9457099999999998  1.0000
