data_image0
_chemical_formula_structural       Ni3H16C18O14
_chemical_formula_sum              "Ni3 H16 C18 O14"
_cell_length_a       7.74214
_cell_length_b       9.05937
_cell_length_c       10.82328
_cell_angle_alpha    110.80567000000002
_cell_angle_beta     93.72144
_cell_angle_gamma    113.76705999999999

_space_group_name_H-M_alt    "P 1"
_space_group_IT_number       1

loop_
  _space_group_symop_operation_xyz
  'x, y, z'

loop_
  _atom_site_type_symbol
  _atom_site_label
  _atom_site_symmetry_multiplicity
  _atom_site_fract_x
  _atom_site_fract_y
  _atom_site_fract_z
  _atom_site_occupancy
  Ni  Ni1       1.0  0.81734  0.88963  0.86465  1.0000
  Ni  Ni2       1.0  0.16461  0.09396000000000003  0.12675  1.0000
  Ni  Ni3       1.0  0.49673  0.9960000000000002  0.9971000000000001  1.0000
  H   H1        1.0  0.5164900000000001  0.8067400000000003  0.3173000000000001  1.0000
  H   H2        1.0  0.7219599999999998  0.011370000000000047  0.39529000000000003  1.0000
  H   H3        1.0  0.6150499999999998  0.5359  0.4262  1.0000
  H   H4        1.0  0.8678299999999998  0.64811  0.45507000000000003  1.0000
  H   H5        1.0  0.9743800000000001  0.74224  0.23367  1.0000
  H   H6        1.0  0.7943499999999998  0.61044  0.07813  1.0000
  H   H7        1.0  0.7887499999999997  0.17262  0.95132  1.0000
  H   H8        1.0  0.6828699999999998  0.03244  0.74257  1.0000
  H   H9        1.0  0.4850699999999999  0.21664000000000005  0.6842000000000001  1.0000
  H   H10       1.0  0.29639999999999994  0.0017300000000000297  0.6021  1.0000
  H   H11       1.0  0.28700999999999993  0.4425800000000001  0.5516  1.0000
  H   H12       1.0  0.05337999999999998  0.30134  0.55549  1.0000
  H   H13       1.0  0.020119999999999947  0.26267  0.79558  1.0000
  H   H14       1.0  0.2309000000000001  0.39422000000000024  0.93021  1.0000
  H   H15       1.0  0.21425  0.82169  0.05279  1.0000
  H   H16       1.0  0.32254000000000005  0.9761500000000001  0.25865  1.0000
  C   C1        1.0  0.7694099999999999  0.9177200000000002  0.14174  1.0000
  C   C2        1.0  0.75036  0.81946  0.22321000000000002  1.0000
  C   C3        1.0  0.6781  0.8682500000000002  0.34939  1.0000
  C   C4        1.0  0.72718  0.80382  0.44891  1.0000
  C   C5        1.0  0.7304599999999999  0.6289300000000002  0.3978900000000001  1.0000
  C   C6        1.0  0.71381  0.5503000000000002  0.24920000000000003  1.0000
  C   C7        1.0  0.81511  0.67654  0.18862  1.0000
  C   C8        1.0  0.7523100000000001  0.8891400000000003  0.59348  1.0000
  C   C9        1.0  0.5659899999999998  0.36658  0.16659  1.0000
  C   C10       1.0  0.21616999999999992  0.06696999999999997  0.84661  1.0000
  C   C11       1.0  0.23714999999999997  0.17327  0.77016  1.0000
  C   C12       1.0  0.32366  0.14083999999999994  0.64892  1.0000
  C   C13       1.0  0.2561800000000001  0.19559000000000007  0.5479800000000001  1.0000
  C   C14       1.0  0.21079000000000003  0.35033000000000014  0.5963900000000001  1.0000
  C   C15       1.0  0.2611800000000001  0.4401800000000001  0.7480800000000002  1.0000
  C   C16       1.0  0.18122999999999992  0.32241999999999993  0.81869  1.0000
  C   C17       1.0  0.24209999999999998  0.11386000000000004  0.40407000000000004  1.0000
  C   C18       1.0  0.41356999999999994  0.6239100000000001  0.82082  1.0000
  O   O1        1.0  0.7029399999999997  0.028910000000000033  0.16261000000000003  1.0000
  O   O2        1.0  0.8729399999999998  0.89076  0.04904000000000001  1.0000
  O   O3        1.0  0.6989999999999997  0.051069999999999977  0.8875500000000001  1.0000
  O   O4        1.0  0.40709  0.3233  0.20622000000000001  1.0000
  O   O5        1.0  0.6016099999999999  0.2672500000000001  0.06501  1.0000
  O   O6        1.0  0.68368  0.006479999999999975  0.6397  1.0000
  O   O7        1.0  0.83222  0.8446  0.67043  1.0000
  O   O8        1.0  0.29368  0.9646300000000002  0.82549  1.0000
  O   O9        1.0  0.11278999999999997  0.088  0.93967  1.0000
  O   O10       1.0  0.2996699999999998  0.9465300000000001  0.11174000000000002  1.0000
  O   O11       1.0  0.56526  0.6675500000000002  0.77375  1.0000
  O   O12       1.0  0.38302999999999987  0.72617  0.9243100000000001  1.0000
  O   O13       1.0  0.32453  0.007130000000000027  0.36256000000000005  1.0000
  O   O14       1.0  0.15474  0.14898000000000006  0.32353000000000004  1.0000
