data_image0
_chemical_formula_structural       Ce2H18C42S6O12
_chemical_formula_sum              "Ce2 H18 C42 S6 O12"
_cell_length_a       7.90559
_cell_length_b       14.304820000000001
_cell_length_c       14.30504
_cell_angle_alpha    69.54954
_cell_angle_beta     88.62597
_cell_angle_gamma    88.62548999999999

_space_group_name_H-M_alt    "P 1"
_space_group_IT_number       1

loop_
  _space_group_symop_operation_xyz
  'x, y, z'

loop_
  _atom_site_type_symbol
  _atom_site_label
  _atom_site_symmetry_multiplicity
  _atom_site_fract_x
  _atom_site_fract_y
  _atom_site_fract_z
  _atom_site_occupancy
  Ce  Ce1       1.0  0.59983  0.08118999999999997  0.04854999999999999  1.0000
  Ce  Ce2       1.0  0.09964999999999997  0.04859  0.08131999999999999  1.0000
  H   H1        1.0  0.10305  0.6950399999999999  0.8753599999999999  1.0000
  H   H2        1.0  0.028610000000000003  0.9047399999999999  0.57867  1.0000
  H   H3        1.0  0.86736  0.6016699999999999  0.6553599999999998  1.0000
  H   H4        1.0  0.06691  0.3472899999999999  0.05783999999999999  1.0000
  H   H5        1.0  0.13889  0.53619  0.9634099999999998  1.0000
  H   H6        1.0  0.38947  0.09625000000000009  0.6998899999999998  1.0000
  H   H7        1.0  0.23505000000000004  0.9921299999999996  0.60782  1.0000
  H   H8        1.0  0.63617  0.7341899999999997  0.33351  1.0000
  H   H9        1.0  0.7189  0.6490999999999998  0.52265  1.0000
  H   H10       1.0  0.60305  0.8753699999999998  0.69504  1.0000
  H   H11       1.0  0.52861  0.57868  0.9047299999999999  1.0000
  H   H12       1.0  0.3673600000000001  0.6553699999999998  0.60166  1.0000
  H   H13       1.0  0.5669  0.05784999999999999  0.34729  1.0000
  H   H14       1.0  0.6388900000000001  0.9634199999999996  0.53618  1.0000
  H   H15       1.0  0.88947  0.6998999999999997  0.09624  1.0000
  H   H16       1.0  0.73505  0.6078299999999999  0.9921199999999998  1.0000
  H   H17       1.0  0.13617000000000007  0.33351  0.7341799999999998  1.0000
  H   H18       1.0  0.2189  0.5226499999999997  0.6491  1.0000
  C   C1        1.0  0.9801699999999995  0.6370199999999999  0.7742699999999998  1.0000
  C   C2        1.0  0.058190000000000006  0.7118699999999998  0.79988  1.0000
  C   C3        1.0  0.07983999999999995  0.80804  0.7296099999999999  1.0000
  C   C4        1.0  0.018350000000000016  0.8294599999999998  0.63273  1.0000
  C   C5        1.0  0.94082  0.7560299999999998  0.60511  1.0000
  C   C6        1.0  0.9236999999999996  0.65982  0.67658  1.0000
  C   C7        1.0  0.9637300000000001  0.5364  0.8475499999999998  1.0000
  C   C8        1.0  0.8953899999999998  0.35783999999999994  0.93858  1.0000
  C   C9        1.0  0.011339999999999998  0.39405999999999997  0.98803  1.0000
  C   C10       1.0  0.04895999999999999  0.49519  0.9371799999999999  1.0000
  C   C11       1.0  0.82488  0.25803000000000004  0.9703899999999999  1.0000
  C   C12       1.0  0.16638999999999995  0.88526  0.75451  1.0000
  C   C13       1.0  0.31299  0.9840199999999998  0.83991  1.0000
  C   C14       1.0  0.32291  0.02718000000000007  0.7366399999999997  1.0000
  C   C15       1.0  0.23818  0.97203  0.68829  1.0000
  C   C16       1.0  0.3899299999999999  0.020709999999999954  0.91191  1.0000
  C   C17       1.0  0.87595  0.7779399999999999  0.5050799999999999  1.0000
  C   C18       1.0  0.79649  0.8568999999999998  0.32705  1.0000
  C   C19       1.0  0.7221899999999998  0.7648099999999998  0.37292  1.0000
  C   C20       1.0  0.76795  0.71983  0.47336  1.0000
  C   C21       1.0  0.7614  0.9268299999999998  0.22709  1.0000
  C   C22       1.0  0.48016999999999993  0.7742799999999997  0.6370199999999998  1.0000
  C   C23       1.0  0.5581899999999997  0.79989  0.7118599999999998  1.0000
  C   C24       1.0  0.57984  0.7296199999999999  0.8080299999999999  1.0000
  C   C25       1.0  0.5183499999999999  0.63274  0.82945  1.0000
  C   C26       1.0  0.4408199999999999  0.6051199999999998  0.7560199999999999  1.0000
  C   C27       1.0  0.4237  0.6765799999999997  0.65981  1.0000
  C   C28       1.0  0.46373  0.8475599999999998  0.5363999999999999  1.0000
  C   C29       1.0  0.39539  0.9385799999999997  0.35783  1.0000
  C   C30       1.0  0.51133  0.9880399999999996  0.39405  1.0000
  C   C31       1.0  0.54895  0.93719  0.49518  1.0000
  C   C32       1.0  0.3248799999999999  0.9703999999999998  0.25802  1.0000
  C   C33       1.0  0.66639  0.75452  0.8852499999999998  1.0000
  C   C34       1.0  0.8130099999999998  0.83992  0.984  1.0000
  C   C35       1.0  0.82291  0.7366400000000001  0.027179999999999992  1.0000
  C   C36       1.0  0.7381799999999997  0.68829  0.97202  1.0000
  C   C37       1.0  0.88996  0.9118999999999998  0.02071  1.0000
  C   C38       1.0  0.37595  0.50508  0.77794  1.0000
  C   C39       1.0  0.29650000000000004  0.32704000000000005  0.8568999999999998  1.0000
  C   C40       1.0  0.22219  0.37292  0.76481  1.0000
  C   C41       1.0  0.26795  0.47336  0.71983  1.0000
  C   C42       1.0  0.2614000000000001  0.22706000000000007  0.9268499999999998  1.0000
  S   S1        1.0  0.8327199999999998  0.44921000000000005  0.8283099999999999  1.0000
  S   S2        1.0  0.20114999999999994  0.87445  0.8768499999999998  1.0000
  S   S3        1.0  0.9247199999999998  0.88719  0.40828  1.0000
  S   S4        1.0  0.33272  0.8283199999999997  0.44919999999999993  1.0000
  S   S5        1.0  0.70115  0.8768599999999995  0.87444  1.0000
  S   S6        1.0  0.42472  0.4082799999999999  0.88719  1.0000
  O   O1        1.0  0.88128  0.18991999999999995  0.05101  1.0000
  O   O2        1.0  0.7046  0.2401600000000001  0.9219299999999998  1.0000
  O   O3        1.0  0.50739  0.08377000000000001  0.88362  1.0000
  O   O4        1.0  0.3416  0.9859799999999997  0.00552  1.0000
  O   O5        1.0  0.6479999999999998  0.9070699999999999  0.17570999999999995  1.0000
  O   O6        1.0  0.84097  0.011340000000000013  0.19372999999999999  1.0000
  O   O7        1.0  0.38128  0.05100000000000002  0.18990999999999994  1.0000
  O   O8        1.0  0.2045899999999999  0.92193  0.24015999999999998  1.0000
  O   O9        1.0  0.007380000000000003  0.8836299999999998  0.08378999999999998  1.0000
  O   O10       1.0  0.84164  0.005520000000000088  0.9859599999999997  1.0000
  O   O11       1.0  0.14797  0.17571000000000003  0.90709  1.0000
  O   O12       1.0  0.34099  0.19371  0.011349999999999997  1.0000
