data_image0
_chemical_formula_structural       Gd4H24C24O30
_chemical_formula_sum              "Gd4 H24 C24 O30"
_cell_length_a       9.09668
_cell_length_b       9.09692
_cell_length_c       16.96619
_cell_angle_alpha    90.0
_cell_angle_beta     90.0
_cell_angle_gamma    118.86948000000001

_symmetry_space_group_name_H-M    'P 1'
_symmetry_Int_Tables_number       1

loop_
  _symmetry_equiv_pos_as_xyz
  'x,y,z'

loop_
  _atom_site_type_symbol
  _atom_site_label
  _atom_site_symmetry_multiplicity
  _atom_site_fract_x
  _atom_site_fract_y
  _atom_site_fract_z
  _atom_site_occupancy
  Gd  Gd1       1.0  0.99405  0.99405  0.0  1.0000
  Gd  Gd2       1.0  0.99405  0.99405  0.5  1.0000
  Gd  Gd3       1.0  0.65536  0.33064  0.7500000000000002  1.0000
  Gd  Gd4       1.0  0.33061  0.65534  0.25  1.0000
  H   H1        1.0  0.9714099999999999  0.5481  0.90852  1.0000
  H   H2        1.0  0.80341  0.47854  0.97765  1.0000
  H   H3        1.0  0.9715  0.57644  0.09728  1.0000
  H   H4        1.0  0.1480499999999999  0.62004  0.03677  1.0000
  H   H5        1.0  0.40848  0.41314  0.90649  1.0000
  H   H6        1.0  0.51014  0.33319  0.9694699999999999  1.0000
  H   H7        1.0  0.54809  0.9714  0.09148000000000003  1.0000
  H   H8        1.0  0.47852999999999996  0.80341  0.02235  1.0000
  H   H9        1.0  0.57642  0.9715  0.9027100000000002  1.0000
  H   H10       1.0  0.62003  0.14805  0.9632300000000001  1.0000
  H   H11       1.0  0.41314  0.40848  0.09352000000000003  1.0000
  H   H12       1.0  0.33318  0.51013  0.030530000000000005  1.0000
  H   H13       1.0  0.54809  0.9714  0.4085200000000001  1.0000
  H   H14       1.0  0.47852999999999996  0.80341  0.47765  1.0000
  H   H15       1.0  0.57642  0.9715  0.59728  1.0000
  H   H16       1.0  0.62003  0.14805  0.53677  1.0000
  H   H17       1.0  0.41314  0.40848  0.40648  1.0000
  H   H18       1.0  0.33318  0.51013  0.46947000000000005  1.0000
  H   H19       1.0  0.9714099999999999  0.5481  0.5914800000000001  1.0000
  H   H20       1.0  0.80341  0.47854  0.5223500000000001  1.0000
  H   H21       1.0  0.9715  0.57644  0.40272  1.0000
  H   H22       1.0  0.1480499999999999  0.62004  0.46323  1.0000
  H   H23       1.0  0.40848  0.41314  0.59351  1.0000
  H   H24       1.0  0.51014  0.33319  0.53053  1.0000
  C   C1        1.0  0.80102  0.64904  0.89094  1.0000
  C   C2        1.0  0.89596  0.58829  0.94408  1.0000
  C   C3        1.0  0.07013000000000003  0.6725  0.05988  1.0000
  C   C4        1.0  0.17832999999999996  0.82735  0.10945  1.0000
  C   C5        1.0  0.33565999999999996  0.15157  0.8879600000000002  1.0000
  C   C6        1.0  0.38952  0.30344  0.9415  1.0000
  C   C7        1.0  0.64903  0.80101  0.10906000000000003  1.0000
  C   C8        1.0  0.5882699999999997  0.89595  0.05592000000000001  1.0000
  C   C9        1.0  0.67249  0.07013  0.94012  1.0000
  C   C10       1.0  0.82735  0.17833  0.8905500000000002  1.0000
  C   C11       1.0  0.15155  0.33565  0.11204  1.0000
  C   C12       1.0  0.30343  0.38951  0.0585  1.0000
  C   C13       1.0  0.64903  0.80101  0.39094  1.0000
  C   C14       1.0  0.5882699999999997  0.89595  0.44408  1.0000
  C   C15       1.0  0.67249  0.07013  0.55988  1.0000
  C   C16       1.0  0.82735  0.17833  0.60945  1.0000
  C   C17       1.0  0.15155  0.33565  0.38796  1.0000
  C   C18       1.0  0.30343  0.38951  0.4415  1.0000
  C   C19       1.0  0.80102  0.64904  0.60906  1.0000
  C   C20       1.0  0.89596  0.58829  0.55591  1.0000
  C   C21       1.0  0.07013000000000003  0.6725  0.4401200000000001  1.0000
  C   C22       1.0  0.17832999999999996  0.82735  0.39055  1.0000
  C   C23       1.0  0.33565999999999996  0.15157  0.61204  1.0000
  C   C24       1.0  0.38952  0.30344  0.5585  1.0000
  O   O1        1.0  0.81171  0.78997  0.9047800000000003  1.0000
  O   O2        1.0  0.71105  0.54782  0.83708  1.0000
  O   O3        1.0  0.99922  0.72122  0.99655  1.0000
  O   O4        1.0  0.26642  0.80913  0.1631  1.0000
  O   O5        1.0  0.17772000000000002  0.96255  0.09428  1.0000
  O   O6        1.0  0.19876999999999995  0.02137  0.90148  1.0000
  O   O7        1.0  0.43851  0.16726  0.83343  1.0000
  O   O8        1.0  0.78996  0.8117  0.09522  1.0000
  O   O9        1.0  0.54781  0.71105  0.16292  1.0000
  O   O10       1.0  0.72121  0.99921  0.00345  1.0000
  O   O11       1.0  0.80913  0.26642  0.8369  1.0000
  O   O12       1.0  0.96255  0.17771  0.90572  1.0000
  O   O13       1.0  0.02135  0.19875  0.09852  1.0000
  O   O14       1.0  0.1672  0.43849  0.16656  1.0000
  O   O15       1.0  0.78996  0.8117  0.40478  1.0000
  O   O16       1.0  0.54781  0.71105  0.33708  1.0000
  O   O17       1.0  0.72121  0.99921  0.49655000000000005  1.0000
  O   O18       1.0  0.80913  0.26642  0.6631  1.0000
  O   O19       1.0  0.96255  0.17771  0.59428  1.0000
  O   O20       1.0  0.02135  0.19875  0.40148  1.0000
  O   O21       1.0  0.1672  0.43849  0.3334400000000001  1.0000
  O   O22       1.0  0.81171  0.78997  0.59522  1.0000
  O   O23       1.0  0.71105  0.54782  0.66292  1.0000
  O   O24       1.0  0.99922  0.72122  0.5034500000000001  1.0000
  O   O25       1.0  0.26642  0.80913  0.3369  1.0000
  O   O26       1.0  0.17772000000000002  0.96255  0.40572  1.0000
  O   O27       1.0  0.19876999999999995  0.02137  0.5985200000000003  1.0000
  O   O28       1.0  0.43851  0.16726  0.6665700000000001  1.0000
  O   O29       1.0  0.26322  0.26321  0.0  1.0000
  O   O30       1.0  0.26322  0.26321  0.5  1.0000
