data_image0
_chemical_formula_structural       Zn8H24C20N32O12
_chemical_formula_sum              "Zn8 H24 C20 N32 O12"
_cell_length_a       9.82373
_cell_length_b       9.77912
_cell_length_c       16.3273
_cell_angle_alpha    90.0
_cell_angle_beta     90.0
_cell_angle_gamma    90.0

_symmetry_space_group_name_H-M    'P 1'
_symmetry_Int_Tables_number       1

loop_
  _symmetry_equiv_pos_as_xyz
  'x,y,z'

loop_
  _atom_site_type_symbol
  _atom_site_label
  _atom_site_symmetry_multiplicity
  _atom_site_fract_x
  _atom_site_fract_y
  _atom_site_fract_z
  _atom_site_occupancy
  Zn  Zn1       1.0  0.93184  0.12323999999999997  0.57758  1.0000
  Zn  Zn2       1.0  0.43183999999999995  0.37676  0.42242  1.0000
  Zn  Zn3       1.0  0.06816  0.8767699999999999  0.07758000000000002  1.0000
  Zn  Zn4       1.0  0.56816  0.6232399999999999  0.92242  1.0000
  Zn  Zn5       1.0  0.06816  0.8767699999999999  0.42242  1.0000
  Zn  Zn6       1.0  0.56816  0.6232399999999999  0.57758  1.0000
  Zn  Zn7       1.0  0.93184  0.12323999999999997  0.92242  1.0000
  Zn  Zn8       1.0  0.43183999999999995  0.37676  0.07758000000000002  1.0000
  H   H1        1.0  0.71144  0.007449999999999998  0.68018  1.0000
  H   H2        1.0  0.58982  0.87769  0.6671  1.0000
  H   H3        1.0  0.8314600000000001  0.65712  0.45311  1.0000
  H   H4        1.0  0.21145  0.49256  0.31982  1.0000
  H   H5        1.0  0.08982  0.62231  0.3329  1.0000
  H   H6        1.0  0.33146  0.84289  0.54689  1.0000
  H   H7        1.0  0.28855  0.9925599999999999  0.18018000000000006  1.0000
  H   H8        1.0  0.41018  0.12231  0.16710000000000005  1.0000
  H   H9        1.0  0.16854  0.34287999999999996  0.9531100000000002  1.0000
  H   H10       1.0  0.78855  0.50745  0.81982  1.0000
  H   H11       1.0  0.91018  0.3776999999999999  0.8329000000000002  1.0000
  H   H12       1.0  0.66854  0.15712  0.04689  1.0000
  H   H13       1.0  0.28855  0.9925599999999999  0.31982  1.0000
  H   H14       1.0  0.41018  0.12231  0.3329  1.0000
  H   H15       1.0  0.16854  0.34287999999999996  0.54689  1.0000
  H   H16       1.0  0.78855  0.50745  0.68018  1.0000
  H   H17       1.0  0.91018  0.3776999999999999  0.6671  1.0000
  H   H18       1.0  0.66854  0.15712  0.45311  1.0000
  H   H19       1.0  0.71144  0.007449999999999998  0.81982  1.0000
  H   H20       1.0  0.58982  0.87769  0.8329000000000002  1.0000
  H   H21       1.0  0.8314600000000001  0.65712  0.04689  1.0000
  H   H22       1.0  0.21145  0.49256  0.18018000000000006  1.0000
  H   H23       1.0  0.08982  0.62231  0.16710000000000005  1.0000
  H   H24       1.0  0.33146  0.84289  0.9531100000000002  1.0000
  C   C1        1.0  0.74123  0.88157  0.58506  1.0000
  C   C2        1.0  0.81955  0.74362  0.49393  1.0000
  C   C3        1.0  0.24125  0.6184399999999999  0.41494  1.0000
  C   C4        1.0  0.31955  0.75638  0.5060700000000002  1.0000
  C   C5        1.0  0.25877  0.11844  0.08506000000000002  1.0000
  C   C6        1.0  0.18045  0.25638  0.99393  1.0000
  C   C7        1.0  0.75875  0.38156  0.91494  1.0000
  C   C8        1.0  0.68045  0.24362999999999996  0.00607  1.0000
  C   C9        1.0  0.25877  0.11844  0.41494  1.0000
  C   C10       1.0  0.18045  0.25638  0.5060700000000002  1.0000
  C   C11       1.0  0.75875  0.38156  0.58506  1.0000
  C   C12       1.0  0.68045  0.24362999999999996  0.49393  1.0000
  C   C13       1.0  0.74123  0.88157  0.91494  1.0000
  C   C14       1.0  0.81955  0.74362  0.00607  1.0000
  C   C15       1.0  0.24125  0.6184399999999999  0.08506000000000002  1.0000
  C   C16       1.0  0.31955  0.75638  0.99393  1.0000
  C   C17       1.0  0.94432  0.1506  0.75  1.0000
  C   C18       1.0  0.44433000000000006  0.3494  0.25  1.0000
  C   C19       1.0  0.05568  0.8493999999999999  0.25  1.0000
  C   C20       1.0  0.55567  0.65061  0.75  1.0000
  N   N1        1.0  0.8558299999999999  0.9384099999999999  0.5547600000000003  1.0000
  N   N2        1.0  0.9051799999999999  0.8482199999999999  0.49591999999999997  1.0000
  N   N3        1.0  0.7159  0.75867  0.54818  1.0000
  N   N4        1.0  0.65953  0.9422999999999999  0.64116  1.0000
  N   N5        1.0  0.35583  0.5615899999999999  0.4452300000000001  1.0000
  N   N6        1.0  0.40518  0.65179  0.5040800000000002  1.0000
  N   N7        1.0  0.21590000000000004  0.7413299999999999  0.45182  1.0000
  N   N8        1.0  0.15953  0.5577  0.35883  1.0000
  N   N9        1.0  0.14417  0.06158999999999999  0.05476  1.0000
  N   N10       1.0  0.09482  0.15179  0.9959200000000001  1.0000
  N   N11       1.0  0.2841  0.24132999999999996  0.04818  1.0000
  N   N12       1.0  0.34047  0.0577  0.14116  1.0000
  N   N13       1.0  0.64417  0.43840999999999997  0.94523  1.0000
  N   N14       1.0  0.59482  0.34821  0.00408  1.0000
  N   N15       1.0  0.7841  0.25867  0.95182  1.0000
  N   N16       1.0  0.84047  0.44229999999999997  0.85883  1.0000
  N   N17       1.0  0.14417  0.06158999999999999  0.4452400000000001  1.0000
  N   N18       1.0  0.09482  0.15179  0.5040800000000002  1.0000
  N   N19       1.0  0.2841  0.24132999999999996  0.45182  1.0000
  N   N20       1.0  0.34047  0.0577  0.35884  1.0000
  N   N21       1.0  0.64417  0.43840999999999997  0.55477  1.0000
  N   N22       1.0  0.59482  0.34821  0.49591999999999997  1.0000
  N   N23       1.0  0.7841  0.25867  0.54818  1.0000
  N   N24       1.0  0.84047  0.44229999999999997  0.6411700000000002  1.0000
  N   N25       1.0  0.8558299999999999  0.9384099999999999  0.94524  1.0000
  N   N26       1.0  0.9051799999999999  0.8482199999999999  0.00408  1.0000
  N   N27       1.0  0.7159  0.75867  0.95182  1.0000
  N   N28       1.0  0.65953  0.9422999999999999  0.85884  1.0000
  N   N29       1.0  0.35583  0.5615899999999999  0.05477  1.0000
  N   N30       1.0  0.40518  0.65179  0.9959200000000001  1.0000
  N   N31       1.0  0.21590000000000004  0.7413299999999999  0.04818  1.0000
  N   N32       1.0  0.15953  0.5577  0.14117  1.0000
  O   O1        1.0  0.00564  0.18763  0.68192  1.0000
  O   O2        1.0  0.50563  0.31237  0.31808  1.0000
  O   O3        1.0  0.99436  0.81237  0.18192  1.0000
  O   O4        1.0  0.4943600000000001  0.68763  0.8180800000000003  1.0000
  O   O5        1.0  0.99436  0.81237  0.31808  1.0000
  O   O6        1.0  0.4943600000000001  0.68763  0.68192  1.0000
  O   O7        1.0  0.00564  0.18763  0.8180800000000003  1.0000
  O   O8        1.0  0.50563  0.31237  0.18192  1.0000
  O   O9        1.0  0.83151  0.08626999999999999  0.75  1.0000
  O   O10       1.0  0.33151  0.41374  0.25  1.0000
  O   O11       1.0  0.16848  0.91373  0.25  1.0000
  O   O12       1.0  0.66849  0.58627  0.75  1.0000
