data_image0
_chemical_formula_structural       Mn2H8C16N12O4
_chemical_formula_sum              "Mn2 H8 C16 N12 O4"
_cell_length_a       7.89257
_cell_length_b       8.65442
_cell_length_c       11.601580000000002
_cell_angle_alpha    76.55432
_cell_angle_beta     69.86662
_cell_angle_gamma    62.951229999999995

_space_group_name_H-M_alt    "P 1"
_space_group_IT_number       1

loop_
  _space_group_symop_operation_xyz
  'x, y, z'

loop_
  _atom_site_type_symbol
  _atom_site_label
  _atom_site_symmetry_multiplicity
  _atom_site_fract_x
  _atom_site_fract_y
  _atom_site_fract_z
  _atom_site_occupancy
  Mn  Mn1       1.0  0.0676999999999999  0.7506500000000003  0.24994  1.0000
  Mn  Mn2       1.0  0.9323099999999999  0.2493500000000001  0.75006  1.0000
  H   H1        1.0  0.48346999999999984  0.78403  0.58684  1.0000
  H   H2        1.0  0.3407899999999998  0.00634  0.56831  1.0000
  H   H3        1.0  0.8569799999999999  0.7122700000000002  0.9136100000000001  1.0000
  H   H4        1.0  0.9207999999999998  0.48994000000000015  0.93081  1.0000
  H   H5        1.0  0.5165299999999998  0.21597  0.41316  1.0000
  H   H6        1.0  0.6592199999999996  0.9936600000000001  0.43169  1.0000
  H   H7        1.0  0.14301999999999998  0.2877300000000001  0.08638  1.0000
  H   H8        1.0  0.07920999999999999  0.51006  0.06919  1.0000
  C   C1        1.0  0.3181099999999999  0.9062300000000002  0.74652  1.0000
  C   C2        1.0  0.37057999999999947  0.7431500000000002  0.8241800000000001  1.0000
  C   C3        1.0  0.26303  0.7389400000000002  0.94761  1.0000
  C   C4        1.0  0.517  0.5861800000000003  0.77873  1.0000
  C   C5        1.0  0.9730299999999995  0.59244  0.753  1.0000
  C   C6        1.0  0.9391199999999998  0.75585  0.67575  1.0000
  C   C7        1.0  0.9501099999999999  0.76113  0.55254  1.0000
  C   C8        1.0  0.88256  0.9125700000000002  0.72147  1.0000
  C   C9        1.0  0.6818999999999998  0.09377  0.25348  1.0000
  C   C10       1.0  0.62943  0.25685  0.17582  1.0000
  C   C11       1.0  0.7369799999999997  0.26106  0.05238000000000001  1.0000
  C   C12       1.0  0.4830099999999998  0.41381  0.22126000000000004  1.0000
  C   C13       1.0  0.026979999999999938  0.4075500000000001  0.24700000000000003  1.0000
  C   C14       1.0  0.060890000000000014  0.24413999999999997  0.32425  1.0000
  C   C15       1.0  0.04989999999999996  0.23886000000000007  0.44746  1.0000
  C   C16       1.0  0.11743999999999996  0.08743  0.27853  1.0000
  N   N1        1.0  0.4091299999999996  0.9012200000000001  0.62289  1.0000
  N   N2        1.0  0.17209999999999995  0.72781  0.05118000000000001  1.0000
  N   N3        1.0  0.64199  0.45461  0.73958  1.0000
  N   N4        1.0  0.93713  0.59605  0.87645  1.0000
  N   N5        1.0  0.9508699999999995  0.77409  0.4492300000000001  1.0000
  N   N6        1.0  0.8361299999999999  0.04402999999999997  0.7609800000000001  1.0000
  N   N7        1.0  0.5908699999999998  0.09877000000000004  0.37711  1.0000
  N   N8        1.0  0.8278999999999997  0.2721800000000001  0.94882  1.0000
  N   N9        1.0  0.3580200000000001  0.5453899999999999  0.26041  1.0000
  N   N10       1.0  0.06286999999999998  0.40395  0.12355  1.0000
  N   N11       1.0  0.049139999999999975  0.2259100000000001  0.55077  1.0000
  N   N12       1.0  0.1638799999999999  0.9559600000000003  0.23902000000000004  1.0000
  O   O1        1.0  0.19407999999999995  0.04754999999999998  0.7926300000000001  1.0000
  O   O2        1.0  0.035889999999999984  0.45137  0.70681  1.0000
  O   O3        1.0  0.8059299999999997  0.9524400000000002  0.20737  1.0000
  O   O4        1.0  0.9641199999999995  0.5486200000000002  0.29319  1.0000
