data_image0
_chemical_formula_structural       Y2H16C32O16
_chemical_formula_sum              "Y2 H16 C32 O16"
_cell_length_a       8.73464
_cell_length_b       10.37304
_cell_length_c       14.659889999999999
_cell_angle_alpha    102.40678000000001
_cell_angle_beta     106.02185
_cell_angle_gamma    98.28059

_symmetry_space_group_name_H-M    'P 1'
_symmetry_Int_Tables_number       1

loop_
  _symmetry_equiv_pos_as_xyz
  'x,y,z'

loop_
  _atom_site_type_symbol
  _atom_site_label
  _atom_site_symmetry_multiplicity
  _atom_site_fract_x
  _atom_site_fract_y
  _atom_site_fract_z
  _atom_site_occupancy
  Y   Y1        1.0  0.6915300000000001  0.67985  0.17907000000000006  1.0000
  Y   Y2        1.0  0.30845999999999996  0.32015  0.82093  1.0000
  H   H1        1.0  0.37369  0.93838  0.12832  1.0000
  H   H2        1.0  0.35105999999999987  0.09775  0.022010000000000002  1.0000
  H   H3        1.0  0.80582  0.35691  0.21812000000000006  1.0000
  H   H4        1.0  0.83162  0.19496000000000002  0.32376  1.0000
  H   H5        1.0  0.009739999999999966  0.7558299999999998  0.96262  1.0000
  H   H6        1.0  0.90677  0.09798999999999998  0.14017  1.0000
  H   H7        1.0  0.15805000000000005  0.60675  0.4073700000000001  1.0000
  H   H8        1.0  0.6993799999999999  0.48319999999999996  0.45224000000000003  1.0000
  H   H9        1.0  0.6263  0.061620000000000036  0.87167  1.0000
  H   H10       1.0  0.6489300000000001  0.90225  0.9779900000000001  1.0000
  H   H11       1.0  0.19418000000000002  0.64308  0.7818700000000001  1.0000
  H   H12       1.0  0.16837  0.80504  0.67623  1.0000
  H   H13       1.0  0.9902599999999999  0.24417000000000003  0.03738  1.0000
  H   H14       1.0  0.09322000000000005  0.90201  0.85983  1.0000
  H   H15       1.0  0.8419399999999997  0.39325  0.59262  1.0000
  H   H16       1.0  0.3006099999999999  0.5168  0.54776  1.0000
  C   C1        1.0  0.6038099999999998  0.0576  0.23202  1.0000
  C   C2        1.0  0.46643  0.03041999999999999  0.14748  1.0000
  C   C3        1.0  0.45423999999999987  0.11901999999999999  0.08854  1.0000
  C   C4        1.0  0.5757  0.23804000000000003  0.11478  1.0000
  C   C5        1.0  0.7122999999999999  0.26561  0.19974  1.0000
  C   C6        1.0  0.7268300000000001  0.17602  0.25807  1.0000
  C   C7        1.0  0.6203899999999998  0.9608700000000001  0.29389  1.0000
  C   C8        1.0  0.55732  0.33656  0.05364  1.0000
  C   C9        1.0  0.9556599999999998  0.91965  0.057630000000000015  1.0000
  C   C10       1.0  0.006910000000000034  0.8627299999999999  0.97818  1.0000
  C   C11       1.0  0.9491699999999998  0.05694  0.07925  1.0000
  C   C12       1.0  0.89437  0.832  0.11385000000000002  1.0000
  C   C13       1.0  0.92125  0.54918  0.4224700000000001  1.0000
  C   C14       1.0  0.09081999999999998  0.55955  0.44838  1.0000
  C   C15       1.0  0.8305100000000001  0.48984000000000005  0.47418000000000005  1.0000
  C   C16       1.0  0.83675  0.59788  0.33779  1.0000
  C   C17       1.0  0.3961799999999999  0.9423899999999998  0.76798  1.0000
  C   C18       1.0  0.5335599999999999  0.9695699999999999  0.85251  1.0000
  C   C19       1.0  0.54576  0.88098  0.9114500000000001  1.0000
  C   C20       1.0  0.42429  0.7619600000000001  0.88522  1.0000
  C   C21       1.0  0.2877  0.73438  0.80026  1.0000
  C   C22       1.0  0.27316999999999997  0.8239799999999999  0.74193  1.0000
  C   C23       1.0  0.3796  0.03912999999999999  0.7061  1.0000
  C   C24       1.0  0.44267  0.66344  0.94636  1.0000
  C   C25       1.0  0.044330000000000036  0.08035  0.94236  1.0000
  C   C26       1.0  0.9930899999999999  0.13727  0.02181  1.0000
  C   C27       1.0  0.050820000000000115  0.94306  0.9207500000000002  1.0000
  C   C28       1.0  0.10562000000000005  0.16800000000000004  0.8861500000000001  1.0000
  C   C29       1.0  0.07874999999999992  0.45081999999999994  0.57753  1.0000
  C   C30       1.0  0.90918  0.44045  0.55162  1.0000
  C   C31       1.0  0.16948  0.51016  0.52582  1.0000
  C   C32       1.0  0.16325000000000003  0.4021199999999999  0.66221  1.0000
  O   O1        1.0  0.57136  0.8329099999999999  0.25056  1.0000
  O   O2        1.0  0.6793  0.0065  0.38521  1.0000
  O   O3        1.0  0.61718  0.46085999999999994  0.09734000000000001  1.0000
  O   O4        1.0  0.48396000000000006  0.29112000000000005  0.9618000000000001  1.0000
  O   O5        1.0  0.8546100000000001  0.88619  0.18902000000000002  1.0000
  O   O6        1.0  0.8704299999999998  0.7032999999999998  0.08363  1.0000
  O   O7        1.0  0.9195  0.643  0.28655  1.0000
  O   O8        1.0  0.68275  0.59162  0.31429  1.0000
  O   O9        1.0  0.4286400000000001  0.16709000000000004  0.7494400000000001  1.0000
  O   O10       1.0  0.32069  0.9934999999999999  0.61479  1.0000
  O   O11       1.0  0.38281000000000004  0.53914  0.9026600000000001  1.0000
  O   O12       1.0  0.51603  0.70888  0.0382  1.0000
  O   O13       1.0  0.14538000000000004  0.11381  0.81098  1.0000
  O   O14       1.0  0.12957  0.2967  0.91637  1.0000
  O   O15       1.0  0.08050000000000004  0.357  0.7134400000000001  1.0000
  O   O16       1.0  0.31724999999999987  0.4083800000000001  0.68571  1.0000
