data_image0
_chemical_formula_structural       Cu4H8C24S4O16
_chemical_formula_sum              "Cu4 H8 C24 S4 O16"
_cell_length_a       6.31949
_cell_length_b       11.7334
_cell_length_c       16.00096
_cell_angle_alpha    89.84317999999999
_cell_angle_beta     89.72122999999999
_cell_angle_gamma    98.89672

_space_group_name_H-M_alt    "P 1"
_space_group_IT_number       1

loop_
  _space_group_symop_operation_xyz
  'x, y, z'

loop_
  _atom_site_type_symbol
  _atom_site_label
  _atom_site_symmetry_multiplicity
  _atom_site_fract_x
  _atom_site_fract_y
  _atom_site_fract_z
  _atom_site_occupancy
  Cu  Cu1       1.0  4.000000000000001e-05  9.999999999999913e-06  0.5  1.0000
  Cu  Cu2       1.0  0.5  0.5  0.0  1.0000
  Cu  Cu3       1.0  0.9999900000000002  0.5  0.0  1.0000
  Cu  Cu4       1.0  0.50003  0.99999  0.5  1.0000
  H   H1        1.0  0.44617  0.08324  0.31868  1.0000
  H   H2        1.0  0.36493  0.20168000000000003  0.18362000000000006  1.0000
  H   H3        1.0  0.05291  0.41274  0.81919  1.0000
  H   H4        1.0  0.13124999999999995  0.29641  0.68275  1.0000
  H   H5        1.0  0.5538800000000001  0.9167600000000001  0.68132  1.0000
  H   H6        1.0  0.63508  0.79833  0.8164  1.0000
  H   H7        1.0  0.9471  0.58727  0.18081  1.0000
  H   H8        1.0  0.86877  0.7036000000000001  0.31724  1.0000
  C   C1        1.0  0.87422  0.13914  0.38847  1.0000
  C   C2        1.0  0.76061  0.18944  0.32168  1.0000
  C   C3        1.0  0.55528  0.15373  0.29095  1.0000
  C   C4        1.0  0.51153  0.21674000000000002  0.2196  1.0000
  C   C5        1.0  0.68464  0.29974  0.19739  1.0000
  C   C6        1.0  0.696  0.37793000000000004  0.12488000000000003  1.0000
  C   C7        1.0  0.62531  0.36043  0.88941  1.0000
  C   C8        1.0  0.73675  0.30894  0.8224700000000003  1.0000
  C   C9        1.0  0.94253  0.34366  0.79115  1.0000
  C   C10       1.0  0.98408  0.28192  0.71897  1.0000
  C   C11       1.0  0.8087000000000001  0.20113000000000003  0.6966  1.0000
  C   C12       1.0  0.7954299999999999  0.12436000000000001  0.6236  1.0000
  C   C13       1.0  0.12582  0.86087  0.61152  1.0000
  C   C14       1.0  0.23943  0.81057  0.6783200000000003  1.0000
  C   C15       1.0  0.44476  0.84628  0.70905  1.0000
  C   C16       1.0  0.48849  0.78327  0.7804000000000002  1.0000
  C   C17       1.0  0.31538  0.70027  0.8026100000000003  1.0000
  C   C18       1.0  0.3039999999999999  0.62208  0.87512  1.0000
  C   C19       1.0  0.37468  0.63958  0.11058000000000003  1.0000
  C   C20       1.0  0.26325  0.69107  0.17752  1.0000
  C   C21       1.0  0.05748000000000001  0.65635  0.20885  1.0000
  C   C22       1.0  0.015929999999999993  0.71809  0.28103  1.0000
  C   C23       1.0  0.19132  0.79888  0.3034  1.0000
  C   C24       1.0  0.20461000000000001  0.8756500000000002  0.3764  1.0000
  S   S1        1.0  0.9008999999999999  0.301  0.26305  1.0000
  S   S2        1.0  0.59285  0.20027  0.7632300000000002  1.0000
  S   S3        1.0  0.09912999999999998  0.69901  0.73695  1.0000
  S   S4        1.0  0.40717000000000003  0.7997300000000002  0.23677  1.0000
  O   O1        1.0  0.76436  0.05686  0.43634  1.0000
  O   O2        1.0  0.07054000000000002  0.16611  0.3994  1.0000
  O   O3        1.0  0.51941  0.38889000000000007  0.09044  1.0000
  O   O4        1.0  0.88439  0.42865  0.10404  1.0000
  O   O5        1.0  0.73752  0.44053  0.93748  1.0000
  O   O6        1.0  0.4279100000000001  0.3368  0.89996  1.0000
  O   O7        1.0  0.97214  0.10836  0.59103  1.0000
  O   O8        1.0  0.60545  0.08001  0.60075  1.0000
  O   O9        1.0  0.23569  0.94315  0.56366  1.0000
  O   O10       1.0  0.9295  0.8339100000000002  0.6006  1.0000
  O   O11       1.0  0.48059  0.61111  0.9095600000000003  1.0000
  O   O12       1.0  0.11561000000000003  0.57136  0.8959600000000002  1.0000
  O   O13       1.0  0.26246999999999987  0.55948  0.06252  1.0000
  O   O14       1.0  0.57209  0.66321  0.10003000000000002  1.0000
  O   O15       1.0  0.0279  0.89165  0.40897  1.0000
  O   O16       1.0  0.39458  0.92  0.3992500000000001  1.0000
