data_image0
_chemical_formula_structural       Mn6P4H6C12O40
_chemical_formula_sum              "Mn6 P4 H6 C12 O40"
_cell_length_a       7.81104
_cell_length_b       9.870839999999998
_cell_length_c       16.05852
_cell_angle_alpha    94.11907999999998
_cell_angle_beta     94.87711
_cell_angle_gamma    92.59581000000001

_symmetry_space_group_name_H-M    'P 1'
_symmetry_Int_Tables_number       1

loop_
  _symmetry_equiv_pos_as_xyz
  'x,y,z'

loop_
  _atom_site_type_symbol
  _atom_site_label
  _atom_site_symmetry_multiplicity
  _atom_site_fract_x
  _atom_site_fract_y
  _atom_site_fract_z
  _atom_site_occupancy
  Mn  Mn1       1.0  0.38911  0.5629999999999998  0.14781  1.0000
  Mn  Mn2       1.0  0.26271  0.06336  0.28201  1.0000
  Mn  Mn3       1.0  0.5574599999999997  0.25207999999999997  0.4322  1.0000
  Mn  Mn4       1.0  0.61173  0.43707999999999997  0.85223  1.0000
  Mn  Mn5       1.0  0.73742  0.9364499999999999  0.71815  1.0000
  Mn  Mn6       1.0  0.44291999999999987  0.7471899999999998  0.56792  1.0000
  P   P1        1.0  0.74124  0.41049  0.06492  1.0000
  P   P2        1.0  0.8629299999999995  0.1555  0.30702  1.0000
  P   P3        1.0  0.26103  0.59165  0.9352  1.0000
  P   P4        1.0  0.13745  0.8434799999999999  0.69329  1.0000
  H   H1        1.0  0.020989999999999998  0.44439  0.0914  1.0000
  H   H2        1.0  0.8148599999999998  0.27396  0.16346  1.0000
  H   H3        1.0  0.67725  0.0008800000000000013  0.23883  1.0000
  H   H4        1.0  0.98229  0.5538899999999998  0.90845  1.0000
  H   H5        1.0  0.18463999999999997  0.7273699999999999  0.83689  1.0000
  H   H6        1.0  0.3234499999999999  0.9981299999999999  0.76081  1.0000
  C   C1        1.0  0.42614999999999986  0.83318  0.21172000000000005  1.0000
  C   C2        1.0  0.24296999999999996  0.7858499999999998  0.22744  1.0000
  C   C3        1.0  0.26254  0.29476  0.17773  1.0000
  C   C4        1.0  0.38837  0.33889  0.25494  1.0000
  C   C5        1.0  0.41021  0.4747799999999999  0.50934  1.0000
  C   C6        1.0  0.56056  0.025720000000000007  0.53898  1.0000
  C   C7        1.0  0.57387  0.16713  0.78837  1.0000
  C   C8        1.0  0.75708  0.21433  0.77262  1.0000
  C   C9        1.0  0.73748  0.70489  0.82222  1.0000
  C   C10       1.0  0.61156  0.66074  0.74502  1.0000
  C   C11       1.0  0.59034  0.52461  0.49048  1.0000
  C   C12       1.0  0.43928999999999996  0.9737799999999999  0.4611200000000001  1.0000
  O   O1        1.0  0.60099  0.49346  0.10087  1.0000
  O   O2        1.0  0.70046  0.37972  0.97063  1.0000
  O   O3        1.0  0.91654  0.49806  0.08737  1.0000
  O   O4        1.0  0.75798  0.26898  0.1038  1.0000
  O   O5        1.0  0.74937  0.16654999999999998  0.37916  1.0000
  O   O6        1.0  0.05365999999999999  0.14004  0.3371  1.0000
  O   O7        1.0  0.8745299999999998  0.28868  0.26062  1.0000
  O   O8        1.0  0.80223  0.03232999999999999  0.24188  1.0000
  O   O9        1.0  0.5186899999999998  0.74618  0.17923  1.0000
  O   O10       1.0  0.47151999999999994  0.9574899999999997  0.23362  1.0000
  O   O11       1.0  0.20066999999999996  0.66162  0.20803  1.0000
  O   O12       1.0  0.1493899999999999  0.8744299999999998  0.25869  1.0000
  O   O13       1.0  0.23365  0.3871099999999999  0.12662  1.0000
  O   O14       1.0  0.19745  0.17553999999999997  0.17124  1.0000
  O   O15       1.0  0.4595  0.45509  0.26247  1.0000
  O   O16       1.0  0.40865  0.24703999999999998  0.30781  1.0000
  O   O17       1.0  0.36616  0.35153999999999996  0.48721  1.0000
  O   O18       1.0  0.3193299999999999  0.56088  0.54527  1.0000
  O   O19       1.0  0.6173999999999997  0.14676  0.54591  1.0000
  O   O20       1.0  0.59252  0.9354699999999999  0.59132  1.0000
  O   O21       1.0  0.4034  0.51193  0.8988800000000002  1.0000
  O   O22       1.0  0.3000899999999999  0.62084  0.02963  1.0000
  O   O23       1.0  0.08774999999999998  0.50168  0.91229  1.0000
  O   O24       1.0  0.24162  0.73307  0.89663  1.0000
  O   O25       1.0  0.25101  0.83334  0.62107  1.0000
  O   O26       1.0  0.94689  0.8595399999999999  0.66303  1.0000
  O   O27       1.0  0.12511  0.7109  0.74033  1.0000
  O   O28       1.0  0.19846  0.9669499999999998  0.75821  1.0000
  O   O29       1.0  0.4815099999999999  0.25432  0.8209  1.0000
  O   O30       1.0  0.52838  0.04289999999999998  0.76649  1.0000
  O   O31       1.0  0.7993199999999999  0.33866999999999997  0.79201  1.0000
  O   O32       1.0  0.85063  0.12585  0.74137  1.0000
  O   O33       1.0  0.7668999999999999  0.6124299999999998  0.87315  1.0000
  O   O34       1.0  0.80225  0.8242099999999999  0.82887  1.0000
  O   O35       1.0  0.54066  0.5444699999999998  0.73744  1.0000
  O   O36       1.0  0.5912199999999997  0.7526399999999998  0.6921900000000002  1.0000
  O   O37       1.0  0.6339999999999998  0.64792  0.5127  1.0000
  O   O38       1.0  0.68142  0.43872999999999995  0.4545800000000001  1.0000
  O   O39       1.0  0.38247  0.85276  0.45417  1.0000
  O   O40       1.0  0.40747999999999995  0.06395999999999999  0.40873  1.0000
