data_image0
_chemical_formula_structural       Cd8H12C36Cl4O24
_chemical_formula_sum              "Cd8 H12 C36 Cl4 O24"
_cell_length_a       13.71921
_cell_length_b       15.41336
_cell_length_c       16.03763
_cell_angle_alpha    90.0498
_cell_angle_beta     89.97368
_cell_angle_gamma    89.77280000000002

_symmetry_space_group_name_H-M    'P 1'
_symmetry_Int_Tables_number       1

loop_
  _symmetry_equiv_pos_as_xyz
  'x,y,z'

loop_
  _atom_site_type_symbol
  _atom_site_label
  _atom_site_symmetry_multiplicity
  _atom_site_fract_x
  _atom_site_fract_y
  _atom_site_fract_z
  _atom_site_occupancy
  Cd  Cd1       1.0  0.24386000000000005  0.72069  0.27176  1.0000
  Cd  Cd2       1.0  0.38843  0.6073699999999999  0.38184  1.0000
  Cd  Cd3       1.0  0.25885  0.28118  0.77184  1.0000
  Cd  Cd4       1.0  0.11226  0.39327  0.8818800000000002  1.0000
  Cd  Cd5       1.0  0.75921  0.22024  0.22783000000000006  1.0000
  Cd  Cd6       1.0  0.6126500000000001  0.1067  0.11959  1.0000
  Cd  Cd7       1.0  0.74189  0.78171  0.72864  1.0000
  Cd  Cd8       1.0  0.88764  0.89459  0.61884  1.0000
  H   H1        1.0  0.04348  0.69142  0.48247  1.0000
  H   H2        1.0  0.9560700000000001  0.56139  0.70795  1.0000
  H   H3        1.0  0.20101  0.46563  0.5666200000000002  1.0000
  H   H4        1.0  0.45837  0.3092  0.98184  1.0000
  H   H5        1.0  0.54249  0.43957  0.20801  1.0000
  H   H6        1.0  0.30088  0.53631  0.06338  1.0000
  H   H7        1.0  0.9564300000000001  0.19209  0.0164  1.0000
  H   H8        1.0  0.04221  0.06035  0.79107  1.0000
  H   H9        1.0  0.80053  0.96519  0.9359  1.0000
  H   H10       1.0  0.54507  0.81132  0.51739  1.0000
  H   H11       1.0  0.45711  0.9417999999999999  0.29213  1.0000
  H   H12       1.0  0.70069  0.03734  0.43414  1.0000
  C   C1        1.0  0.20117  0.59134  0.44787  1.0000
  C   C2        1.0  0.9207  0.7047  0.61514  1.0000
  C   C3        1.0  0.10027  0.44071  0.71018  1.0000
  C   C4        1.0  0.12678  0.57742  0.51488  1.0000
  C   C5        1.0  0.05156  0.63797  0.52614  1.0000
  C   C6        1.0  0.9901600000000003  0.63225  0.59591  1.0000
  C   C7        1.0  0.00254  0.56467  0.65317  1.0000
  C   C8        1.0  0.07811  0.50416  0.64218  1.0000
  C   C9        1.0  0.14017  0.51053  0.57315  1.0000
  C   C10       1.0  0.30173  0.40915  0.94579  1.0000
  C   C11       1.0  0.57927  0.2961  0.115  1.0000
  C   C12       1.0  0.3994  0.56129  0.2081  1.0000
  C   C13       1.0  0.37502  0.42360999999999993  0.01321  1.0000
  C   C14       1.0  0.44979  0.36288  0.02522  1.0000
  C   C15       1.0  0.51024  0.36872999999999995  0.09547  1.0000
  C   C16       1.0  0.4970800000000001  0.4364  0.15257  1.0000
  C   C17       1.0  0.42209  0.4973  0.14054  1.0000
  C   C18       1.0  0.3611500000000001  0.4909899999999999  0.07085  1.0000
  C   C19       1.0  0.80198  0.09229  0.05399  1.0000
  C   C20       1.0  0.07783  0.20476  0.8843  1.0000
  C   C21       1.0  0.89866  0.94078  0.79061  1.0000
  C   C22       1.0  0.87444  0.07756  0.98581  1.0000
  C   C23       1.0  0.94864  0.13813  0.97336  1.0000
  C   C24       1.0  0.00938  0.13201  0.90328  1.0000
  C   C25       1.0  0.99675  0.06413  0.84645  1.0000
  C   C26       1.0  0.9215  0.00398  0.8584  1.0000
  C   C27       1.0  0.8605400000000002  0.01034  0.92815  1.0000
  C   C28       1.0  0.69962  0.91256  0.55362  1.0000
  C   C29       1.0  0.42405  0.7972  0.3844500000000001  1.0000
  C   C30       1.0  0.6004400000000001  0.06171  0.28972  1.0000
  C   C31       1.0  0.62655  0.92604  0.48568  1.0000
  C   C32       1.0  0.55259  0.86499  0.47393  1.0000
  C   C33       1.0  0.4918200000000001  0.87042  0.40386  1.0000
  C   C34       1.0  0.50339  0.93838  0.34696  1.0000
  C   C35       1.0  0.57844  0.99894  0.3581  1.0000
  C   C36       1.0  0.64014  0.99263  0.42728  1.0000
  Cl  Cl1       1.0  0.11368  0.78311  0.19857000000000005  1.0000
  Cl  Cl2       1.0  0.38614  0.21733  0.69588  1.0000
  Cl  Cl3       1.0  0.8862000000000002  0.28222  0.30491  1.0000
  Cl  Cl4       1.0  0.61451  0.71732  0.80346  1.0000
  O   O1        1.0  0.27652  0.5409  0.45027  1.0000
  O   O2        1.0  0.19026  0.65336  0.39644  1.0000
  O   O3        1.0  0.9252800000000002  0.77057  0.56608  1.0000
  O   O4        1.0  0.86651  0.6983  0.67921  1.0000
  O   O5        1.0  0.04134  0.44212  0.7730400000000002  1.0000
  O   O6        1.0  0.17634  0.39388  0.70456  1.0000
  O   O7        1.0  0.22674  0.45998  0.94655  1.0000
  O   O8        1.0  0.3137700000000001  0.34601  0.89582  1.0000
  O   O9        1.0  0.57448  0.23003  0.06605  1.0000
  O   O10       1.0  0.63327  0.30259  0.17913000000000007  1.0000
  O   O11       1.0  0.45689  0.55832  0.27182  1.0000
  O   O12       1.0  0.32487000000000005  0.60985  0.20108  1.0000
  O   O13       1.0  0.72759  0.04115  0.05401  1.0000
  O   O14       1.0  0.81413  0.15548  0.10374  1.0000
  O   O15       1.0  0.07121  0.27052  0.93362  1.0000
  O   O16       1.0  0.13306  0.19915  0.82083  1.0000
  O   O17       1.0  0.95877  0.93994  0.72854  1.0000
  O   O18       1.0  0.8211800000000001  0.89627  0.79533  1.0000
  O   O19       1.0  0.7762200000000002  0.96097  0.54991  1.0000
  O   O20       1.0  0.6859800000000001  0.85295  0.60697  1.0000
  O   O21       1.0  0.4331000000000001  0.73043  0.43209  1.0000
  O   O22       1.0  0.36727  0.80413  0.32211  1.0000
  O   O23       1.0  0.53815  0.06401  0.22923  1.0000
  O   O24       1.0  0.6797400000000002  0.10392  0.29183  1.0000
