data_image0
_chemical_formula_structural       Tb2H4C14N4O12
_chemical_formula_sum              "Tb2 H4 C14 N4 O12"
_cell_length_a       4.18919
_cell_length_b       9.538719999999998
_cell_length_c       13.93991
_cell_angle_alpha    77.71371
_cell_angle_beta     63.12758
_cell_angle_gamma    64.98551

_symmetry_space_group_name_H-M    'P 1'
_symmetry_Int_Tables_number       1

loop_
  _symmetry_equiv_pos_as_xyz
  'x,y,z'

loop_
  _atom_site_type_symbol
  _atom_site_label
  _atom_site_symmetry_multiplicity
  _atom_site_fract_x
  _atom_site_fract_y
  _atom_site_fract_z
  _atom_site_occupancy
  Tb  Tb1       1.0  0.7594599999999999  0.6559300000000001  0.20870000000000002  1.0000
  Tb  Tb2       1.0  0.21880999999999964  0.34589  0.7974400000000001  1.0000
  H   H1        1.0  0.21078  0.15426  0.05887  1.0000
  H   H2        1.0  0.9881600000000003  0.28841  0.5477  1.0000
  H   H3        1.0  0.77225  0.84526  0.94689  1.0000
  H   H4        1.0  0.9917099999999998  0.7126700000000002  0.45857  1.0000
  C   C1        1.0  0.07239000000000007  0.9187499999999998  0.19980000000000003  1.0000
  C   C2        1.0  0.016620000000000024  0.9638500000000001  0.09785000000000002  1.0000
  C   C3        1.0  0.13873999999999997  0.07975000000000002  0.029670000000000002  1.0000
  C   C4        1.0  0.27124  0.42078  0.35011  1.0000
  C   C5        1.0  0.8565699999999999  0.45845  0.42719  1.0000
  C   C6        1.0  0.76145  0.38196  0.52819  1.0000
  C   C7        1.0  0.17449999999999993  0.4458000000000001  0.00823  1.0000
  C   C8        1.0  0.9061000000000001  0.08295000000000004  0.80645  1.0000
  C   C9        1.0  0.96215  0.03695  0.90835  1.0000
  C   C10       1.0  0.8415  0.92057  0.97631  1.0000
  C   C11       1.0  0.7089099999999997  0.58013  0.6563  1.0000
  C   C12       1.0  0.1231  0.54241  0.57907  1.0000
  C   C13       1.0  0.21816000000000005  0.61892  0.4781000000000001  1.0000
  C   C14       1.0  0.8002299999999997  0.5545000000000001  0.99919  1.0000
  N   N1        1.0  0.8864299999999998  0.88038  0.06989  1.0000
  N   N2        1.0  0.5802100000000001  0.57706  0.40323  1.0000
  N   N3        1.0  0.09223000000000015  0.12042000000000004  0.93633  1.0000
  N   N4        1.0  0.3994599999999997  0.42391  0.60308  1.0000
  O   O1        1.0  0.9707699999999998  0.8064400000000002  0.25681  1.0000
  O   O2        1.0  0.25322999999999996  0.9769300000000001  0.2194  1.0000
  O   O3        1.0  0.3172699999999999  0.51396  0.26479  1.0000
  O   O4        1.0  0.5286199999999998  0.3206700000000001  0.37497  1.0000
  O   O5        1.0  0.22429  0.45966  0.08802  1.0000
  O   O6        1.0  0.4059699999999999  0.34708  0.93498  1.0000
  O   O7        1.0  0.010400000000000091  0.19463  0.74954  1.0000
  O   O8        1.0  0.7229699999999997  0.02632  0.78655  1.0000
  O   O9        1.0  0.6632599999999994  0.48681  0.74159  1.0000
  O   O10       1.0  0.451  0.68039  0.63176  1.0000
  O   O11       1.0  0.7505199999999999  0.54046  0.91939  1.0000
  O   O12       1.0  0.56868  0.6532  0.07244  1.0000
