data_image0
_chemical_formula_structural       Mn2Ag4H16C28N12
_chemical_formula_sum              "Mn2 Ag4 H16 C28 N12"
_cell_length_a       10.27427
_cell_length_b       10.28414
_cell_length_c       12.403700000000002
_cell_angle_alpha    90.04345999999998
_cell_angle_beta     89.95657
_cell_angle_gamma    109.91034

_space_group_name_H-M_alt    "P 1"
_space_group_IT_number       1

loop_
  _space_group_symop_operation_xyz
  'x, y, z'

loop_
  _atom_site_type_symbol
  _atom_site_label
  _atom_site_symmetry_multiplicity
  _atom_site_fract_x
  _atom_site_fract_y
  _atom_site_fract_z
  _atom_site_occupancy
  Mn  Mn1       1.0  0.5  0.5  0.0  1.0000
  Mn  Mn2       1.0  0.0  0.0  0.5  1.0000
  Ag  Ag1       1.0  0.25159  0.7484  0.24098  1.0000
  Ag  Ag2       1.0  0.26016  0.73983  0.74558  1.0000
  Ag  Ag3       1.0  0.73984  0.26017  0.25442  1.0000
  Ag  Ag4       1.0  0.74841  0.2516  0.75902  1.0000
  H   H1        1.0  0.69888  0.71467  0.16568  1.0000
  H   H2        1.0  0.9090500000000001  0.92423  0.17458  1.0000
  H   H3        1.0  0.8016600000000002  0.78613  0.66574  1.0000
  H   H4        1.0  0.5920600000000001  0.57664  0.67448  1.0000
  H   H5        1.0  0.7860900000000001  0.80166  0.33425999999999995  1.0000
  H   H6        1.0  0.57662  0.5920399999999999  0.32552  1.0000
  H   H7        1.0  0.7147200000000001  0.69888  0.8343199999999998  1.0000
  H   H8        1.0  0.9242500000000002  0.9090799999999999  0.82542  1.0000
  H   H9        1.0  0.30112  0.28533  0.83431  1.0000
  H   H10       1.0  0.09095  0.07577  0.82541  1.0000
  H   H11       1.0  0.19834  0.21387  0.33425  1.0000
  H   H12       1.0  0.4079400000000001  0.42336999999999997  0.32552  1.0000
  H   H13       1.0  0.21391000000000002  0.19834  0.66574  1.0000
  H   H14       1.0  0.42338  0.40796  0.67448  1.0000
  H   H15       1.0  0.28528000000000003  0.30112  0.16567  1.0000
  H   H16       1.0  0.07575  0.09093  0.17458  1.0000
  C   C1        1.0  0.75307  0.76166  0.09253  1.0000
  C   C2        1.0  0.87076  0.87929  0.0965  1.0000
  C   C3        1.0  0.7477700000000002  0.7392699999999999  0.59247  1.0000
  C   C4        1.0  0.62998  0.62142  0.59629  1.0000
  C   C5        1.0  0.7392300000000002  0.74779  0.40753  1.0000
  C   C6        1.0  0.6214000000000001  0.62998  0.4037099999999999  1.0000
  C   C7        1.0  0.76171  0.75305  0.9074699999999998  1.0000
  C   C8        1.0  0.87931  0.87076  0.9035  1.0000
  C   C9        1.0  0.24693000000000004  0.23833999999999997  0.9074599999999999  1.0000
  C   C10       1.0  0.12925000000000003  0.12070999999999998  0.9034899999999998  1.0000
  C   C11       1.0  0.25223  0.26073  0.40752  1.0000
  C   C12       1.0  0.37002  0.37858  0.4037099999999999  1.0000
  C   C13       1.0  0.26077  0.25221  0.59246  1.0000
  C   C14       1.0  0.37859999999999994  0.37002  0.59629  1.0000
  C   C15       1.0  0.23830000000000004  0.24695  0.09253  1.0000
  C   C16       1.0  0.12069000000000002  0.12923999999999997  0.0965  1.0000
  C   C17       1.0  0.35723  0.6427  0.16057999999999997  1.0000
  C   C18       1.0  0.14553999999999995  0.8544999999999999  0.32027  1.0000
  C   C19       1.0  0.15367999999999993  0.8463599999999999  0.66767  1.0000
  C   C20       1.0  0.3646100000000001  0.63534  0.82853  1.0000
  C   C21       1.0  0.8463200000000001  0.15364  0.33232  1.0000
  C   C22       1.0  0.63539  0.36467  0.17145999999999997  1.0000
  C   C23       1.0  0.64277  0.3573  0.83942  1.0000
  C   C24       1.0  0.85446  0.14551  0.6797299999999997  1.0000
  C   C25       1.0  0.9373000000000001  0.9372899999999998  0.0  1.0000
  C   C26       1.0  0.5629200000000001  0.56293  0.5  1.0000
  C   C27       1.0  0.0627  0.06271  0.0  1.0000
  C   C28       1.0  0.43708  0.43707  0.5  1.0000
  N   N1        1.0  0.41438999999999987  0.5854999999999999  0.10603  1.0000
  N   N2        1.0  0.08602999999999993  0.9140599999999999  0.3696299999999999  1.0000
  N   N3        1.0  0.09317000000000007  0.90694  0.6208  1.0000
  N   N4        1.0  0.41957  0.58034  0.8869499999999998  1.0000
  N   N5        1.0  0.90683  0.09306  0.3792  1.0000
  N   N6        1.0  0.58043  0.41967  0.11304999999999998  1.0000
  N   N7        1.0  0.5856099999999999  0.41450999999999993  0.89397  1.0000
  N   N8        1.0  0.91397  0.08594  0.63036  1.0000
  N   N9        1.0  0.69855  0.69851  0.0  1.0000
  N   N10       1.0  0.80291  0.8029399999999998  0.5  1.0000
  N   N11       1.0  0.30145  0.30149  0.0  1.0000
  N   N12       1.0  0.19709  0.19706  0.49998999999999993  1.0000
