data_image0
_chemical_formula_structural       Sr3H14C36O16
_chemical_formula_sum              "Sr3 H14 C36 O16"
_cell_length_a       9.98724
_cell_length_b       10.54172
_cell_length_c       11.26559
_cell_angle_alpha    96.66186
_cell_angle_beta     124.68409
_cell_angle_gamma    102.44625

_symmetry_space_group_name_H-M    'P 1'
_symmetry_Int_Tables_number       1

loop_
  _symmetry_equiv_pos_as_xyz
  'x,y,z'

loop_
  _atom_site_type_symbol
  _atom_site_label
  _atom_site_symmetry_multiplicity
  _atom_site_fract_x
  _atom_site_fract_y
  _atom_site_fract_z
  _atom_site_occupancy
  Sr  Sr1       1.0  0.33664  0.10757000000000003  0.46624999999999994  1.0000
  Sr  Sr2       1.0  0.66332  0.89245  0.53375  1.0000
  Sr  Sr3       1.0  0.4999499999999999  0.5  0.49999  1.0000
  H   H1        1.0  0.60957  0.29072  0.76283  1.0000
  H   H2        1.0  0.9066000000000001  0.1643  0.52174  1.0000
  H   H3        1.0  0.9000100000000001  0.52869  0.73519  1.0000
  H   H4        1.0  0.29231  0.54902  0.67384  1.0000
  H   H5        1.0  0.36482  0.008349999999999967  0.75689  1.0000
  H   H6        1.0  0.44789999999999996  0.35862000000000005  0.06213  1.0000
  H   H7        1.0  0.19390000000000007  0.9557600000000002  0.028810000000000002  1.0000
  H   H8        1.0  0.39042  0.7093  0.23717  1.0000
  H   H9        1.0  0.09336000000000003  0.8357300000000001  0.47831  1.0000
  H   H10       1.0  0.09992000000000001  0.47134000000000004  0.26481  1.0000
  H   H11       1.0  0.70766  0.451  0.32621  1.0000
  H   H12       1.0  0.63519  0.9916600000000001  0.24313  1.0000
  H   H13       1.0  0.5521  0.64138  0.93789  1.0000
  H   H14       1.0  0.8061  0.044249999999999984  0.9712  1.0000
  C   C1        1.0  0.17816  0.27575  0.53399  1.0000
  C   C2        1.0  0.10728999999999993  0.34964000000000006  0.5947299999999999  1.0000
  C   C3        1.0  0.9604099999999999  0.27318000000000003  0.57685  1.0000
  C   C4        1.0  0.8831199999999999  0.33729000000000003  0.6247399999999997  1.0000
  C   C5        1.0  0.95693  0.47796  0.6950199999999997  1.0000
  C   C6        1.0  0.10414999999999998  0.55595  0.71304  1.0000
  C   C7        1.0  0.1791799999999998  0.49038  0.6619699999999997  1.0000
  C   C8        1.0  0.71965  0.25902000000000003  0.59585  1.0000
  C   C9        1.0  0.1662499999999999  0.69901  0.77381  1.0000
  C   C10       1.0  0.20800999999999986  0.82197  0.82014  1.0000
  C   C11       1.0  0.2656400000000001  0.9648900000000001  0.8800699999999999  1.0000
  C   C12       1.0  0.34797999999999984  0.05235999999999992  0.8374899999999997  1.0000
  C   C13       1.0  0.41307  0.19329  0.90288  1.0000
  C   C14       1.0  0.3971  0.2489  0.01184  1.0000
  C   C15       1.0  0.3208  0.16246  0.05857  1.0000
  C   C16       1.0  0.25257  0.02152000000000003  0.99106  1.0000
  C   C17       1.0  0.51399  0.2870300000000001  0.87076  1.0000
  C   C18       1.0  0.32649  0.21758000000000005  0.19142  1.0000
  C   C19       1.0  0.82184  0.7242600000000002  0.46608999999999995  1.0000
  C   C20       1.0  0.8926899999999999  0.65036  0.4053199999999999  1.0000
  C   C21       1.0  0.03955000000000003  0.7268400000000003  0.42319  1.0000
  C   C22       1.0  0.11682000000000003  0.6627300000000002  0.37527  1.0000
  C   C23       1.0  0.04300999999999999  0.52206  0.30498  1.0000
  C   C24       1.0  0.89581  0.44406000000000007  0.28698  1.0000
  C   C25       1.0  0.8207899999999999  0.50962  0.33807  1.0000
  C   C26       1.0  0.28029  0.741  0.40413  1.0000
  C   C27       1.0  0.83372  0.30098  0.22620999999999997  1.0000
  C   C28       1.0  0.79201  0.17808000000000002  0.17989  1.0000
  C   C29       1.0  0.73438  0.03513999999999999  0.11994999999999999  1.0000
  C   C30       1.0  0.6520400000000001  0.94766  0.16253  1.0000
  C   C31       1.0  0.58694  0.8067300000000002  0.09714  1.0000
  C   C32       1.0  0.6029  0.75112  0.98818  1.0000
  C   C33       1.0  0.6792100000000001  0.83756  0.94145  1.0000
  C   C34       1.0  0.74744  0.9785000000000001  0.00896  1.0000
  C   C35       1.0  0.48602000000000006  0.7129800000000001  0.12925  1.0000
  C   C36       1.0  0.67351  0.78243  0.80859  1.0000
  O   O1        1.0  0.28719  0.34274  0.5168  1.0000
  O   O2        1.0  0.12763999999999992  0.14692999999999998  0.5031099999999998  1.0000
  O   O3        1.0  0.63578  0.32458  0.61623  1.0000
  O   O4        1.0  0.6606  0.12892000000000003  0.54817  1.0000
  O   O5        1.0  0.5742599999999999  0.41055  0.9217399999999999  1.0000
  O   O6        1.0  0.5408099999999999  0.21975999999999998  0.7767599999999998  1.0000
  O   O7        1.0  0.2567  0.13123000000000004  0.22871  1.0000
  O   O8        1.0  0.40582  0.34381  0.26208  1.0000
  O   O9        1.0  0.71274  0.65726  0.48319999999999996  1.0000
  O   O10       1.0  0.87244  0.8530900000000002  0.49702999999999997  1.0000
  O   O11       1.0  0.36413  0.67543  0.38374  1.0000
  O   O12       1.0  0.33932999999999996  0.87111  0.45182  1.0000
  O   O13       1.0  0.42573  0.58947  0.07825  1.0000
  O   O14       1.0  0.45921000000000006  0.7802600000000002  0.22326  1.0000
  O   O15       1.0  0.7433000000000001  0.8687800000000001  0.7713  1.0000
  O   O16       1.0  0.5941499999999998  0.65619  0.7379299999999999  1.0000
