data_image0
_chemical_formula_structural       Zn2H34C36N8O4
_chemical_formula_sum              "Zn2 H34 C36 N8 O4"
_cell_length_a       10.28731
_cell_length_b       11.06155
_cell_length_c       11.061749999999998
_cell_angle_alpha    95.79486
_cell_angle_beta     108.784
_cell_angle_gamma    108.78434

_symmetry_space_group_name_H-M    'P 1'
_symmetry_Int_Tables_number       1

loop_
  _symmetry_equiv_pos_as_xyz
  'x,y,z'

loop_
  _atom_site_type_symbol
  _atom_site_label
  _atom_site_symmetry_multiplicity
  _atom_site_fract_x
  _atom_site_fract_y
  _atom_site_fract_z
  _atom_site_occupancy
  Zn  Zn1       1.0  0.32367  0.92279  0.99532  1.0000
  Zn  Zn2       1.0  0.82367  0.99532  0.92279  1.0000
  H   H1        1.0  0.013980000000000005  0.04536000000000002  0.6075  1.0000
  H   H2        1.0  0.37350000000000005  0.9912100000000001  0.54753  1.0000
  H   H3        1.0  0.4489  0.93191  0.76443  1.0000
  H   H4        1.0  0.8685400000000001  0.54032  0.23597000000000004  1.0000
  H   H5        1.0  0.04667000000000001  0.69803  0.45818000000000003  1.0000
  H   H6        1.0  0.97671  0.44402  0.2633  1.0000
  H   H7        1.0  0.81476  0.50284  0.4378600000000001  1.0000
  H   H8        1.0  0.9271000000000001  0.40938  0.47038  1.0000
  H   H9        1.0  0.17970999999999998  0.97314  0.1826  1.0000
  H   H10       1.0  0.08760999999999998  0.87415  0.34608  1.0000
  H   H11       1.0  0.15825000000000003  0.60368  0.47293  1.0000
  H   H12       1.0  0.23778  0.56355  0.2681  1.0000
  H   H13       1.0  0.32803  0.67896  0.10914  1.0000
  H   H14       1.0  0.39953000000000005  0.21667000000000003  0.03675  1.0000
  H   H15       1.0  0.6128600000000001  0.42112  0.17686  1.0000
  H   H16       1.0  0.8021600000000001  0.17637  0.39613  1.0000
  H   H17       1.0  0.58443  0.9817800000000001  0.24165999999999999  1.0000
  H   H18       1.0  0.51398  0.6075  0.04536  1.0000
  H   H19       1.0  0.8735000000000002  0.54753  0.9912100000000001  1.0000
  H   H20       1.0  0.9489  0.7644399999999999  0.93191  1.0000
  H   H21       1.0  0.36854  0.23596000000000003  0.54032  1.0000
  H   H22       1.0  0.54667  0.45818  0.69802  1.0000
  H   H23       1.0  0.47671  0.2633  0.44402  1.0000
  H   H24       1.0  0.31476  0.4378600000000001  0.50284  1.0000
  H   H25       1.0  0.42711  0.47038  0.4093800000000001  1.0000
  H   H26       1.0  0.67972  0.18260999999999997  0.97314  1.0000
  H   H27       1.0  0.58761  0.34609000000000006  0.8741400000000001  1.0000
  H   H28       1.0  0.65825  0.47294  0.60368  1.0000
  H   H29       1.0  0.7377800000000002  0.2681  0.56355  1.0000
  H   H30       1.0  0.8280299999999999  0.10914  0.67896  1.0000
  H   H31       1.0  0.89953  0.03675  0.21667  1.0000
  H   H32       1.0  0.11286000000000002  0.17686000000000002  0.42112  1.0000
  H   H33       1.0  0.30217  0.39613  0.17638  1.0000
  H   H34       1.0  0.08444000000000006  0.24166000000000007  0.9817900000000002  1.0000
  C   C1        1.0  0.15157000000000004  0.9883000000000001  0.76281  1.0000
  C   C2        1.0  0.11199000000000006  0.020379999999999995  0.64064  1.0000
  C   C3        1.0  0.3093000000000001  0.9896900000000001  0.60899  1.0000
  C   C4        1.0  0.35133  0.95661  0.72848  1.0000
  C   C5        1.0  0.06873000000000005  0.98577  0.84786  1.0000
  C   C6        1.0  0.59421  0.08135999999999999  0.23324  1.0000
  C   C7        1.0  0.7146400000000003  0.19004000000000001  0.31858000000000003  1.0000
  C   C8        1.0  0.7239900000000004  0.31672  0.30301  1.0000
  C   C9        1.0  0.6086  0.32639  0.19895  1.0000
  C   C10       1.0  0.49132000000000003  0.2132  0.11806  1.0000
  C   C11       1.0  0.27183  0.71628  0.16299  1.0000
  C   C12       1.0  0.22209000000000004  0.6540600000000001  0.25165  1.0000
  C   C13       1.0  0.14961  0.70671  0.31754  1.0000
  C   C14       1.0  0.13665999999999995  0.8250100000000001  0.29365  1.0000
  C   C15       1.0  0.19058000000000005  0.88254  0.20477000000000004  1.0000
  C   C16       1.0  0.8542899999999998  0.43715  0.39088  1.0000
  C   C17       1.0  0.94178  0.51113  0.31377  1.0000
  C   C18       1.0  0.07864999999999994  0.6332999999999999  0.40152  1.0000
  C   C19       1.0  0.65157  0.7628100000000001  0.98829  1.0000
  C   C20       1.0  0.61199  0.64063  0.02038  1.0000
  C   C21       1.0  0.80931  0.60899  0.98969  1.0000
  C   C22       1.0  0.85133  0.72848  0.95661  1.0000
  C   C23       1.0  0.56873  0.84786  0.98577  1.0000
  C   C24       1.0  0.09421  0.23325  0.08137  1.0000
  C   C25       1.0  0.21464000000000003  0.31858000000000003  0.19005  1.0000
  C   C26       1.0  0.22399000000000002  0.30301  0.31672  1.0000
  C   C27       1.0  0.10859000000000005  0.19895  0.32639  1.0000
  C   C28       1.0  0.99132  0.11806  0.2132  1.0000
  C   C29       1.0  0.7718400000000001  0.16299  0.71628  1.0000
  C   C30       1.0  0.72209  0.25165  0.65406  1.0000
  C   C31       1.0  0.64961  0.31754  0.7067100000000001  1.0000
  C   C32       1.0  0.63666  0.29365  0.8250000000000001  1.0000
  C   C33       1.0  0.69058  0.20477000000000004  0.8825400000000001  1.0000
  C   C34       1.0  0.35429000000000005  0.39088  0.43714000000000003  1.0000
  C   C35       1.0  0.44178  0.31376999999999994  0.51113  1.0000
  C   C36       1.0  0.57864  0.40152  0.6333  1.0000
  N   N1        1.0  0.1874  0.024319999999999998  0.56161  1.0000
  N   N2        1.0  0.27685000000000004  0.9568400000000001  0.81024  1.0000
  N   N3        1.0  0.4835  0.09188  0.13425  1.0000
  N   N4        1.0  0.25476  0.82843  0.13751  1.0000
  N   N5        1.0  0.6874  0.5616  0.02432  1.0000
  N   N6        1.0  0.7768500000000002  0.81025  0.95683  1.0000
  N   N7        1.0  0.9835  0.13425  0.09188  1.0000
  N   N8        1.0  0.7547600000000001  0.13751000000000008  0.8284300000000001  1.0000
  O   O1        1.0  0.9430900000000001  0.0004500000000000026  0.80491  1.0000
  O   O2        1.0  0.12477000000000003  0.9669800000000001  0.96284  1.0000
  O   O3        1.0  0.44309  0.80491  0.00044000000000000007  1.0000
  O   O4        1.0  0.62477  0.96284  0.96698  1.0000
