data_image0
_chemical_formula_structural       Ca2H16C36O16
_chemical_formula_sum              "Ca2 H16 C36 O16"
_cell_length_a       8.76949
_cell_length_b       11.435220000000001
_cell_length_c       13.421459999999998
_cell_angle_alpha    64.25730000000001
_cell_angle_beta     84.3285
_cell_angle_gamma    74.52178999999998

_symmetry_space_group_name_H-M    'P 1'
_symmetry_Int_Tables_number       1

loop_
  _symmetry_equiv_pos_as_xyz
  'x,y,z'

loop_
  _atom_site_type_symbol
  _atom_site_label
  _atom_site_symmetry_multiplicity
  _atom_site_fract_x
  _atom_site_fract_y
  _atom_site_fract_z
  _atom_site_occupancy
  Ca  Ca1       1.0  0.25583  0.15891999999999998  0.67647  1.0000
  Ca  Ca2       1.0  0.7441699999999999  0.84109  0.32352  1.0000
  H   H1        1.0  0.68622  0.93646  0.52386  1.0000
  H   H2        1.0  0.426  0.64018  0.52451  1.0000
  H   H3        1.0  0.3679900000000001  0.38573  0.86538  1.0000
  H   H4        1.0  0.5881399999999999  0.71292  0.7801200000000001  1.0000
  H   H5        1.0  0.8178799999999999  0.53762  0.52413  1.0000
  H   H6        1.0  0.08125000000000002  0.8313000000000001  0.52469  1.0000
  H   H7        1.0  0.1382799999999999  0.74608  0.8652100000000001  1.0000
  H   H8        1.0  0.91585  0.5051200000000001  0.78033  1.0000
  H   H9        1.0  0.31378  0.06355000000000001  0.47614  1.0000
  H   H10       1.0  0.574  0.3598299999999999  0.4754900000000001  1.0000
  H   H11       1.0  0.6320100000000001  0.61428  0.13462  1.0000
  H   H12       1.0  0.41186  0.28709  0.21988  1.0000
  H   H13       1.0  0.18211  0.46238999999999997  0.47586  1.0000
  H   H14       1.0  0.91875  0.16871000000000005  0.47529999999999994  1.0000
  H   H15       1.0  0.8617100000000002  0.2539300000000001  0.13479  1.0000
  H   H16       1.0  0.08414999999999996  0.49489000000000005  0.21967  1.0000
  C   C1        1.0  0.44145999999999996  0.61368  0.61161  1.0000
  C   C2        1.0  0.40977  0.4699800000000002  0.8038  1.0000
  C   C3        1.0  0.51315  0.68797  0.64376  1.0000
  C   C4        1.0  0.39018  0.50438  0.69164  1.0000
  C   C5        1.0  0.31166999999999995  0.42726  0.65498  1.0000
  C   C6        1.0  0.53255  0.6545100000000001  0.75602  1.0000
  C   C7        1.0  0.49435999999999997  0.51334  0.9510200000000001  1.0000
  C   C8        1.0  0.47976000000000013  0.54539  0.83731  1.0000
  C   C9        1.0  0.5707300000000003  0.7996600000000001  0.55636  1.0000
  C   C10       1.0  0.06531999999999998  0.7708900000000001  0.61169  1.0000
  C   C11       1.0  0.09666000000000008  0.72303  0.80376  1.0000
  C   C12       1.0  0.99252  0.66516  0.64392  1.0000
  C   C13       1.0  0.11699  0.80005  0.6916  1.0000
  C   C14       1.0  0.19427000000000003  0.91446  0.65459  1.0000
  C   C15       1.0  0.97272  0.58686  0.75607  1.0000
  C   C16       1.0  0.007500000000000009  0.53492  0.95107  1.0000
  C   C17       1.0  0.02533999999999992  0.6149300000000002  0.83732  1.0000
  C   C18       1.0  0.93176  0.6422600000000002  0.55684  1.0000
  C   C19       1.0  0.55853  0.38633  0.38838  1.0000
  C   C20       1.0  0.5902300000000004  0.53003  0.19619  1.0000
  C   C21       1.0  0.48685  0.31204  0.35623  1.0000
  C   C22       1.0  0.60982  0.4956300000000001  0.30836  1.0000
  C   C23       1.0  0.6883300000000003  0.5727500000000001  0.34501  1.0000
  C   C24       1.0  0.46745000000000003  0.3455  0.24398  1.0000
  C   C25       1.0  0.50564  0.48667  0.04897  1.0000
  C   C26       1.0  0.5202400000000003  0.4546200000000001  0.16268  1.0000
  C   C27       1.0  0.42927  0.20034  0.44364000000000003  1.0000
  C   C28       1.0  0.9346800000000001  0.22911000000000006  0.38830999999999993  1.0000
  C   C29       1.0  0.9033400000000001  0.27698  0.19624  1.0000
  C   C30       1.0  0.007469999999999981  0.33485  0.35608  1.0000
  C   C31       1.0  0.88301  0.19996000000000003  0.3084  1.0000
  C   C32       1.0  0.8057300000000002  0.08555  0.3454  1.0000
  C   C33       1.0  0.02727000000000001  0.41314999999999996  0.24393  1.0000
  C   C34       1.0  0.9925  0.46509000000000006  0.04892  1.0000
  C   C35       1.0  0.9746600000000001  0.38508  0.16268  1.0000
  C   C36       1.0  0.06824000000000001  0.35775  0.44316  1.0000
  O   O1        1.0  0.29024000000000005  0.31461  0.72805  1.0000
  O   O2        1.0  0.27308  0.48000000000000004  0.5532  1.0000
  O   O3        1.0  0.6356799999999998  0.8673500000000005  0.59029  1.0000
  O   O4        1.0  0.56113  0.8236600000000001  0.45608000000000004  1.0000
  O   O5        1.0  0.21983  0.9516700000000002  0.72772  1.0000
  O   O6        1.0  0.22737  0.96652  0.55283  1.0000
  O   O7        1.0  0.8716400000000001  0.5379900000000002  0.5907  1.0000
  O   O8        1.0  0.9329000000000001  0.7225400000000003  0.45666  1.0000
  O   O9        1.0  0.70976  0.6854  0.27194  1.0000
  O   O10       1.0  0.7269200000000003  0.5200100000000001  0.4468  1.0000
  O   O11       1.0  0.36430999999999997  0.13265  0.40970000000000006  1.0000
  O   O12       1.0  0.43887  0.17635000000000003  0.54392  1.0000
  O   O13       1.0  0.78016  0.048339999999999994  0.27228  1.0000
  O   O14       1.0  0.77263  0.03348999999999997  0.44716000000000006  1.0000
  O   O15       1.0  0.12836000000000014  0.4620199999999999  0.40929  1.0000
  O   O16       1.0  0.06709999999999997  0.27747000000000005  0.54334  1.0000
