data_image0
_chemical_formula_structural       Sr2H28C16S4O8
_chemical_formula_sum              "Sr2 H28 C16 S4 O8"
_cell_length_a       11.31888
_cell_length_b       11.26516
_cell_length_c       10.607410000000002
_cell_angle_alpha    112.46750999999999
_cell_angle_beta     112.49390999999999
_cell_angle_gamma    108.67747999999999

_symmetry_space_group_name_H-M    'P 1'
_symmetry_Int_Tables_number       1

loop_
  _symmetry_equiv_pos_as_xyz
  'x,y,z'

loop_
  _atom_site_type_symbol
  _atom_site_label
  _atom_site_symmetry_multiplicity
  _atom_site_fract_x
  _atom_site_fract_y
  _atom_site_fract_z
  _atom_site_occupancy
  Sr  Sr1       1.0  0.22560999999999995  0.7722  0.99859  1.0000
  Sr  Sr2       1.0  0.4703400000000001  0.53125  0.50118  1.0000
  H   H1        1.0  0.32246  0.19122999999999996  0.44886  1.0000
  H   H2        1.0  0.9991000000000001  0.90772  0.15677  1.0000
  H   H3        1.0  0.07154  0.09622  0.20343  1.0000
  H   H4        1.0  0.04594  0.06165999999999999  0.34355  1.0000
  H   H5        1.0  0.23733000000000007  0.006489999999999992  0.51818  1.0000
  H   H6        1.0  0.37511000000000005  0.9991599999999999  0.47832  1.0000
  H   H7        1.0  0.17715  0.85244  0.32379  1.0000
  H   H8        1.0  0.8084700000000001  0.67662  0.54909  1.0000
  H   H9        1.0  0.08818000000000005  0.0021400000000000438  0.84308  1.0000
  H   H10       1.0  0.89973  0.92702  0.79414  1.0000
  H   H11       1.0  0.9355400000000003  0.9547299999999999  0.65565  1.0000
  H   H12       1.0  0.9926700000000002  0.76527  0.48162  1.0000
  H   H13       1.0  0.0023900000000000245  0.62758  0.52177  1.0000
  H   H14       1.0  0.14636000000000002  0.82706  0.6767  1.0000
  H   H15       1.0  0.5059  0.8898299999999999  0.94348  1.0000
  H   H16       1.0  0.50553  0.9226699999999999  0.66831  1.0000
  H   H17       1.0  0.35942  0.89596  0.70298  1.0000
  H   H18       1.0  0.54314  0.06856000000000002  0.8538600000000002  1.0000
  H   H19       1.0  0.7718100000000001  0.05485999999999999  0.03421  1.0000
  H   H20       1.0  0.7328300000000002  0.87196  0.98968  1.0000
  H   H21       1.0  0.73024  0.9148599999999999  0.84352  1.0000
  H   H22       1.0  0.11158000000000001  0.4972  0.06022  1.0000
  H   H23       1.0  0.07613000000000002  0.49415  0.3327  1.0000
  H   H24       1.0  0.10057000000000003  0.6403899999999999  0.2974  1.0000
  H   H25       1.0  0.9308500000000001  0.45434  0.14572  1.0000
  H   H26       1.0  0.9484400000000001  0.2284299999999999  0.96667  1.0000
  H   H27       1.0  0.13153  0.27041  0.01281  1.0000
  H   H28       1.0  0.08744  0.26976  0.15726  1.0000
  C   C1        1.0  0.8581100000000002  0.64318  0.7857100000000002  1.0000
  C   C2        1.0  0.24134000000000003  0.06812  0.35059  1.0000
  C   C3        1.0  0.07951000000000005  0.03083000000000005  0.2573400000000001  1.0000
  C   C4        1.0  0.2593200000000001  0.97587  0.42174  1.0000
  C   C5        1.0  0.35762000000000005  0.14184  0.21412  1.0000
  C   C6        1.0  0.9307400000000002  0.75888  0.64814  1.0000
  C   C7        1.0  0.9659900000000002  0.9206299999999998  0.74152  1.0000
  C   C8        1.0  0.023790000000000082  0.7432000000000001  0.57811  1.0000
  C   C9        1.0  0.39211999999999997  0.6820999999999999  0.29237  1.0000
  C   C10       1.0  0.53399  0.8737  0.85273  1.0000
  C   C11       1.0  0.48207  0.9440099999999999  0.76348  1.0000
  C   C12       1.0  0.70212  0.9315  0.93469  1.0000
  C   C13       1.0  0.32071  0.60738  0.71026  1.0000
  C   C14       1.0  0.127  0.46788  0.15005  1.0000
  C   C15       1.0  0.054830000000000025  0.5175600000000001  0.23741  1.0000
  C   C16       1.0  0.07108  0.29922  0.06703  1.0000
  S   S1        1.0  0.9207200000000002  0.6042  0.9297  1.0000
  S   S2        1.0  0.3951  0.07852  0.06912  1.0000
  S   S3        1.0  0.5795800000000001  0.7727899999999999  0.44758  1.0000
  S   S4        1.0  0.23170000000000002  0.41898  0.55639  1.0000
  O   O1        1.0  0.72782  0.61584  0.70053  1.0000
  O   O2        1.0  0.96941  0.71419  0.76626  1.0000
  O   O3        1.0  0.38736  0.27354  0.30146  1.0000
  O   O4        1.0  0.28504  0.029390000000000027  0.23178000000000007  1.0000
  O   O5        1.0  0.33705999999999997  0.7167099999999998  0.19585000000000005  1.0000
  O   O6        1.0  0.29441000000000006  0.55596  0.2773  1.0000
  O   O7        1.0  0.28437999999999997  0.66313  0.8044  1.0000
  O   O8        1.0  0.4478200000000001  0.70531  0.72732  1.0000
