data_image0
_chemical_formula_structural       Li4H48C24Cl2O12
_chemical_formula_sum              "Li4 H48 C24 Cl2 O12"
_cell_length_a       11.40721
_cell_length_b       10.77859
_cell_length_c       10.77986
_cell_angle_alpha    99.95011000000001
_cell_angle_beta     111.24223000000002
_cell_angle_gamma    111.25740000000002

_space_group_name_H-M_alt    "P 1"
_space_group_IT_number       1

loop_
  _space_group_symop_operation_xyz
  'x, y, z'

loop_
  _atom_site_type_symbol
  _atom_site_label
  _atom_site_symmetry_multiplicity
  _atom_site_fract_x
  _atom_site_fract_y
  _atom_site_fract_z
  _atom_site_occupancy
  Li  Li1       1.0  0.92743  0.6236  0.77482  1.0000
  Li  Li2       1.0  0.57281  0.22512999999999997  0.37681  1.0000
  Li  Li3       1.0  0.07256999999999994  0.3764  0.22517999999999996  1.0000
  Li  Li4       1.0  0.42719  0.77487  0.62319  1.0000
  H   H1        1.0  0.9046499999999998  0.83134  0.96285  1.0000
  H   H2        1.0  0.8718199999999999  0.95202  0.8755099999999999  1.0000
  H   H3        1.0  0.8263599999999999  0.88832  0.62343  1.0000
  H   H4        1.0  0.8271199999999999  0.7259199999999999  0.54898  1.0000
  H   H5        1.0  0.15537999999999996  0.88657  0.81073  1.0000
  H   H6        1.0  0.15671  0.81456  0.6477799999999999  1.0000
  H   H7        1.0  0.11505999999999998  0.56384  0.58278  1.0000
  H   H8        1.0  0.07460999999999998  0.47148  0.6962  1.0000
  H   H9        1.0  0.75287  0.42311  0.8479  1.0000
  H   H10       1.0  0.83318  0.46114  0.03655  1.0000
  H   H11       1.0  0.08328999999999999  0.66256  0.17711  1.0000
  H   H12       1.0  0.15396  0.75088  0.07386  1.0000
  H   H13       1.0  0.59453  0.03683  0.16824  1.0000
  H   H14       1.0  0.6277  0.12458  0.04789999999999999  1.0000
  H   H15       1.0  0.67322  0.37624  0.11156999999999999  1.0000
  H   H16       1.0  0.6725499999999998  0.45098  0.27395  1.0000
  H   H17       1.0  0.3451699999999999  0.18874  0.11381999999999999  1.0000
  H   H18       1.0  0.34415999999999997  0.35213  0.18549999999999997  1.0000
  H   H19       1.0  0.38554  0.41721  0.43674  1.0000
  H   H20       1.0  0.42554  0.30336  0.52874  1.0000
  H   H21       1.0  0.7471899999999997  0.15171999999999997  0.57679  1.0000
  H   H22       1.0  0.6665  0.9630799999999999  0.53882  1.0000
  H   H23       1.0  0.4164499999999999  0.8228199999999999  0.33734  1.0000
  H   H24       1.0  0.3461  0.92629  0.24913  1.0000
  H   H25       1.0  0.09534999999999999  0.16867  0.037149999999999996  1.0000
  H   H26       1.0  0.12818  0.04798999999999999  0.12448999999999999  1.0000
  H   H27       1.0  0.17364  0.11168  0.37657  1.0000
  H   H28       1.0  0.17288  0.27409  0.45102  1.0000
  H   H29       1.0  0.84462  0.11342999999999999  0.18926  1.0000
  H   H30       1.0  0.84329  0.18545  0.35222  1.0000
  H   H31       1.0  0.8849399999999998  0.43615999999999994  0.41722  1.0000
  H   H32       1.0  0.9253899999999998  0.5285200000000001  0.3038  1.0000
  H   H33       1.0  0.24712999999999993  0.57689  0.1521  1.0000
  H   H34       1.0  0.16681000000000007  0.53886  0.96345  1.0000
  H   H35       1.0  0.9167099999999999  0.33745  0.82288  1.0000
  H   H36       1.0  0.84604  0.24912999999999996  0.92614  1.0000
  H   H37       1.0  0.40546999999999994  0.96318  0.83176  1.0000
  H   H38       1.0  0.3723000000000001  0.87542  0.9521  1.0000
  H   H39       1.0  0.32677999999999996  0.62377  0.8884299999999999  1.0000
  H   H40       1.0  0.32744999999999996  0.54903  0.7260499999999999  1.0000
  H   H41       1.0  0.65482  0.81127  0.88618  1.0000
  H   H42       1.0  0.65584  0.64787  0.8145  1.0000
  H   H43       1.0  0.61446  0.5828  0.56326  1.0000
  H   H44       1.0  0.57446  0.69665  0.47125999999999996  1.0000
  H   H45       1.0  0.25281  0.84829  0.42321  1.0000
  H   H46       1.0  0.3335  0.036929999999999956  0.46118  1.0000
  H   H47       1.0  0.58355  0.17719  0.66266  1.0000
  H   H48       1.0  0.6539  0.07371  0.75087  1.0000
  C   C1        1.0  0.84191  0.8395599999999999  0.86216  1.0000
  C   C2        1.0  0.7972799999999999  0.7784399999999999  0.6208499999999999  1.0000
  C   C3        1.0  0.18539  0.8155  0.75725  1.0000
  C   C4        1.0  0.14083  0.5743  0.69374  1.0000
  C   C5        1.0  0.8525599999999998  0.45550999999999997  0.94361  1.0000
  C   C6        1.0  0.0885  0.64697  0.07591  1.0000
  C   C7        1.0  0.65754  0.13775  0.16025  1.0000
  C   C8        1.0  0.70231  0.37889  0.22144  1.0000
  C   C9        1.0  0.31528999999999996  0.24270999999999998  0.18474  1.0000
  C   C10       1.0  0.3596399999999999  0.3062  0.42603  1.0000
  C   C11       1.0  0.6473999999999998  0.05612999999999996  0.5445599999999999  1.0000
  C   C12       1.0  0.41148  0.9240899999999999  0.35299  1.0000
  C   C13       1.0  0.15808999999999998  0.16045  0.13784  1.0000
  C   C14       1.0  0.20272  0.22156  0.37915  1.0000
  C   C15       1.0  0.81461  0.18451  0.24274  1.0000
  C   C16       1.0  0.85917  0.4257099999999999  0.30626  1.0000
  C   C17       1.0  0.14743999999999996  0.5445  0.056389999999999996  1.0000
  C   C18       1.0  0.9115  0.35304  0.92408  1.0000
  C   C19       1.0  0.3424599999999998  0.8622599999999999  0.83975  1.0000
  C   C20       1.0  0.2976899999999999  0.62112  0.77856  1.0000
  C   C21       1.0  0.6847099999999999  0.75729  0.8152499999999999  1.0000
  C   C22       1.0  0.64036  0.6938  0.57397  1.0000
  C   C23       1.0  0.35258999999999996  0.9438799999999999  0.45544  1.0000
  C   C24       1.0  0.58852  0.07592000000000002  0.64701  1.0000
  Cl  Cl1       1.0  0.75006  0.4147100000000001  0.58541  1.0000
  Cl  Cl2       1.0  0.24992999999999985  0.5852999999999999  0.41458999999999996  1.0000
  O   O1        1.0  0.8820599999999997  0.78275  0.76118  1.0000
  O   O2        1.0  0.10105999999999998  0.6749500000000002  0.75203  1.0000
  O   O3        1.0  0.94738  0.59811  0.95965  1.0000
  O   O4        1.0  0.6172599999999999  0.23858  0.21713999999999997  1.0000
  O   O5        1.0  0.39936000000000005  0.24789  0.32535  1.0000
  O   O6        1.0  0.5526  0.04039000000000001  0.40208  1.0000
  O   O7        1.0  0.11793999999999998  0.21725999999999998  0.23882  1.0000
  O   O8        1.0  0.8989399999999997  0.32505  0.24796999999999997  1.0000
  O   O9        1.0  0.052609999999999955  0.40189  0.04035  1.0000
  O   O10       1.0  0.38273999999999997  0.76142  0.7828499999999999  1.0000
  O   O11       1.0  0.60064  0.7521200000000001  0.67465  1.0000
  O   O12       1.0  0.4474  0.95962  0.5979199999999999  1.0000
