data_image0
_chemical_formula_structural       Ni2H18C22N4O4
_chemical_formula_sum              "Ni2 H18 C22 N4 O4"
_cell_length_a       7.29214
_cell_length_b       8.53317
_cell_length_c       11.212020000000003
_cell_angle_alpha    67.31763000000001
_cell_angle_beta     88.84923000000002
_cell_angle_gamma    95.72655

_space_group_name_H-M_alt    "P 1"
_space_group_IT_number       1

loop_
  _space_group_symop_operation_xyz
  'x, y, z'

loop_
  _atom_site_type_symbol
  _atom_site_label
  _atom_site_symmetry_multiplicity
  _atom_site_fract_x
  _atom_site_fract_y
  _atom_site_fract_z
  _atom_site_occupancy
  Ni  Ni1       1.0  0.50145  0.8117699999999997  0.49318  1.0000
  Ni  Ni2       1.0  0.010740000000000013  0.31456000000000006  0.50491  1.0000
  H   H1        1.0  0.3951  0.55969  0.75993  1.0000
  H   H2        1.0  0.6328699999999998  0.06279  0.61125  1.0000
  H   H3        1.0  0.3803499999999999  0.5519799999999999  0.9814  1.0000
  H   H4        1.0  0.6345600000000001  0.07640000000000008  0.8228199999999999  1.0000
  H   H5        1.0  0.4801199999999999  0.53322  0.16397  1.0000
  H   H6        1.0  0.5282499999999999  0.08334999999999997  0.00232  1.0000
  H   H7        1.0  0.4838499999999999  0.54321  0.37822  1.0000
  H   H8        1.0  0.5195499999999997  0.07085999999999999  0.22756000000000004  1.0000
  H   H9        1.0  0.30474  0.07067999999999995  0.5799100000000001  1.0000
  H   H10       1.0  0.9410899999999998  0.31594  0.2508000000000001  1.0000
  H   H11       1.0  0.10271999999999998  0.69556  0.38349000000000005  1.0000
  H   H12       1.0  0.9339599999999998  0.52478  0.02978  1.0000
  H   H13       1.0  0.10755999999999999  0.9203900000000002  0.17035  1.0000
  H   H14       1.0  0.9860299999999997  0.70497  0.8399  1.0000
  H   H15       1.0  0.005259999999999991  0.10105999999999991  0.99232  1.0000
  H   H16       1.0  0.9937799999999998  0.9288199999999999  0.62448  1.0000
  H   H17       1.0  0.9865799999999998  0.30865000000000004  0.76681  1.0000
  H   H18       1.0  0.7977199999999998  0.6307899999999997  0.41735000000000005  1.0000
  C   C1        1.0  0.44385  0.6725200000000001  0.7781800000000001  1.0000
  C   C2        1.0  0.57548  0.9519799999999998  0.6955800000000001  1.0000
  C   C3        1.0  0.4390499999999998  0.6684799999999999  0.9025900000000001  1.0000
  C   C4        1.0  0.5734099999999998  0.9583699999999999  0.8170800000000001  1.0000
  C   C5        1.0  0.5034599999999998  0.8137499999999999  0.92733  1.0000
  C   C6        1.0  0.50046  0.80989  0.05902000000000001  1.0000
  C   C7        1.0  0.4862099999999999  0.6573  0.17079000000000003  1.0000
  C   C8        1.0  0.5142999999999998  0.9607099999999998  0.08341  1.0000
  C   C9        1.0  0.4883299999999999  0.6613699999999998  0.29284  1.0000
  C   C10       1.0  0.5123  0.95509  0.20833000000000002  1.0000
  C   C11       1.0  0.27929  0.09371000000000003  0.47838  1.0000
  C   C12       1.0  0.97007  0.4519099999999999  0.22907  1.0000
  C   C13       1.0  0.06057999999999999  0.66367  0.30268  1.0000
  C   C14       1.0  0.9675  0.57266  0.10391  1.0000
  C   C15       1.0  0.058879999999999974  0.7914699999999998  0.18039  1.0000
  C   C16       1.0  0.010599999999999984  0.7503199999999998  0.07322000000000001  1.0000
  C   C17       1.0  0.007910000000000002  0.87845  0.9417900000000001  1.0000
  C   C18       1.0  0.9973599999999997  0.8367299999999998  0.8313000000000001  1.0000
  C   C19       1.0  0.007149999999999988  0.05588  0.9142400000000002  1.0000
  C   C20       1.0  0.9989599999999998  0.96328  0.70794  1.0000
  C   C21       1.0  0.0011899999999999853  0.17484999999999992  0.7882200000000001  1.0000
  C   C22       1.0  0.7481699999999999  0.5554199999999999  0.51952  1.0000
  N   N1        1.0  0.5092199999999999  0.8130199999999999  0.67281  1.0000
  N   N2        1.0  0.5015699999999997  0.8073999999999996  0.31527  1.0000
  N   N3        1.0  0.014049999999999998  0.4948699999999999  0.33001  1.0000
  N   N4        1.0  0.005899999999999999  0.13323  0.68268  1.0000
  O   O1        1.0  0.37759  0.022419999999999992  0.42154  1.0000
  O   O2        1.0  0.1565299999999999  0.18833  0.42082  1.0000
  O   O3        1.0  0.8301  0.42624999999999996  0.58094  1.0000
  O   O4        1.0  0.615  0.59475  0.57386  1.0000
