data_image0
_chemical_formula_structural       Mg3H6C18O16
_chemical_formula_sum              "Mg3 H6 C18 O16"
_cell_length_a       10.93515
_cell_length_b       10.93542
_cell_length_c       10.9354
_cell_angle_alpha    81.17501
_cell_angle_beta     81.16492
_cell_angle_gamma    81.16493999999999

_symmetry_space_group_name_H-M    'P 1'
_symmetry_Int_Tables_number       1

loop_
  _symmetry_equiv_pos_as_xyz
  'x,y,z'

loop_
  _atom_site_type_symbol
  _atom_site_label
  _atom_site_symmetry_multiplicity
  _atom_site_fract_x
  _atom_site_fract_y
  _atom_site_fract_z
  _atom_site_occupancy
  Mg  Mg1       1.0  0.13441999999999993  0.9999900000000002  0.86559  1.0000
  Mg  Mg2       1.0  0.86558  0.13442  1e-05  1.0000
  Mg  Mg3       1.0  0.0  0.8653900000000001  0.13461  1.0000
  H   H1        1.0  0.37557  0.70723  0.28046  1.0000
  H   H2        1.0  0.28048  0.3755600000000003  0.70721  1.0000
  H   H3        1.0  0.7072299999999998  0.28047000000000005  0.3755800000000001  1.0000
  H   H4        1.0  0.71953  0.29278999999999994  0.62444  1.0000
  H   H5        1.0  0.29278  0.62443  0.71953  1.0000
  H   H6        1.0  0.6244300000000002  0.7195400000000001  0.29278  1.0000
  C   C1        1.0  0.28054  0.8927600000000002  0.07778  1.0000
  C   C2        1.0  0.40164  0.86065  0.12829  1.0000
  C   C3        1.0  0.43685  0.76929  0.2244  1.0000
  C   C4        1.0  0.07777999999999997  0.28054999999999997  0.89276  1.0000
  C   C5        1.0  0.12828999999999993  0.40165  0.86065  1.0000
  C   C6        1.0  0.22441000000000003  0.43684  0.76929  1.0000
  C   C7        1.0  0.8927599999999999  0.07778000000000003  0.28054  1.0000
  C   C8        1.0  0.86065  0.12829000000000004  0.40164000000000005  1.0000
  C   C9        1.0  0.7692899999999999  0.22440000000000002  0.43686  1.0000
  C   C10       1.0  0.92223  0.10724999999999998  0.71945  1.0000
  C   C11       1.0  0.8717099999999999  0.13936  0.59836  1.0000
  C   C12       1.0  0.7755999999999998  0.23071000000000003  0.56316  1.0000
  C   C13       1.0  0.10723999999999996  0.7194600000000001  0.92222  1.0000
  C   C14       1.0  0.13934999999999992  0.5983600000000001  0.8717100000000001  1.0000
  C   C15       1.0  0.23071  0.5631400000000001  0.7756  1.0000
  C   C16       1.0  0.71946  0.92223  0.10724000000000002  1.0000
  C   C17       1.0  0.5983599999999999  0.8717100000000002  0.13935  1.0000
  C   C18       1.0  0.56315  0.7756000000000001  0.23071  1.0000
  O   O1        1.0  0.2790099999999999  0.9635000000000006  0.97448  1.0000
  O   O2        1.0  0.19162999999999997  0.8423  0.14595  1.0000
  O   O3        1.0  0.97447  0.2790000000000001  0.96351  1.0000
  O   O4        1.0  0.14595  0.19161  0.84231  1.0000
  O   O5        1.0  0.96351  0.9744600000000001  0.27901  1.0000
  O   O6        1.0  0.84231  0.14595000000000002  0.19163  1.0000
  O   O7        1.0  0.025539999999999993  0.03649000000000001  0.72101  1.0000
  O   O8        1.0  0.85406  0.15768999999999997  0.8084  1.0000
  O   O9        1.0  0.036489999999999995  0.72099  0.02554  1.0000
  O   O10       1.0  0.15768999999999994  0.8083700000000001  0.85406  1.0000
  O   O11       1.0  0.721  0.025530000000000008  0.0365  1.0000
  O   O12       1.0  0.80837  0.8540500000000002  0.1577  1.0000
  O   O13       1.0  0.5  0.9239100000000002  0.07609  1.0000
  O   O14       1.0  0.07608  0.50001  0.92393  1.0000
  O   O15       1.0  0.92392  0.07608  0.49999  1.0000
  O   O16       1.0  0.0  0.99978  0.00022  1.0000
