data_image0
_chemical_formula_structural       Zn8H12C8N12O4
_chemical_formula_sum              "Zn8 H12 C8 N12 O4"
_cell_length_a       6.94346
_cell_length_b       5.93747
_cell_length_c       16.72333
_cell_angle_alpha    89.86871999999998
_cell_angle_beta     90.00835
_cell_angle_gamma    89.5542

_symmetry_space_group_name_H-M    'P 1'
_symmetry_Int_Tables_number       1

loop_
  _symmetry_equiv_pos_as_xyz
  'x,y,z'

loop_
  _atom_site_type_symbol
  _atom_site_label
  _atom_site_symmetry_multiplicity
  _atom_site_fract_x
  _atom_site_fract_y
  _atom_site_fract_z
  _atom_site_occupancy
  Zn  Zn1       1.0  0.6167  0.11857000000000001  0.6232699999999999  1.0000
  Zn  Zn2       1.0  0.11624  0.3722  0.12635  1.0000
  Zn  Zn3       1.0  0.11653  0.87407  0.3766  1.0000
  Zn  Zn4       1.0  0.6172000000000001  0.62643  0.87621  1.0000
  Zn  Zn5       1.0  0.013390000000000008  0.53881  0.49626999999999993  1.0000
  Zn  Zn6       1.0  0.01466  0.03959  0.00485  1.0000
  Zn  Zn7       1.0  0.51387  0.45993000000000006  0.50466  1.0000
  Zn  Zn8       1.0  0.5146500000000002  0.9607400000000001  0.9961799999999998  1.0000
  H   H1        1.0  0.0569  0.13193  0.8083999999999998  1.0000
  H   H2        1.0  0.9536500000000002  0.36209  0.31466999999999995  1.0000
  H   H3        1.0  0.5578000000000001  0.8610000000000001  0.19198  1.0000
  H   H4        1.0  0.4523800000000001  0.63686  0.68647  1.0000
  H   H5        1.0  0.9551200000000002  0.85828  0.1856  1.0000
  H   H6        1.0  0.05513000000000001  0.6338399999999998  0.69201  1.0000
  H   H7        1.0  0.45414  0.14286  0.8146999999999998  1.0000
  H   H8        1.0  0.5563  0.3608  0.30869  1.0000
  H   H9        1.0  0.7903000000000001  0.24995  0.4379699999999999  1.0000
  H   H10       1.0  0.28875  0.25062  0.9399099999999998  1.0000
  H   H11       1.0  0.28715000000000007  0.751  0.56136  1.0000
  H   H12       1.0  0.7914800000000001  0.74916  0.06159  1.0000
  C   C1        1.0  0.9086  0.13726  0.82813  1.0000
  C   C2        1.0  0.10378000000000003  0.35580000000000006  0.3314799999999999  1.0000
  C   C3        1.0  0.40956000000000004  0.8573400000000001  0.17225999999999994  1.0000
  C   C4        1.0  0.6024300000000002  0.64126  0.6696  1.0000
  C   C5        1.0  0.10537  0.85289  0.16903999999999994  1.0000
  C   C6        1.0  0.9068300000000002  0.63683  0.6723999999999998  1.0000
  C   C7        1.0  0.6044  0.14583  0.8313299999999998  1.0000
  C   C8        1.0  0.4080800000000001  0.35836000000000007  0.32851  1.0000
  N   N1        1.0  0.86145  0.13425  0.90593  1.0000
  N   N2        1.0  0.16058000000000006  0.36165  0.40898  1.0000
  N   N3        1.0  0.3623  0.86177  0.09445  1.0000
  N   N4        1.0  0.6589600000000001  0.63498  0.59206  1.0000
  N   N5        1.0  0.16236  0.8593  0.09158  1.0000
  N   N6        1.0  0.85908  0.63266  0.59465  1.0000
  N   N7        1.0  0.66136  0.13936  0.90885  1.0000
  N   N8        1.0  0.3606800000000001  0.36289  0.40627  1.0000
  N   N9        1.0  0.7533100000000001  0.145  0.7796999999999998  1.0000
  N   N10       1.0  0.25303  0.3531  0.28005  1.0000
  N   N11       1.0  0.25435  0.8512800000000001  0.22068  1.0000
  N   N12       1.0  0.7518600000000002  0.64311  0.72095  1.0000
  O   O1        1.0  0.7679700000000002  0.41091  0.44529999999999986  1.0000
  O   O2        1.0  0.26823  0.08922  0.9454  1.0000
  O   O3        1.0  0.26711  0.5898  0.55478  1.0000
  O   O4        1.0  0.7687  0.91038  0.05498999999999998  1.0000
