data_image0
_chemical_formula_structural       Eu2H24C42O12
_chemical_formula_sum              "Eu2 H24 C42 O12"
_cell_length_a       8.37621
_cell_length_b       14.515730000000001
_cell_length_c       15.62244
_cell_angle_alpha    116.26562999999999
_cell_angle_beta     105.79776000000001
_cell_angle_gamma    89.89217

_symmetry_space_group_name_H-M    'P 1'
_symmetry_Int_Tables_number       1

loop_
  _symmetry_equiv_pos_as_xyz
  'x,y,z'

loop_
  _atom_site_type_symbol
  _atom_site_label
  _atom_site_symmetry_multiplicity
  _atom_site_fract_x
  _atom_site_fract_y
  _atom_site_fract_z
  _atom_site_occupancy
  Eu  Eu1       1.0  0.95565  0.98771  0.46008999999999994  1.0000
  Eu  Eu2       1.0  0.49710000000000004  0.013150000000000025  0.54108  1.0000
  H   H1        1.0  0.80277  0.19755  0.31858  1.0000
  H   H2        1.0  0.78858  0.36128  0.30517  1.0000
  H   H3        1.0  0.42617  0.4425900000000001  0.46844  1.0000
  H   H4        1.0  0.4459999999999999  0.2804300000000001  0.48342  1.0000
  H   H5        1.0  0.67864  0.46184  0.24835  1.0000
  H   H6        1.0  0.72125  0.63635  0.25968  1.0000
  H   H7        1.0  0.58366  0.7717700000000002  0.53098  1.0000
  H   H8        1.0  0.54714  0.59949  0.52329  1.0000
  H   H9        1.0  0.19345  0.28084000000000003  0.77606  1.0000
  H   H10       1.0  0.27236  0.4461300000000001  0.93169  1.0000
  H   H11       1.0  0.7661800000000001  0.42946  0.94657  1.0000
  H   H12       1.0  0.68958  0.2650300000000001  0.78942  1.0000
  H   H13       1.0  0.48724999999999996  0.80208  0.68109  1.0000
  H   H14       1.0  0.48584999999999995  0.63842  0.69495  1.0000
  H   H15       1.0  0.95807  0.5589  0.53163  1.0000
  H   H16       1.0  0.9635800000000001  0.7210400000000002  0.51667  1.0000
  H   H17       1.0  0.43161999999999995  0.53929  0.7525199999999999  1.0000
  H   H18       1.0  0.46393  0.36498000000000014  0.74174  1.0000
  H   H19       1.0  0.05403  0.22890000000000005  0.46923  1.0000
  H   H20       1.0  0.02426  0.40117  0.47676  1.0000
  H   H21       1.0  0.41773  0.72161  0.22541000000000003  1.0000
  H   H22       1.0  0.34215  0.5561300000000002  0.07002  1.0000
  H   H23       1.0  0.81979  0.5704900000000003  0.05340999999999999  1.0000
  H   H24       1.0  0.89978  0.73487  0.21115  1.0000
  C   C1        1.0  0.65258  0.13698  0.42217  1.0000
  C   C2        1.0  0.6286499999999999  0.22970000000000002  0.40411  1.0000
  C   C3        1.0  0.72116  0.2519600000000001  0.35132  1.0000
  C   C4        1.0  0.71159  0.34367  0.34339  1.0000
  C   C5        1.0  0.60941  0.41610000000000014  0.38773  1.0000
  C   C6        1.0  0.51116  0.39052  0.43654  1.0000
  C   C7        1.0  0.52082  0.29883  0.44467  1.0000
  C   C8        1.0  0.61353  0.5172100000000002  0.38642  1.0000
  C   C9        1.0  0.65903  0.52929  0.31099  1.0000
  C   C10       1.0  0.6808599999999999  0.62661  0.31607  1.0000
  C   C11       1.0  0.65695  0.7151900000000002  0.3962  1.0000
  C   C12       1.0  0.60411  0.70367  0.46917999999999993  1.0000
  C   C13       1.0  0.5827099999999998  0.60609  0.46411  1.0000
  C   C14       1.0  0.70381  0.8194000000000004  0.40676  1.0000
  C   C15       1.0  0.8887899999999997  0.16098000000000004  0.68037  1.0000
  C   C16       1.0  0.9369600000000001  0.2625000000000001  0.7734000000000001  1.0000
  C   C17       1.0  0.10115  0.3145299999999999  0.8141  1.0000
  C   C18       1.0  0.14477  0.4072000000000001  0.90231  1.0000
  C   C19       1.0  0.026629999999999973  0.45166000000000006  0.95328  1.0000
  C   C20       1.0  0.8612  0.3984900000000001  0.91011  1.0000
  C   C21       1.0  0.81696  0.3057  0.82213  1.0000
  C   C22       1.0  0.23352000000000006  0.86407  0.5789  1.0000
  C   C23       1.0  0.22665  0.7707800000000002  0.59599  1.0000
  C   C24       1.0  0.37245999999999996  0.74801  0.64865  1.0000
  C   C25       1.0  0.37042  0.65641  0.65667  1.0000
  C   C26       1.0  0.22306  0.5845400000000002  0.61239  1.0000
  C   C27       1.0  0.07559  0.6104700000000002  0.56344  1.0000
  C   C28       1.0  0.07747999999999998  0.7021700000000001  0.55533  1.0000
  C   C29       1.0  0.22827999999999996  0.4835500000000001  0.6139  1.0000
  C   C30       1.0  0.34955  0.4716400000000002  0.68974  1.0000
  C   C31       1.0  0.36667  0.3744200000000001  0.68498  1.0000
  C   C32       1.0  0.26243999999999995  0.28565999999999997  0.6047299999999999  1.0000
  C   C33       1.0  0.13625000000000007  0.29708  0.5313  1.0000
  C   C34       1.0  0.11950999999999999  0.3945800000000001  0.53611  1.0000
  C   C35       1.0  0.29922  0.1814700000000001  0.59453  1.0000
  C   C36       1.0  0.20876  0.8398200000000005  0.3205  1.0000
  C   C37       1.0  0.16331  0.73876  0.2271  1.0000
  C   C38       1.0  0.28735  0.68737  0.18681  1.0000
  C   C39       1.0  0.24324  0.59459  0.09875  1.0000
  C   C40       1.0  0.0739  0.5495600000000002  0.04742  1.0000
  C   C41       1.0  0.9512499999999999  0.60215  0.09022999999999999  1.0000
  C   C42       1.0  0.9945400000000001  0.69489  0.17827  1.0000
  O   O1        1.0  0.77225  0.08672999999999997  0.39799  1.0000
  O   O2        1.0  0.55707  0.11456999999999996  0.46310999999999997  1.0000
  O   O3        1.0  0.70727  0.9015100000000003  0.48789999999999994  1.0000
  O   O4        1.0  0.7541899999999999  0.82566  0.3395  1.0000
  O   O5        1.0  0.9836099999999999  0.13442999999999994  0.62454  1.0000
  O   O6        1.0  0.75447  0.10553000000000001  0.66238  1.0000
  O   O7        1.0  0.37852  0.91251  0.60188  1.0000
  O   O8        1.0  0.09694000000000003  0.8889  0.54033  1.0000
  O   O9        1.0  0.22119  0.0992  0.5135  1.0000
  O   O10       1.0  0.41792  0.17538000000000006  0.66195  1.0000
  O   O11       1.0  0.36056  0.8661600000000003  0.37557  1.0000
  O   O12       1.0  0.09288999999999996  0.8951400000000003  0.34004  1.0000
