data_image0
_chemical_formula_structural       Tb4H8C24S4N4O28
_chemical_formula_sum              "Tb4 H8 C24 S4 N4 O28"
_cell_length_a       11.1867
_cell_length_b       9.8619
_cell_length_c       15.7456
_cell_angle_alpha    94.23068
_cell_angle_beta     89.95196
_cell_angle_gamma    90.39061

_symmetry_space_group_name_H-M    'P 1'
_symmetry_Int_Tables_number       1

loop_
  _symmetry_equiv_pos_as_xyz
  'x,y,z'

loop_
  _atom_site_type_symbol
  _atom_site_label
  _atom_site_symmetry_multiplicity
  _atom_site_fract_x
  _atom_site_fract_y
  _atom_site_fract_z
  _atom_site_occupancy
  Tb  Tb1       1.0  0.9874499999999998  0.7522999999999997  0.98112  1.0000
  Tb  Tb2       1.0  0.4845999999999999  0.74858  0.5227  1.0000
  Tb  Tb3       1.0  0.01252  0.24961999999999998  0.01984  1.0000
  Tb  Tb4       1.0  0.51341  0.24953  0.47845  1.0000
  H   H1        1.0  0.7936499999999997  0.22132999999999997  0.80683  1.0000
  H   H2        1.0  0.63786  0.24401  0.68193  1.0000
  H   H3        1.0  0.29313  0.27946  0.69113  1.0000
  H   H4        1.0  0.13782999999999998  0.25699  0.81638  1.0000
  H   H5        1.0  0.20752  0.78036  0.19385  1.0000
  H   H6        1.0  0.36342  0.75667  0.31865  1.0000
  H   H7        1.0  0.7064799999999999  0.72102  0.30885  1.0000
  H   H8        1.0  0.86229  0.74472  0.18386  1.0000
  C   C1        1.0  0.9153799999999997  0.46493999999999996  0.87121  1.0000
  C   C2        1.0  0.82905  0.43876999999999994  0.8019199999999997  1.0000
  C   C3        1.0  0.7735899999999998  0.31489  0.77749  1.0000
  C   C4        1.0  0.69141  0.32677  0.71126  1.0000
  C   C5        1.0  0.68438  0.45916  0.68632  1.0000
  C   C6        1.0  0.60509  0.50632  0.62077  1.0000
  C   C7        1.0  0.41648  0.03787999999999997  0.6290599999999997  1.0000
  C   C8        1.0  0.32999  0.06346  0.69802  1.0000
  C   C9        1.0  0.27377  0.18634  0.72136  1.0000
  C   C10       1.0  0.19143999999999994  0.17439  0.78764  1.0000
  C   C11       1.0  0.18533999999999998  0.042190000000000005  0.81334  1.0000
  C   C12       1.0  0.10699999999999998  0.9934499999999999  0.87917  1.0000
  C   C13       1.0  0.08513  0.53921  0.12908  1.0000
  C   C14       1.0  0.17159  0.56336  0.19831  1.0000
  C   C15       1.0  0.22742  0.68675  0.22305999999999995  1.0000
  C   C16       1.0  0.30959  0.67422  0.28915  1.0000
  C   C17       1.0  0.31605  0.54145  0.31361  1.0000
  C   C18       1.0  0.39492  0.49361  0.37917  1.0000
  C   C19       1.0  0.58222  0.9618099999999999  0.3714  1.0000
  C   C20       1.0  0.66939  0.9370999999999999  0.30231  1.0000
  C   C21       1.0  0.72583  0.81437  0.2787599999999999  1.0000
  C   C22       1.0  0.80838  0.82688  0.21261  1.0000
  C   C23       1.0  0.8149399999999999  0.95892  0.18681999999999996  1.0000
  C   C24       1.0  0.89471  0.007750000000000002  0.12155  1.0000
  S   S1        1.0  0.7805  0.56904  0.74342  1.0000
  S   S2        1.0  0.28193  0.9334199999999998  0.7574  1.0000
  S   S3        1.0  0.21943999999999997  0.43233999999999995  0.25638  1.0000
  S   S4        1.0  0.71757  0.0673  0.24276  1.0000
  N   N1        1.0  0.7389699999999998  0.7531199999999999  0.9589999999999997  1.0000
  N   N2        1.0  0.23542999999999997  0.74704  0.5411  1.0000
  N   N3        1.0  0.26086  0.24755  0.04082  1.0000
  N   N4        1.0  0.76293  0.2527  0.45897  1.0000
  O   O1        1.0  0.9717299999999999  0.57831  0.87835  1.0000
  O   O2        1.0  0.53591  0.41971  0.5806  1.0000
  O   O3        1.0  0.7934999999999999  0.6791699999999999  0.012569999999999996  1.0000
  O   O4        1.0  0.8093599999999997  0.83269  0.91881  1.0000
  O   O5        1.0  0.6313499999999999  0.74705  0.9476099999999997  1.0000
  O   O6        1.0  0.9280899999999999  0.3710999999999999  0.92248  1.0000
  O   O7        1.0  0.60683  0.63271  0.60675  1.0000
  O   O8        1.0  0.47338  0.9258099999999999  0.62339  1.0000
  O   O9        1.0  0.03714  0.07988  0.91803  1.0000
  O   O10       1.0  0.29057999999999995  0.82119  0.48798  1.0000
  O   O11       1.0  0.30595  0.6728799999999999  0.58445  1.0000
  O   O12       1.0  0.12722  0.74706  0.54976  1.0000
  O   O13       1.0  0.42969  0.13007  0.57657  1.0000
  O   O14       1.0  0.10998999999999999  0.86767  0.89452  1.0000
  O   O15       1.0  0.027909999999999997  0.42661999999999994  0.12118  1.0000
  O   O16       1.0  0.46373999999999993  0.58062  0.41932999999999987  1.0000
  O   O17       1.0  0.20681  0.32268  0.98775  1.0000
  O   O18       1.0  0.19005  0.16761  0.08056  1.0000
  O   O19       1.0  0.36862  0.25255  0.05213  1.0000
  O   O20       1.0  0.0727  0.63426  0.07855999999999998  1.0000
  O   O21       1.0  0.39315999999999995  0.36724  0.39324  1.0000
  O   O22       1.0  0.52381  0.07318  0.37671  1.0000
  O   O23       1.0  0.9667099999999998  0.92308  0.08325  1.0000
  O   O24       1.0  0.70848  0.17856  0.51255  1.0000
  O   O25       1.0  0.69179  0.32624  0.41575  1.0000
  O   O26       1.0  0.87117  0.25304  0.4500999999999999  1.0000
  O   O27       1.0  0.56999  0.8694399999999999  0.4239399999999999  1.0000
  O   O28       1.0  0.8903399999999998  0.13332  0.10582  1.0000
