data_image0
_chemical_formula_structural       Zn4H16C24N12O8
_chemical_formula_sum              "Zn4 H16 C24 N12 O8"
_cell_length_a       8.03863
_cell_length_b       9.900229999999999
_cell_length_c       13.209999999999999
_cell_angle_alpha    110.63102
_cell_angle_beta     106.21976
_cell_angle_gamma    93.96668000000001

_symmetry_space_group_name_H-M    'P 1'
_symmetry_Int_Tables_number       1

loop_
  _symmetry_equiv_pos_as_xyz
  'x,y,z'

loop_
  _atom_site_type_symbol
  _atom_site_label
  _atom_site_symmetry_multiplicity
  _atom_site_fract_x
  _atom_site_fract_y
  _atom_site_fract_z
  _atom_site_occupancy
  Zn  Zn1       1.0  0.37936  0.13247  0.75925  1.0000
  Zn  Zn2       1.0  0.6206499999999998  0.8675300000000001  0.24075  1.0000
  Zn  Zn3       1.0  0.0  0.5  0.5  1.0000
  Zn  Zn4       1.0  0.5  0.5  0.5  1.0000
  H   H1        1.0  0.07993  0.85001  0.62457  1.0000
  H   H2        1.0  0.6068  0.8586300000000001  0.63955  1.0000
  H   H3        1.0  0.026269999999999967  0.2671  0.6267  1.0000
  H   H4        1.0  0.53809  0.26109  0.61182  1.0000
  H   H5        1.0  0.8416899999999998  0.05531000000000014  0.8324200000000002  1.0000
  H   H6        1.0  0.32196  0.9976  0.04499  1.0000
  H   H7        1.0  0.9861100000000002  0.2800599999999999  0.8297400000000001  1.0000
  H   H8        1.0  0.72249  0.55497  0.04177  1.0000
  H   H9        1.0  0.92007  0.14999  0.37543  1.0000
  H   H10       1.0  0.3932  0.14137  0.36045  1.0000
  H   H11       1.0  0.9737399999999997  0.7329  0.37329  1.0000
  H   H12       1.0  0.46192  0.73891  0.3881800000000001  1.0000
  H   H13       1.0  0.15831  0.94469  0.16758  1.0000
  H   H14       1.0  0.67805  0.002399999999999983  0.95501  1.0000
  H   H15       1.0  0.013899999999999997  0.71994  0.17026  1.0000
  H   H16       1.0  0.27752  0.44502999999999987  0.95823  1.0000
  C   C1        1.0  0.19918999999999998  0.81416  0.61109  1.0000
  C   C2        1.0  0.46771  0.81975  0.62007  1.0000
  C   C3        1.0  0.14615  0.28728  0.60781  1.0000
  C   C4        1.0  0.40551  0.2838  0.59871  1.0000
  C   C5        1.0  0.19038  0.060969999999999976  0.86075  1.0000
  C   C6        1.0  0.09092999999999998  0.02771000000000002  0.9313  1.0000
  C   C7        1.0  0.90923  0.028459999999999992  0.9045900000000001  1.0000
  C   C8        1.0  0.18151  0.99889  0.026859999999999995  1.0000
  C   C9        1.0  0.9931000000000001  0.37780000000000014  0.9033000000000001  1.0000
  C   C10       1.0  0.84486  0.5325  0.024900000000000002  1.0000
  C   C11       1.0  0.83783  0.40964999999999996  0.92792  1.0000
  C   C12       1.0  0.6655800000000001  0.31007  0.8548700000000001  1.0000
  C   C13       1.0  0.80081  0.18584  0.38891  1.0000
  C   C14       1.0  0.53229  0.18024999999999997  0.37992999999999993  1.0000
  C   C15       1.0  0.85385  0.71272  0.39219  1.0000
  C   C16       1.0  0.59449  0.7162  0.4012800000000001  1.0000
  C   C17       1.0  0.80963  0.93902  0.13925  1.0000
  C   C18       1.0  0.90908  0.97229  0.0687  1.0000
  C   C19       1.0  0.09077  0.97154  0.0954  1.0000
  C   C20       1.0  0.81849  0.0011000000000000072  0.97314  1.0000
  C   C21       1.0  0.006900000000000011  0.6222  0.09670000000000001  1.0000
  C   C22       1.0  0.15515  0.4675000000000001  0.9751  1.0000
  C   C23       1.0  0.16217  0.59035  0.07208  1.0000
  C   C24       1.0  0.33443  0.68993  0.14513  1.0000
  N   N1        1.0  0.21145999999999995  0.67524  0.55487  1.0000
  N   N2        1.0  0.38658  0.67856  0.56084  1.0000
  N   N3        1.0  0.35506999999999994  0.9071099999999999  0.65216  1.0000
  N   N4        1.0  0.16975  0.37309  0.55167  1.0000
  N   N5        1.0  0.33879  0.37048  0.54564  1.0000
  N   N6        1.0  0.28964  0.22949000000000003  0.63786  1.0000
  N   N7        1.0  0.78855  0.32476000000000005  0.44513  1.0000
  N   N8        1.0  0.61343  0.32144  0.43916  1.0000
  N   N9        1.0  0.64493  0.09289  0.34784  1.0000
  N   N10       1.0  0.83026  0.62691  0.44832999999999995  1.0000
  N   N11       1.0  0.66121  0.62952  0.45436  1.0000
  N   N12       1.0  0.71037  0.77051  0.36214  1.0000
  O   O1        1.0  0.10886999999999997  0.07945999999999999  0.76895  1.0000
  O   O2        1.0  0.35792000000000007  0.07185000000000005  0.8928700000000002  1.0000
  O   O3        1.0  0.65802  0.1925  0.76896  1.0000
  O   O4        1.0  0.52628  0.34001  0.87953  1.0000
  O   O5        1.0  0.89113  0.9205400000000001  0.23105  1.0000
  O   O6        1.0  0.64208  0.92815  0.10713  1.0000
  O   O7        1.0  0.34198  0.8075  0.23104  1.0000
  O   O8        1.0  0.47372  0.65999  0.12046  1.0000
