data_image0
_chemical_formula_structural       Al4P6H4C2O28
_chemical_formula_sum              "Al4 P6 H4 C2 O28"
_cell_length_a       8.88015
_cell_length_b       9.319410000000001
_cell_length_c       10.67932
_cell_angle_alpha    104.37647000000001
_cell_angle_beta     109.61644
_cell_angle_gamma    90.43664000000001

_symmetry_space_group_name_H-M    'P 1'
_symmetry_Int_Tables_number       1

loop_
  _symmetry_equiv_pos_as_xyz
  'x,y,z'

loop_
  _atom_site_type_symbol
  _atom_site_label
  _atom_site_symmetry_multiplicity
  _atom_site_fract_x
  _atom_site_fract_y
  _atom_site_fract_z
  _atom_site_occupancy
  Al  Al1       1.0  0.0845  0.31885  0.36307  1.0000
  Al  Al2       1.0  0.08734999999999996  0.32678  0.85637  1.0000
  Al  Al3       1.0  0.9206700000000001  0.67564  0.63627  1.0000
  Al  Al4       1.0  0.91824  0.66691  0.14333  1.0000
  P   P1        1.0  0.21338999999999997  0.45845  0.1785  1.0000
  P   P2        1.0  0.22328000000000006  0.47053  0.67677  1.0000
  P   P3        1.0  0.8836300000000001  0.00392  0.22647000000000003  1.0000
  P   P4        1.0  0.79352  0.53664  0.82112  1.0000
  P   P5        1.0  0.78214  0.5234700000000001  0.324  1.0000
  P   P6        1.0  0.11856  0.99015  0.77106  1.0000
  H   H1        1.0  0.48489000000000004  0.49123000000000006  0.25138  1.0000
  H   H2        1.0  0.6814499999999999  0.9242100000000001  0.26894  1.0000
  H   H3        1.0  0.52245  0.50214  0.74807  1.0000
  H   H4        1.0  0.324  0.07214  0.73381  1.0000
  C   C1        1.0  0.65052  0.25910999999999995  0.96829  1.0000
  C   C2        1.0  0.35504  0.73513  0.0343  1.0000
  O   O1        1.0  0.19944  0.36777  0.03222  1.0000
  O   O2        1.0  0.08922  0.57249  0.17565  1.0000
  O   O3        1.0  0.38023999999999997  0.5491200000000002  0.25081  1.0000
  O   O4        1.0  0.19127  0.3468  0.25779  1.0000
  O   O5        1.0  0.38289  0.56735  0.75028  1.0000
  O   O6        1.0  0.21685  0.36871  0.53516  1.0000
  O   O7        1.0  0.20698  0.36319  0.76372  1.0000
  O   O8        1.0  0.08061000000000006  0.56595  0.65549  1.0000
  O   O9        1.0  0.97133  0.86082  0.20061  1.0000
  O   O10       1.0  0.015669999999999993  0.1307  0.32028  1.0000
  O   O11       1.0  0.78297  0.9869900000000001  0.32243  1.0000
  O   O12       1.0  0.7779299999999999  0.027759999999999996  0.09071  1.0000
  O   O13       1.0  0.51628  0.20773000000000003  0.91143  1.0000
  O   O14       1.0  0.78416  0.31273  0.02368  1.0000
  O   O15       1.0  0.80684  0.62554  0.9675700000000002  1.0000
  O   O16       1.0  0.9181899999999998  0.42326000000000014  0.8238  1.0000
  O   O17       1.0  0.62711  0.44492999999999994  0.74839  1.0000
  O   O18       1.0  0.8152  0.64992  0.7432  1.0000
  O   O19       1.0  0.62336  0.42573  0.24875  1.0000
  O   O20       1.0  0.78598  0.6248700000000001  0.46487000000000006  1.0000
  O   O21       1.0  0.8006  0.63058  0.23749000000000003  1.0000
  O   O22       1.0  0.92585  0.42948000000000003  0.3489  1.0000
  O   O23       1.0  0.030019999999999995  0.13334000000000004  0.79417  1.0000
  O   O24       1.0  0.9873000000000001  0.86375  0.67452  1.0000
  O   O25       1.0  0.22441  0.006880000000000002  0.67906  1.0000
  O   O26       1.0  0.22116000000000008  0.9660699999999999  0.9077100000000001  1.0000
  O   O27       1.0  0.48874999999999996  0.78711  0.09352  1.0000
  O   O28       1.0  0.222  0.68076  0.9766600000000001  1.0000
