data_image0
_chemical_formula_structural       Cu6H8C8N32Cl4
_chemical_formula_sum              "Cu6 H8 C8 N32 Cl4"
_cell_length_a       8.54535
_cell_length_b       8.94473
_cell_length_c       11.71621
_cell_angle_alpha    89.42238
_cell_angle_beta     90.06102000000001
_cell_angle_gamma    90.00687

_space_group_name_H-M_alt    "P 1"
_space_group_IT_number       1

loop_
  _space_group_symop_operation_xyz
  'x, y, z'

loop_
  _atom_site_type_symbol
  _atom_site_label
  _atom_site_symmetry_multiplicity
  _atom_site_fract_x
  _atom_site_fract_y
  _atom_site_fract_z
  _atom_site_occupancy
  Cu  Cu1       1.0  0.76153  0.49999000000000005  0.72092  1.0000
  Cu  Cu2       1.0  0.23853  0.49997  0.27917  1.0000
  Cu  Cu3       1.0  0.26148  0.99964  0.77911  1.0000
  Cu  Cu4       1.0  0.7385900000000002  0.000360000000000001  0.22044999999999995  1.0000
  Cu  Cu5       1.0  0.50001  0.49999000000000005  0.5  1.0000
  Cu  Cu6       1.0  0.00285  0.0001  9e-05  1.0000
  H   H1        1.0  0.58411  0.19296  0.86332  1.0000
  H   H2        1.0  0.4141500000000001  0.19636  0.13002  1.0000
  H   H3        1.0  0.08377000000000002  0.30662  0.63661  1.0000
  H   H4        1.0  0.91503  0.30374  0.36993  1.0000
  H   H5        1.0  0.41603  0.80698  0.1367  1.0000
  H   H6        1.0  0.58593  0.80373  0.86998  1.0000
  H   H7        1.0  0.9159700000000002  0.69347  0.3632199999999999  1.0000
  H   H8        1.0  0.08487  0.69623  0.63001  1.0000
  C   C1        1.0  0.5349  0.22797  0.78173  1.0000
  C   C2        1.0  0.4643500000000001  0.229  0.21124  1.0000
  C   C3        1.0  0.03495  0.2716799999999999  0.71826  1.0000
  C   C4        1.0  0.9646100000000001  0.27138  0.28845  1.0000
  C   C5        1.0  0.4652  0.77201  0.21828999999999998  1.0000
  C   C6        1.0  0.5357  0.77102  0.7887599999999999  1.0000
  C   C7        1.0  0.96502  0.72833  0.28161  1.0000
  C   C8        1.0  0.03541  0.72863  0.71151  1.0000
  N   N1        1.0  0.5860300000000003  0.34102  0.71579  1.0000
  N   N2        1.0  0.49167000000000005  0.3418  0.6232199999999999  1.0000
  N   N3        1.0  0.38748000000000005  0.23483  0.63039  1.0000
  N   N4        1.0  0.41304  0.16208  0.72957  1.0000
  N   N5        1.0  0.41477000000000014  0.34088  0.27728  1.0000
  N   N6        1.0  0.50854  0.3384499999999999  0.37023  1.0000
  N   N7        1.0  0.61126  0.23056  0.36298  1.0000
  N   N8        1.0  0.58533  0.16059  0.26351  1.0000
  N   N9        1.0  0.08640000000000003  0.15856  0.78404  1.0000
  N   N10       1.0  0.9927000000000001  0.15782999999999997  0.8768  1.0000
  N   N11       1.0  0.88855  0.26489  0.86989  1.0000
  N   N12       1.0  0.91355  0.33772  0.77068  1.0000
  N   N13       1.0  0.91426  0.16007  0.2221  1.0000
  N   N14       1.0  0.0078000000000000005  0.16261  0.12914  1.0000
  N   N15       1.0  0.11099  0.27009  0.1367  1.0000
  N   N16       1.0  0.08565  0.33964  0.23634  1.0000
  N   N17       1.0  0.4140200000000001  0.6589899999999999  0.28423  1.0000
  N   N18       1.0  0.50837  0.6582  0.37679999999999997  1.0000
  N   N19       1.0  0.61259  0.76516  0.36963999999999997  1.0000
  N   N20       1.0  0.58708  0.8379  0.27044  1.0000
  N   N21       1.0  0.58526  0.65911  0.72275  1.0000
  N   N22       1.0  0.49151000000000006  0.6615  0.62979  1.0000
  N   N23       1.0  0.38882000000000005  0.7694000000000001  0.6369899999999998  1.0000
  N   N24       1.0  0.4147400000000001  0.8394099999999999  0.73643  1.0000
  N   N25       1.0  0.91407  0.8416  0.21574999999999997  1.0000
  N   N26       1.0  0.0083  0.84219  0.12323999999999999  1.0000
  N   N27       1.0  0.11209000000000002  0.73489  0.13037999999999997  1.0000
  N   N28       1.0  0.0865  0.66206  0.22945  1.0000
  N   N29       1.0  0.08595000000000001  0.83989  0.7778299999999999  1.0000
  N   N30       1.0  0.9926  0.83747  0.87088  1.0000
  N   N31       1.0  0.88929  0.7300699999999999  0.8634299999999998  1.0000
  N   N32       1.0  0.9144  0.66047  0.76374  1.0000
  Cl  Cl1       1.0  0.79918  0.49886  0.51735  1.0000
  Cl  Cl2       1.0  0.20086000000000007  0.50113  0.4827299999999999  1.0000
  Cl  Cl3       1.0  0.29956  0.0012500000000000022  0.9830099999999998  1.0000
  Cl  Cl4       1.0  0.70114  0.99872  0.01698  1.0000
