data_image0
_chemical_formula_structural       Cd4H12C40O32
_chemical_formula_sum              "Cd4 H12 C40 O32"
_cell_length_a       7.95449
_cell_length_b       11.17317
_cell_length_c       19.54639
_cell_angle_alpha    90.021
_cell_angle_beta     101.0541
_cell_angle_gamma    90.05821

_symmetry_space_group_name_H-M    'P 1'
_symmetry_Int_Tables_number       1

loop_
  _symmetry_equiv_pos_as_xyz
  'x,y,z'

loop_
  _atom_site_type_symbol
  _atom_site_label
  _atom_site_symmetry_multiplicity
  _atom_site_fract_x
  _atom_site_fract_y
  _atom_site_fract_z
  _atom_site_occupancy
  Cd  Cd1       1.0  0.84894  0.9999899999999999  0.0755  1.0000
  Cd  Cd2       1.0  0.65188  0.49991  0.4239800000000001  1.0000
  Cd  Cd3       1.0  0.15103999999999998  1.999999999999986e-05  0.9245099999999999  1.0000
  Cd  Cd4       1.0  0.3481100000000001  0.50009  0.57602  1.0000
  H   H1        1.0  0.45361  0.06455999999999999  0.16242  1.0000
  H   H2        1.0  0.47173999999999994  0.24121999999999993  0.36909  1.0000
  H   H3        1.0  0.84758  0.24106999999999998  0.2695  1.0000
  H   H4        1.0  0.04609000000000003  0.56229  0.33736  1.0000
  H   H5        1.0  0.02784  0.7404599999999999  0.13081  1.0000
  H   H6        1.0  0.6518  0.74153  0.23064  1.0000
  H   H7        1.0  0.5463699999999999  0.9354499999999999  0.8375799999999999  1.0000
  H   H8        1.0  0.52825  0.7587899999999999  0.63091  1.0000
  H   H9        1.0  0.15241000000000005  0.75894  0.73051  1.0000
  H   H10       1.0  0.9538900000000001  0.43771999999999994  0.66264  1.0000
  H   H11       1.0  0.97215  0.25954  0.8691999999999999  1.0000
  H   H12       1.0  0.34819  0.25848  0.76936  1.0000
  C   C1        1.0  0.09780000000000003  0.18096999999999996  0.25654  1.0000
  C   C2        1.0  0.27606000000000014  0.18336999999999995  0.28414  1.0000
  C   C3        1.0  0.3354  0.24335  0.34683  1.0000
  C   C4        1.0  0.22372  0.30856  0.37974  1.0000
  C   C5        1.0  0.04613000000000002  0.3097  0.35081  1.0000
  C   C6        1.0  0.9846299999999999  0.24357999999999996  0.29045  1.0000
  C   C7        1.0  0.022149999999999993  0.11186  0.1929  1.0000
  C   C8        1.0  0.4073500000000001  0.12482999999999998  0.24959000000000003  1.0000
  C   C9        1.0  0.29452000000000006  0.3734  0.44573000000000007  1.0000
  C   C10       1.0  0.9180800000000002  0.3830199999999999  0.37948  1.0000
  C   C11       1.0  0.4020200000000001  0.68009  0.24317999999999998  1.0000
  C   C12       1.0  0.22380000000000005  0.68193  0.21568  1.0000
  C   C13       1.0  0.16411000000000006  0.74234  0.15321  1.0000
  C   C14       1.0  0.2755200000000001  0.8077599999999998  0.12027  1.0000
  C   C15       1.0  0.4532800000000001  0.80933  0.14906  1.0000
  C   C16       1.0  0.51491  0.74337  0.20940000000000003  1.0000
  C   C17       1.0  0.47775  0.61131  0.30687  1.0000
  C   C18       1.0  0.09350000000000003  0.6222599999999999  0.25022  1.0000
  C   C19       1.0  0.20397  0.8719199999999999  0.05422  1.0000
  C   C20       1.0  0.5810400000000002  0.8834999999999998  0.1206  1.0000
  C   C21       1.0  0.90218  0.8190399999999998  0.74346  1.0000
  C   C22       1.0  0.7239300000000002  0.81664  0.71586  1.0000
  C   C23       1.0  0.66458  0.75666  0.65317  1.0000
  C   C24       1.0  0.77627  0.6914499999999999  0.62026  1.0000
  C   C25       1.0  0.9538500000000002  0.6903099999999999  0.64919  1.0000
  C   C26       1.0  0.015359999999999978  0.7564299999999999  0.70955  1.0000
  C   C27       1.0  0.9778400000000003  0.88814  0.8071  1.0000
  C   C28       1.0  0.5926400000000002  0.8751699999999999  0.75041  1.0000
  C   C29       1.0  0.70547  0.62661  0.55427  1.0000
  C   C30       1.0  0.08191000000000005  0.61698  0.62053  1.0000
  C   C31       1.0  0.5979700000000002  0.31992  0.75682  1.0000
  C   C32       1.0  0.7761900000000003  0.31807  0.78433  1.0000
  C   C33       1.0  0.8358799999999998  0.25766  0.8467899999999999  1.0000
  C   C34       1.0  0.72447  0.19224  0.87973  1.0000
  C   C35       1.0  0.54671  0.19068  0.85094  1.0000
  C   C36       1.0  0.4850700000000001  0.2566399999999999  0.7906  1.0000
  C   C37       1.0  0.5222400000000003  0.3886899999999999  0.69313  1.0000
  C   C38       1.0  0.9064900000000002  0.3777499999999999  0.74978  1.0000
  C   C39       1.0  0.7960199999999998  0.12808999999999998  0.9457799999999998  1.0000
  C   C40       1.0  0.41894999999999993  0.1165  0.8793999999999998  1.0000
  O   O1        1.0  0.9497600000000003  0.16968  0.13915  1.0000
  O   O2        1.0  0.022949999999999988  0.9984199999999999  0.1942  1.0000
  O   O3        1.0  0.35836  0.1092  0.18135  1.0000
  O   O4        1.0  0.5480300000000002  0.09641  0.28406  1.0000
  O   O5        1.0  0.4557200000000001  0.38557999999999987  0.46539  1.0000
  O   O6        1.0  0.18813000000000005  0.41171  0.48189  1.0000
  O   O7        1.0  0.9088900000000002  0.49567  0.36837  1.0000
  O   O8        1.0  0.8113200000000003  0.32899  0.40919  1.0000
  O   O9        1.0  0.54988  0.66951  0.36057  1.0000
  O   O10       1.0  0.47734999999999994  0.49770999999999993  0.30564  1.0000
  O   O11       1.0  0.14201  0.60623  0.31837  1.0000
  O   O12       1.0  0.9529400000000001  0.59317  0.21551999999999996  1.0000
  O   O13       1.0  0.04271000000000001  0.8837699999999998  0.03457  1.0000
  O   O14       1.0  0.31023  0.90977  0.01788  1.0000
  O   O15       1.0  0.5899300000000002  0.99584  0.13213  1.0000
  O   O16       1.0  0.6880400000000002  0.8305799999999998  0.09061  1.0000
  O   O17       1.0  0.05023  0.8303199999999998  0.86086  1.0000
  O   O18       1.0  0.9770300000000002  0.0015799999999999998  0.8058  1.0000
  O   O19       1.0  0.64163  0.8907999999999998  0.81865  1.0000
  O   O20       1.0  0.4519599999999999  0.9035899999999998  0.71595  1.0000
  O   O21       1.0  0.5442700000000003  0.61443  0.53461  1.0000
  O   O22       1.0  0.81186  0.5882899999999999  0.51811  1.0000
  O   O23       1.0  0.09109000000000006  0.50433  0.63163  1.0000
  O   O24       1.0  0.18867000000000003  0.67101  0.59082  1.0000
  O   O25       1.0  0.45011  0.33049  0.63944  1.0000
  O   O26       1.0  0.52264  0.5023  0.69436  1.0000
  O   O27       1.0  0.8579700000000002  0.39377999999999996  0.68163  1.0000
  O   O28       1.0  0.04703999999999997  0.40684  0.78448  1.0000
  O   O29       1.0  0.9572800000000002  0.11623999999999998  0.96543  1.0000
  O   O30       1.0  0.68976  0.09023999999999997  0.9821200000000001  1.0000
  O   O31       1.0  0.41006000000000004  0.004159999999999999  0.86787  1.0000
  O   O32       1.0  0.31194999999999995  0.16943  0.9093899999999999  1.0000
