data_image0
_chemical_formula_structural       Mn2H4C16S4N8O8
_chemical_formula_sum              "Mn2 H4 C16 S4 N8 O8"
_cell_length_a       4.25968
_cell_length_b       12.43585
_cell_length_c       12.51715
_cell_angle_alpha    82.55034000000002
_cell_angle_beta     56.71753999999999
_cell_angle_gamma    56.99267

_symmetry_space_group_name_H-M    'P 1'
_symmetry_Int_Tables_number       1

loop_
  _symmetry_equiv_pos_as_xyz
  'x,y,z'

loop_
  _atom_site_type_symbol
  _atom_site_label
  _atom_site_symmetry_multiplicity
  _atom_site_fract_x
  _atom_site_fract_y
  _atom_site_fract_z
  _atom_site_occupancy
  Mn  Mn1       1.0  0.024140000000000116  0.98007  0.99434  1.0000
  Mn  Mn2       1.0  0.21160000000000018  0.51077  0.5225499999999998  1.0000
  H   H1        1.0  0.22681000000000023  0.2922  0.8216499999999999  1.0000
  H   H2        1.0  0.026460000000000077  0.6773  0.20879999999999999  1.0000
  H   H3        1.0  0.62825  0.16358  0.33776  1.0000
  H   H4        1.0  0.09738000000000002  0.84571  0.66815  1.0000
  C   C1        1.0  0.15832999999999992  0.13761  0.79605  1.0000
  C   C2        1.0  0.1538299999999999  0.82716  0.18908999999999995  1.0000
  C   C3        1.0  0.5876900000000003  0.21362999999999996  0.17256999999999997  1.0000
  C   C4        1.0  0.16382000000000033  0.78649  0.8295299999999999  1.0000
  C   C5        1.0  0.08386999999999993  0.70571  0.36405  1.0000
  C   C6        1.0  0.10183000000000007  0.31103  0.6725799999999998  1.0000
  C   C7        1.0  0.6523299999999999  0.33261  0.28919999999999996  1.0000
  C   C8        1.0  0.06789000000000006  0.67544  0.71457  1.0000
  C   C9        1.0  0.9495500000000006  0.16657999999999998  0.6547299999999999  1.0000
  C   C10       1.0  0.2515900000000004  0.23785999999999996  0.7538499999999999  1.0000
  C   C11       1.0  0.3067599999999999  0.84523  0.33237  1.0000
  C   C12       1.0  0.9968300000000004  0.74676  0.26309999999999995  1.0000
  C   C13       1.0  0.6078700000000004  0.39056  0.11735  1.0000
  C   C14       1.0  0.6237600000000001  0.22964  0.27314  1.0000
  C   C15       1.0  0.14093000000000017  0.6096199999999999  0.88044  1.0000
  C   C16       1.0  0.10774000000000014  0.77673  0.7307  1.0000
  S   S1        1.0  0.3136400000000001  0.03853000000000001  0.49776999999999993  1.0000
  S   S2        1.0  0.9415200000000002  0.0024299999999999778  0.46058999999999994  1.0000
  S   S3        1.0  0.59957  0.50049  0.01149  1.0000
  S   S4        1.0  0.16198999999999986  0.49502  0.98046  1.0000
  N   N1        1.0  0.027640000000000144  0.10095  0.74121  1.0000
  N   N2        1.0  0.2738500000000001  0.8837599999999999  0.22979  1.0000
  N   N3        1.0  0.5531400000000001  0.30228  0.09594999999999997  1.0000
  N   N4        1.0  0.19050999999999993  0.69717  0.90594  1.0000
  N   N5        1.0  0.22239000000000014  0.7592  0.3986  1.0000
  N   N6        1.0  0.98336  0.26948  0.61621  1.0000
  N   N7        1.0  0.6701599999999999  0.41192000000000006  0.20297  1.0000
  N   N8        1.0  0.07577000000000035  0.5902399999999999  0.7950299999999999  1.0000
  O   O1        1.0  0.2137400000000001  0.08409  0.8868  1.0000
  O   O2        1.0  0.14895  0.84434  0.08478  1.0000
  O   O3        1.0  0.5676300000000001  0.11708  0.15226999999999996  1.0000
  O   O4        1.0  0.20542  0.87814  0.84691  1.0000
  O   O5        1.0  0.01470999999999983  0.6174  0.42051  1.0000
  O   O6        1.0  0.10950000000000061  0.41544999999999993  0.6548799999999998  1.0000
  O   O7        1.0  0.6759100000000002  0.35344  0.38419  1.0000
  O   O8        1.0  0.014770000000000089  0.66204  0.62489  1.0000
