data_image0
_chemical_formula_structural       La2H24C42O12
_chemical_formula_sum              "La2 H24 C42 O12"
_cell_length_a       8.49603
_cell_length_b       14.60902
_cell_length_c       14.744300000000003
_cell_angle_alpha    114.93667000000002
_cell_angle_beta     107.05135
_cell_angle_gamma    89.85610000000001

_symmetry_space_group_name_H-M    'P 1'
_symmetry_Int_Tables_number       1

loop_
  _symmetry_equiv_pos_as_xyz
  'x,y,z'

loop_
  _atom_site_type_symbol
  _atom_site_label
  _atom_site_symmetry_multiplicity
  _atom_site_fract_x
  _atom_site_fract_y
  _atom_site_fract_z
  _atom_site_occupancy
  La  La1       1.0  0.95064  0.9875599999999998  0.4579400000000001  1.0000
  La  La2       1.0  0.49441000000000007  0.01308999999999999  0.54366  1.0000
  H   H1        1.0  0.79979  0.20414  0.31549  1.0000
  H   H2        1.0  0.7862  0.36555  0.29799  1.0000
  H   H3        1.0  0.4324800000000001  0.44586000000000003  0.4683600000000001  1.0000
  H   H4        1.0  0.45094999999999996  0.2856299999999999  0.48693  1.0000
  H   H5        1.0  0.67444  0.4666399999999999  0.23542  1.0000
  H   H6        1.0  0.71395  0.63916  0.24505000000000002  1.0000
  H   H7        1.0  0.58336  0.76837  0.52987  1.0000
  H   H8        1.0  0.55274  0.59834  0.52466  1.0000
  H   H9        1.0  0.17289000000000004  0.27882999999999997  0.7710300000000001  1.0000
  H   H10       1.0  0.24385999999999997  0.4536199999999999  0.917  1.0000
  H   H11       1.0  0.7820100000000001  0.41741  0.9725100000000002  1.0000
  H   H12       1.0  0.70804  0.24462  0.8211800000000001  1.0000
  H   H13       1.0  0.4919000000000002  0.7941  0.6862200000000003  1.0000
  H   H14       1.0  0.49107999999999996  0.6329199999999998  0.70378  1.0000
  H   H15       1.0  0.96555  0.55652  0.53158  1.0000
  H   H16       1.0  0.96938  0.7164399999999997  0.51257  1.0000
  H   H17       1.0  0.44009999999999994  0.5336999999999997  0.76662  1.0000
  H   H18       1.0  0.47155  0.36103999999999997  0.7563000000000002  1.0000
  H   H19       1.0  0.053810000000000066  0.2323  0.4709700000000001  1.0000
  H   H20       1.0  0.027050000000000074  0.4028  0.47665000000000013  1.0000
  H   H21       1.0  0.399  0.7236499999999998  0.23269  1.0000
  H   H22       1.0  0.3269999999999999  0.5493299999999998  0.08597  1.0000
  H   H23       1.0  0.80692  0.5821599999999998  0.02594  1.0000
  H   H24       1.0  0.88105  0.7543199999999998  0.17819  1.0000
  C   C1        1.0  0.65227  0.1435  0.42373  1.0000
  C   C2        1.0  0.6299000000000001  0.23571000000000006  0.4045200000000001  1.0000
  C   C3        1.0  0.7203399999999999  0.25799  0.34883  1.0000
  C   C4        1.0  0.7108  0.34839  0.33855  1.0000
  C   C5        1.0  0.61079  0.4195099999999999  0.38369  1.0000
  C   C6        1.0  0.51513  0.3942799999999999  0.43565000000000004  1.0000
  C   C7        1.0  0.52413  0.30370999999999987  0.44576  1.0000
  C   C8        1.0  0.6142  0.51942  0.38080000000000014  1.0000
  C   C9        1.0  0.65616  0.53243  0.30081  1.0000
  C   C10       1.0  0.67634  0.6285999999999998  0.30485  1.0000
  C   C11       1.0  0.65319  0.7148599999999998  0.38839000000000007  1.0000
  C   C12       1.0  0.6035299999999999  0.70226  0.46558  1.0000
  C   C13       1.0  0.58513  0.60595  0.46187  1.0000
  C   C14       1.0  0.6964799999999999  0.8173699999999998  0.39722  1.0000
  C   C15       1.0  0.8888199999999998  0.14864  0.6945  1.0000
  C   C16       1.0  0.93583  0.25108  0.78665  1.0000
  C   C17       1.0  0.08778000000000011  0.3101499999999999  0.8152000000000003  1.0000
  C   C18       1.0  0.12792999999999996  0.40773  0.89825  1.0000
  C   C19       1.0  0.018219999999999993  0.4489299999999999  0.95607  1.0000
  C   C20       1.0  0.8668900000000002  0.38827000000000006  0.9274600000000001  1.0000
  C   C21       1.0  0.82568  0.2908800000000001  0.8439000000000002  1.0000
  C   C22       1.0  0.23769999999999997  0.8577999999999998  0.57843  1.0000
  C   C23       1.0  0.23180000000000006  0.7649  0.5964  1.0000
  C   C24       1.0  0.37743999999999994  0.7414399999999998  0.65253  1.0000
  C   C25       1.0  0.37576999999999994  0.6511699999999998  0.66291  1.0000
  C   C26       1.0  0.22894000000000006  0.5811999999999998  0.61748  1.0000
  C   C27       1.0  0.08205  0.6073499999999997  0.56474  1.0000
  C   C28       1.0  0.08331  0.6977999999999998  0.55442  1.0000
  C   C29       1.0  0.23385  0.4813599999999999  0.6207  1.0000
  C   C30       1.0  0.35625000000000007  0.46803  0.7009000000000001  1.0000
  C   C31       1.0  0.37313  0.37175999999999987  0.69652  1.0000
  C   C32       1.0  0.2661  0.28571  0.61252  1.0000
  C   C33       1.0  0.13808999999999996  0.2986  0.53547  1.0000
  C   C34       1.0  0.12287999999999996  0.39503  0.53949  1.0000
  C   C35       1.0  0.3002899999999999  0.18301999999999993  0.60303  1.0000
  C   C36       1.0  0.18898  0.8520799999999997  0.30729  1.0000
  C   C37       1.0  0.14475  0.7497999999999998  0.21483  1.0000
  C   C38       1.0  0.26976  0.6917299999999997  0.18741  1.0000
  C   C39       1.0  0.22862  0.5944399999999997  0.10397000000000003  1.0000
  C   C40       1.0  0.06129  0.55243  0.04449000000000001  1.0000
  C   C41       1.0  0.93679  0.6119199999999998  0.07215  1.0000
  C   C42       1.0  0.97738  0.7090799999999998  0.15618  1.0000
  O   O1        1.0  0.76949  0.09294999999999998  0.39937  1.0000
  O   O2        1.0  0.5567  0.12009  0.46543  1.0000
  O   O3        1.0  0.6981699999999997  0.8986299999999998  0.48159  1.0000
  O   O4        1.0  0.74626  0.8251899999999998  0.32738000000000006  1.0000
  O   O5        1.0  0.98201  0.11975  0.6363800000000001  1.0000
  O   O6        1.0  0.7545299999999998  0.09480999999999995  0.67677  1.0000
  O   O7        1.0  0.38069000000000014  0.9078499999999997  0.6055200000000001  1.0000
  O   O8        1.0  0.10181  0.8824999999999997  0.53534  1.0000
  O   O9        1.0  0.21549999999999997  0.10209999999999998  0.51891  1.0000
  O   O10       1.0  0.42157  0.17485999999999988  0.67254  1.0000
  O   O11       1.0  0.34006  0.8797499999999998  0.36784  1.0000
  O   O12       1.0  0.07278000000000005  0.9069600000000001  0.32276000000000005  1.0000
