data_image0
_chemical_formula_structural       Ni4H12C36O24
_chemical_formula_sum              "Ni4 H12 C36 O24"
_cell_length_a       9.94906
_cell_length_b       9.91596
_cell_length_c       19.59592
_cell_angle_alpha    90.0599
_cell_angle_beta     89.90074
_cell_angle_gamma    105.90438

_space_group_name_H-M_alt    "P 1"
_space_group_IT_number       1

loop_
  _space_group_symop_operation_xyz
  'x, y, z'

loop_
  _atom_site_type_symbol
  _atom_site_label
  _atom_site_symmetry_multiplicity
  _atom_site_fract_x
  _atom_site_fract_y
  _atom_site_fract_z
  _atom_site_occupancy
  Ni  Ni1       1.0  0.42928  0.31642  0.26873  1.0000
  Ni  Ni2       1.0  0.56348  0.67681  0.76904  1.0000
  Ni  Ni3       1.0  0.67676  0.56327  0.23111000000000004  1.0000
  Ni  Ni4       1.0  0.31687  0.42958  0.73143  1.0000
  H   H1        1.0  0.7306  0.6670099999999999  0.39322  1.0000
  H   H2        1.0  0.9922699999999999  0.36095  0.25077  1.0000
  H   H3        1.0  0.26259  0.32741  0.89435  1.0000
  H   H4        1.0  0.0016499999999999987  0.63047  0.74956  1.0000
  H   H5        1.0  0.3303  0.26318  0.10758  1.0000
  H   H6        1.0  0.63112  0.00145  0.25044  1.0000
  H   H7        1.0  0.66623  0.7297299999999999  0.60753  1.0000
  H   H8        1.0  0.36034  0.9922699999999999  0.74925  1.0000
  H   H9        1.0  0.3859  0.38572  0.49989  1.0000
  H   H10       1.0  0.61044  0.60786  0.99954  1.0000
  H   H11       1.0  0.04627999999999999  0.94353  0.25052  1.0000
  H   H12       1.0  0.9440399999999999  0.046759999999999996  0.74946  1.0000
  C   C1        1.0  0.67034  0.63503  0.43981000000000003  1.0000
  C   C2        1.0  0.50801  0.43593  0.37664  1.0000
  C   C3        1.0  0.55367  0.51751  0.4399  1.0000
  C   C4        1.0  0.1872  0.22091  0.25363  1.0000
  C   C5        1.0  0.9472699999999998  0.24787  0.25075  1.0000
  C   C6        1.0  0.03467  0.15842  0.2511  1.0000
  C   C7        1.0  0.32364  0.35962  0.9404499999999999  1.0000
  C   C8        1.0  0.48491999999999996  0.56045  0.8777  1.0000
  C   C9        1.0  0.44041  0.47759  0.94061  1.0000
  C   C10       1.0  0.8052100000000001  0.76936  0.75223  1.0000
  C   C11       1.0  0.04560999999999996  0.74369  0.7494  1.0000
  C   C12       1.0  0.95748  0.83247  0.74958  1.0000
  C   C13       1.0  0.36195  0.32302  0.061  1.0000
  C   C14       1.0  0.56298  0.4850999999999999  0.12242000000000001  1.0000
  C   C15       1.0  0.48021  0.43945999999999996  0.0598  1.0000
  C   C16       1.0  0.76963  0.80448  0.24767999999999998  1.0000
  C   C17       1.0  0.744  0.04534  0.25055  1.0000
  C   C18       1.0  0.83251  0.95692  0.2504  1.0000
  C   C19       1.0  0.6346  0.66961  0.56087  1.0000
  C   C20       1.0  0.43541  0.50741  0.62348  1.0000
  C   C21       1.0  0.51728  0.55296  0.5604  1.0000
  C   C22       1.0  0.22160000000000002  0.18776  0.74648  1.0000
  C   C23       1.0  0.24762  0.94739  0.74925  1.0000
  C   C24       1.0  0.15852  0.03512  0.749  1.0000
  C   C25       1.0  0.83274  0.83385  0.50119  1.0000
  C   C26       1.0  0.71018  0.71017  0.50047  1.0000
  C   C27       1.0  0.47691  0.47664999999999996  0.50006  1.0000
  C   C28       1.0  0.15206  0.15132  0.00149  1.0000
  C   C29       1.0  0.28587  0.28435999999999995  0.0009399999999999999  1.0000
  C   C30       1.0  0.51934  0.51713  0.99996  1.0000
  C   C31       1.0  0.97804  0.01267  0.25073  1.0000
  C   C32       1.0  0.7076  0.28549  0.25065  1.0000
  C   C33       1.0  0.80195  0.19097  0.25063  1.0000
  C   C34       1.0  0.013129999999999946  0.9784699999999998  0.74933  1.0000
  C   C35       1.0  0.28568  0.70773  0.74936  1.0000
  C   C36       1.0  0.19078  0.80166  0.74931  1.0000
  O   O1        1.0  0.90059  0.88696  0.44804  1.0000
  O   O2        1.0  0.42658  0.31328999999999996  0.37762  1.0000
  O   O3        1.0  0.27439  0.14846  0.24222000000000002  1.0000
  O   O4        1.0  0.23968  0.3509  0.26898  1.0000
  O   O5        1.0  0.57897  0.22714  0.26258  1.0000
  O   O6        1.0  0.54736  0.49306  0.31741  1.0000
  O   O7        1.0  0.10723000000000002  0.11961  0.9425  1.0000
  O   O8        1.0  0.56701  0.68267  0.87887  1.0000
  O   O9        1.0  0.71755  0.84109  0.74036  1.0000
  O   O10       1.0  0.7527  0.63988  0.76821  1.0000
  O   O11       1.0  0.41437999999999997  0.7665499999999998  0.76121  1.0000
  O   O12       1.0  0.44427999999999995  0.50505  0.81822  1.0000
  O   O13       1.0  0.12034  0.10748999999999999  0.06069000000000001  1.0000
  O   O14       1.0  0.68538  0.56629  0.12119  1.0000
  O   O15       1.0  0.84012  0.71553  0.25966  1.0000
  O   O16       1.0  0.6405  0.7515999999999999  0.23151  1.0000
  O   O17       1.0  0.76633  0.41496  0.23872  1.0000
  O   O18       1.0  0.50654  0.44600999999999996  0.18202  1.0000
  O   O19       1.0  0.8827599999999999  0.90026  0.55526  1.0000
  O   O20       1.0  0.31297  0.42641  0.62242  1.0000
  O   O21       1.0  0.15097  0.27663  0.75804  1.0000
  O   O22       1.0  0.35127  0.24033  0.73094  1.0000
  O   O23       1.0  0.22741999999999998  0.57838  0.73734  1.0000
  O   O24       1.0  0.49207  0.5468  0.68285  1.0000
