data_image0
_chemical_formula_structural       Cu2H8C12N8
_chemical_formula_sum              "Cu2 H8 C12 N8"
_cell_length_a       7.59215
_cell_length_b       8.795070000000003
_cell_length_c       9.68313
_cell_angle_alpha    116.83344999999998
_cell_angle_beta     112.98814
_cell_angle_gamma    90.08377

_symmetry_space_group_name_H-M    'P 1'
_symmetry_Int_Tables_number       1

loop_
  _symmetry_equiv_pos_as_xyz
  'x,y,z'

loop_
  _atom_site_type_symbol
  _atom_site_label
  _atom_site_symmetry_multiplicity
  _atom_site_fract_x
  _atom_site_fract_y
  _atom_site_fract_z
  _atom_site_occupancy
  Cu  Cu1       1.0  0.0  1e-05  0.0  1.0000
  Cu  Cu2       1.0  0.4999999999999999  1e-05  0.0  1.0000
  H   H1        1.0  0.21007999999999993  0.007260000000000014  0.35028  1.0000
  H   H2        1.0  0.28939999999999994  0.65661  0.64876  1.0000
  H   H3        1.0  0.3596299999999998  0.99343  0.6497599999999998  1.0000
  H   H4        1.0  0.14053999999999991  0.34397999999999995  0.3501399999999999  1.0000
  H   H5        1.0  0.7899099999999999  0.9927500000000001  0.6497099999999998  1.0000
  H   H6        1.0  0.7106  0.34341  0.35125  1.0000
  H   H7        1.0  0.64036  0.006580000000000001  0.35023  1.0000
  H   H8        1.0  0.8594599999999998  0.65604  0.6498699999999997  1.0000
  C   C1        1.0  0.05770999999999994  0.005009999999999943  0.3239899999999999  1.0000
  C   C2        1.0  0.44196999999999975  0.6806999999999999  0.6755199999999998  1.0000
  C   C3        1.0  0.23348  0.99543  0.67606  1.0000
  C   C4        1.0  0.26666  0.31950999999999996  0.32390999999999986  1.0000
  C   C5        1.0  0.94228  0.9950100000000001  0.676  1.0000
  C   C6        1.0  0.55803  0.31932  0.32449  1.0000
  C   C7        1.0  0.76651  0.004579999999999955  0.3239299999999999  1.0000
  C   C8        1.0  0.73334  0.68051  0.6761  1.0000
  C   C9        1.0  0.9596199999999999  0.0013799999999999364  0.4191899999999999  1.0000
  C   C10       1.0  0.5401999999999998  0.5821  0.5807  1.0000
  C   C11       1.0  0.04037000000000006  0.99863  0.5808  1.0000
  C   C12       1.0  0.4597999999999999  0.41791999999999996  0.4193099999999999  1.0000
  N   N1        1.0  0.9316399999999998  0.010639999999999997  0.18257  1.0000
  N   N2        1.0  0.56789  0.8274699999999998  0.8168299999999997  1.0000
  N   N3        1.0  0.2486099999999999  0.9896799999999999  0.8175199999999998  1.0000
  N   N4        1.0  0.2516399999999999  0.17266999999999993  0.18281999999999995  1.0000
  N   N5        1.0  0.06834999999999998  0.9893800000000001  0.81743  1.0000
  N   N6        1.0  0.4321  0.17255  0.18317  1.0000
  N   N7        1.0  0.75139  0.010339999999999972  0.18247999999999995  1.0000
  N   N8        1.0  0.7483599999999998  0.8273599999999999  0.8171799999999998  1.0000
