data_image0
_chemical_formula_structural       Mg3H24C42O18
_chemical_formula_sum              "Mg3 H24 C42 O18"
_cell_length_a       8.50437
_cell_length_b       17.47293
_cell_length_c       17.47628
_cell_angle_alpha    119.97929
_cell_angle_beta     89.99451
_cell_angle_gamma    89.9125

_space_group_name_H-M_alt    "P 1"
_space_group_IT_number       1

loop_
  _space_group_symop_operation_xyz
  'x, y, z'

loop_
  _atom_site_type_symbol
  _atom_site_label
  _atom_site_symmetry_multiplicity
  _atom_site_fract_x
  _atom_site_fract_y
  _atom_site_fract_z
  _atom_site_occupancy
  Mg  Mg1       1.0  0.66877  0.53221  0.53248  1.0000
  Mg  Mg2       1.0  0.3317  0.46767  0.00019999999999999996  1.0000
  Mg  Mg3       1.0  0.00012000000000000015  0.0001099999999999655  0.4677099999999999  1.0000
  H   H1        1.0  0.55197  0.69668  0.80865  1.0000
  H   H2        1.0  0.5335  0.23315  0.19943  1.0000
  H   H3        1.0  0.88245  0.11076999999999998  0.30332  1.0000
  H   H4        1.0  0.84769  0.14092000000000005  0.57864  1.0000
  H   H5        1.0  0.13397  0.03392999999999998  0.80102  1.0000
  H   H6        1.0  0.48391999999999996  0.57831  0.14082999999999996  1.0000
  H   H7        1.0  0.3207199999999999  0.69092  0.23962999999999995  1.0000
  H   H8        1.0  0.81819  0.56254  0.4215199999999999  1.0000
  H   H9        1.0  0.44804  0.3035  0.11199999999999997  1.0000
  H   H10       1.0  0.9850399999999999  0.76092  0.4512699999999999  1.0000
  H   H11       1.0  0.01494  0.23946000000000003  0.69066  1.0000
  H   H12       1.0  0.19850999999999994  0.8008399999999999  0.03419999999999999  1.0000
  H   H13       1.0  0.78252  0.8081599999999998  0.6966699999999998  1.0000
  H   H14       1.0  0.80147  0.19905  0.23318999999999995  1.0000
  H   H15       1.0  0.51608  0.42178999999999994  0.5623499999999999  1.0000
  H   H16       1.0  0.67962  0.30908  0.54857  1.0000
  H   H17       1.0  0.46694999999999987  0.7667699999999997  0.9662399999999998  1.0000
  H   H18       1.0  0.21742  0.19176  0.88849  1.0000
  H   H19       1.0  0.65257  0.5485799999999998  0.30842999999999987  1.0000
  H   H20       1.0  0.15198  0.85937  0.43797999999999987  1.0000
  H   H21       1.0  0.86555  0.96604  0.7670499999999998  1.0000
  H   H22       1.0  0.11771  0.8891399999999999  0.19235999999999995  1.0000
  H   H23       1.0  0.18192  0.43746  0.8589799999999997  1.0000
  H   H24       1.0  0.3475  0.45140999999999987  0.7600299999999998  1.0000
  C   C1        1.0  0.97389  0.9534400000000001  0.6500399999999997  1.0000
  C   C2        1.0  0.02592  0.046699999999999894  0.6966399999999998  1.0000
  C   C3        1.0  0.64139  0.35028  0.3034499999999999  1.0000
  C   C4        1.0  0.04097  0.19425999999999993  0.7147599999999997  1.0000
  C   C5        1.0  0.15411  0.1672199999999999  0.8266199999999998  1.0000
  C   C6        1.0  0.8930199999999998  0.92045  0.69799  1.0000
  C   C7        1.0  0.50386  0.52754  0.68129  1.0000
  C   C8        1.0  0.83282  0.15315000000000006  0.47253  1.0000
  C   C9        1.0  0.16827  0.31887999999999983  0.8463699999999997  1.0000
  C   C10       1.0  0.37379  0.52058  0.80546  1.0000
  C   C11       1.0  0.10666  0.07958999999999986  0.7775699999999998  1.0000
  C   C12       1.0  0.29389  0.71493  0.19445  1.0000
  C   C13       1.0  0.34045  0.66499  0.10578999999999998  1.0000
  C   C14       1.0  0.8458199999999998  0.8327499999999999  0.6593599999999997  1.0000
  C   C15       1.0  0.54582  0.43012000000000017  0.20491  1.0000
  C   C16       1.0  0.78537  0.20452999999999996  0.43010999999999994  1.0000
  C   C17       1.0  0.81977  0.17298  0.34066  1.0000
  C   C18       1.0  0.7062299999999999  0.28509  0.47937  1.0000
  C   C19       1.0  0.62637  0.47942000000000007  0.28484  1.0000
  C   C20       1.0  0.99314  0.10589  0.66522  1.0000
  C   C21       1.0  0.77353  0.2224  0.3021699999999999  1.0000
  C   C22       1.0  0.51216  0.34067  0.17359  1.0000
  C   C23       1.0  0.21468999999999994  0.7954900000000001  0.22571999999999995  1.0000
  C   C24       1.0  0.56045  0.30218  0.22265  1.0000
  C   C25       1.0  0.9590099999999999  0.8059399999999999  0.5205899999999998  1.0000
  C   C26       1.0  0.83253  0.6809899999999999  0.5275799999999998  1.0000
  C   C27       1.0  0.69314  0.30359999999999987  0.3501499999999999  1.0000
  C   C28       1.0  0.32588999999999996  0.55923  0.8939  1.0000
  C   C29       1.0  0.006790000000000001  0.8943299999999997  0.5594899999999998  1.0000
  C   C30       1.0  0.4962  0.47255  0.15392  1.0000
  C   C31       1.0  0.35881  0.6496799999999999  0.9532299999999998  1.0000
  C   C32       1.0  0.18036  0.82694  0.16768999999999995  1.0000
  C   C33       1.0  0.48801  0.65932  0.8329399999999998  1.0000
  C   C34       1.0  0.6595899999999999  0.33497  0.4406  1.0000
  C   C35       1.0  0.12046999999999998  0.22524  0.79506  1.0000
  C   C36       1.0  0.67429  0.44075999999999993  0.3346199999999999  1.0000
  C   C37       1.0  0.22659  0.7774900000000001  0.07982  1.0000
  C   C38       1.0  0.43981  0.69777  0.92048  1.0000
  C   C39       1.0  0.16689  0.8469  0.31946999999999987  1.0000
  C   C40       1.0  0.87975  0.7747600000000001  0.56985  1.0000
  C   C41       1.0  0.45434  0.56988  0.7747599999999998  1.0000
  C   C42       1.0  0.30699  0.6963  0.04661999999999999  1.0000
  O   O1        1.0  0.24588999999999997  0.5096099999999999  0.9210699999999998  1.0000
  O   O2        1.0  0.86611  0.63129  0.44415  1.0000
  O   O3        1.0  0.91311  0.07890999999999987  0.5884799999999998  1.0000
  O   O4        1.0  0.4203  0.58803  0.07851  1.0000
  O   O5        1.0  0.08706  0.9214399999999998  0.5098799999999998  1.0000
  O   O6        1.0  0.75419  0.49036  0.4114  1.0000
  O   O7        1.0  0.76229  0.6519100000000001  0.57243  1.0000
  O   O8        1.0  0.23919  0.3477199999999999  0.9200199999999997  1.0000
  O   O9        1.0  0.57962  0.41190999999999994  0.49014999999999986  1.0000
  O   O10       1.0  0.09495  0.92038  0.3481799999999999  1.0000
  O   O11       1.0  0.20138  0.8135799999999999  0.3694499999999999  1.0000
  O   O12       1.0  0.90509  0.07975999999999996  0.42792999999999987  1.0000
  O   O13       1.0  0.4675099999999999  0.44463000000000014  0.63107  1.0000
  O   O14       1.0  0.42138  0.42832000000000003  0.08146999999999997  1.0000
  O   O15       1.0  0.5326  0.5554700000000001  0.18667  1.0000
  O   O16       1.0  0.57857  0.57183  0.65305  1.0000
  O   O17       1.0  0.134  0.36877  0.8129  1.0000
  O   O18       1.0  0.79743  0.18637999999999988  0.5556899999999998  1.0000
