data_image0
_chemical_formula_structural       Mn4Ag4H16C32N12O8
_chemical_formula_sum              "Mn4 Ag4 H16 C32 N12 O8"
_cell_length_a       7.78653
_cell_length_b       11.50614
_cell_length_c       13.83719
_cell_angle_alpha    63.14712999999999
_cell_angle_beta     88.55407
_cell_angle_gamma    88.89042999999998

_symmetry_space_group_name_H-M    'P 1'
_symmetry_Int_Tables_number       1

loop_
  _symmetry_equiv_pos_as_xyz
  'x,y,z'

loop_
  _atom_site_type_symbol
  _atom_site_label
  _atom_site_symmetry_multiplicity
  _atom_site_fract_x
  _atom_site_fract_y
  _atom_site_fract_z
  _atom_site_occupancy
  Mn  Mn1       1.0  0.2883099999999999  0.5674100000000002  0.25389  1.0000
  Mn  Mn2       1.0  0.21687  0.17712  0.25258  1.0000
  Mn  Mn3       1.0  0.7121999999999998  0.43287000000000003  0.74663  1.0000
  Mn  Mn4       1.0  0.7850799999999998  0.82266  0.74737  1.0000
  Ag  Ag1       1.0  0.7516399999999998  0.89655  0.19062  1.0000
  Ag  Ag2       1.0  0.2493799999999999  0.1039  0.80964  1.0000
  Ag  Ag3       1.0  0.00061  0.00019000000000009978  0.9999299999999999  1.0000
  Ag  Ag4       1.0  0.50116  0.9999300000000001  0.9998  1.0000
  H   H1        1.0  0.3294899999999999  0.44876000000000005  0.5033799999999999  1.0000
  H   H2        1.0  0.19256  0.4617400000000002  0.6643799999999999  1.0000
  H   H3        1.0  0.94781  0.81924  0.4406699999999999  1.0000
  H   H4        1.0  0.08465  0.78703  0.28975  1.0000
  H   H5        1.0  0.17428  0.04373000000000002  0.50361  1.0000
  H   H6        1.0  0.31575  0.86542  0.6633699999999999  1.0000
  H   H7        1.0  0.55962  0.7411500000000001  0.44093  1.0000
  H   H8        1.0  0.4179199999999999  0.9277500000000001  0.29086999999999996  1.0000
  H   H9        1.0  0.67113  0.55064  0.49702999999999997  1.0000
  H   H10       1.0  0.80872  0.5380500000000003  0.33588  1.0000
  H   H11       1.0  0.05344999999999997  0.1805400000000001  0.55982  1.0000
  H   H12       1.0  0.9160299999999998  0.2125500000000001  0.71054  1.0000
  H   H13       1.0  0.8273499999999998  0.95695  0.4957499999999999  1.0000
  H   H14       1.0  0.6854199999999998  0.1352300000000001  0.3360899999999999  1.0000
  H   H15       1.0  0.44148  0.25853  0.55928  1.0000
  H   H16       1.0  0.5836800000000001  0.07167000000000012  0.7089399999999998  1.0000
  C   C1        1.0  0.60204  0.74472  0.20571999999999996  1.0000
  C   C2        1.0  0.11323999999999998  0.8212900000000001  0.08945  1.0000
  C   C3        1.0  0.24146  0.5275600000000001  0.49364  1.0000
  C   C4        1.0  0.16612999999999994  0.5355000000000001  0.58249  1.0000
  C   C5        1.0  0.05514000000000001  0.64007  0.56468  1.0000
  C   C6        1.0  0.02958000000000001  0.7346900000000001  0.4580999999999999  1.0000
  C   C7        1.0  0.10614999999999997  0.7173600000000004  0.37371  1.0000
  C   C8        1.0  0.96133  0.6488  0.65664  1.0000
  C   C9        1.0  0.89174  0.03439000000000004  0.20848  1.0000
  C   C10       1.0  0.4001699999999999  0.10105000000000001  0.07879  1.0000
  C   C11       1.0  0.26336  0.9759400000000001  0.49347  1.0000
  C   C12       1.0  0.3415799999999999  0.8766400000000001  0.58197  1.0000
  C   C13       1.0  0.4538099999999999  0.79033  0.56503  1.0000
  C   C14       1.0  0.47703  0.80661  0.45866  1.0000
  C   C15       1.0  0.39761999999999986  0.9104200000000001  0.37442999999999993  1.0000
  C   C16       1.0  0.54909  0.6887  0.6564099999999999  1.0000
  C   C17       1.0  0.3994099999999999  0.25532  0.79464  1.0000
  C   C18       1.0  0.88817  0.1792800000000001  0.91036  1.0000
  C   C19       1.0  0.7596699999999997  0.47218  0.50669  1.0000
  C   C20       1.0  0.8351899999999998  0.4643  0.41783  1.0000
  C   C21       1.0  0.9462299999999998  0.3596600000000001  0.43576999999999994  1.0000
  C   C22       1.0  0.97177  0.26515  0.54239  1.0000
  C   C23       1.0  0.89487  0.28252  0.62669  1.0000
  C   C24       1.0  0.03968999999999999  0.35098  0.34356999999999993  1.0000
  C   C25       1.0  0.10972999999999997  0.9658900000000001  0.7916599999999998  1.0000
  C   C26       1.0  0.6021799999999998  0.8984899999999998  0.9211  1.0000
  C   C27       1.0  0.73804  0.024580000000000005  0.50585  1.0000
  C   C28       1.0  0.65983  0.12408000000000007  0.41748999999999997  1.0000
  C   C29       1.0  0.5476099999999998  0.21014000000000008  0.4347199999999999  1.0000
  C   C30       1.0  0.5244699999999998  0.19349999999999995  0.54123  1.0000
  C   C31       1.0  0.6038399999999999  0.08940000000000002  0.62526  1.0000
  C   C32       1.0  0.4516  0.31149  0.34364  1.0000
  N   N1        1.0  0.49717  0.66573  0.22088  1.0000
  N   N2        1.0  0.17658  0.72015  0.14611  1.0000
  N   N3        1.0  0.20822999999999997  0.61417  0.39026  1.0000
  N   N4        1.0  0.9837999999999998  0.10652000000000006  0.22014  1.0000
  N   N5        1.0  0.34039999999999987  0.15419000000000002  0.12712999999999997  1.0000
  N   N6        1.0  0.29383  0.9966100000000001  0.39002  1.0000
  N   N7        1.0  0.5042299999999997  0.33437000000000017  0.7792099999999998  1.0000
  N   N8        1.0  0.8245199999999998  0.2802900000000001  0.85365  1.0000
  N   N9        1.0  0.79258  0.38558  0.61012  1.0000
  N   N10       1.0  0.0175  0.8941399999999999  0.7796  1.0000
  N   N11       1.0  0.6620299999999999  0.8449100000000003  0.8731299999999999  1.0000
  N   N12       1.0  0.7078899999999998  0.0035500000000000054  0.6094  1.0000
  O   O1        1.0  0.9408  0.7608700000000002  0.6517299999999998  1.0000
  O   O2        1.0  0.9082599999999997  0.5423100000000001  0.7348599999999998  1.0000
  O   O3        1.0  0.59279  0.58634  0.64514  1.0000
  O   O4        1.0  0.5844299999999996  0.70713  0.7377499999999998  1.0000
  O   O5        1.0  0.06007999999999998  0.23903000000000016  0.3482199999999999  1.0000
  O   O6        1.0  0.0922  0.45768  0.26531  1.0000
  O   O7        1.0  0.4066399999999999  0.41314000000000006  0.35563999999999996  1.0000
  O   O8        1.0  0.41655  0.2934999999999999  0.26202  1.0000
