data_image0
_chemical_formula_structural       Mn2H32C48N4O8
_chemical_formula_sum              "Mn2 H32 C48 N4 O8"
_cell_length_a       8.63969
_cell_length_b       12.24308
_cell_length_c       12.24344
_cell_angle_alpha    73.20391
_cell_angle_beta     74.76328999999998
_cell_angle_gamma    74.76332

_symmetry_space_group_name_H-M    'P 1'
_symmetry_Int_Tables_number       1

loop_
  _symmetry_equiv_pos_as_xyz
  'x,y,z'

loop_
  _atom_site_type_symbol
  _atom_site_label
  _atom_site_symmetry_multiplicity
  _atom_site_fract_x
  _atom_site_fract_y
  _atom_site_fract_z
  _atom_site_occupancy
  Mn  Mn1       1.0  0.7500100000000001  0.57865  0.42134999999999995  1.0000
  Mn  Mn2       1.0  0.25000000000000006  0.42135  0.57865  1.0000
  H   H1        1.0  0.31937  0.3352599999999999  0.32824  1.0000
  H   H2        1.0  0.32423  0.2402  0.17138  1.0000
  H   H3        1.0  0.5471499999999999  0.25364  0.99481  1.0000
  H   H4        1.0  0.75848  0.45328999999999997  0.13422  1.0000
  H   H5        1.0  0.65631  0.37636  0.82463  1.0000
  H   H6        1.0  0.88464  0.39764  0.65317  1.0000
  H   H7        1.0  0.21188999999999986  0.36942  0.85807  1.0000
  H   H8        1.0  0.9951200000000001  0.35136  0.03897  1.0000
  H   H9        1.0  0.18064  0.67176  0.66473  1.0000
  H   H10       1.0  0.17578000000000002  0.82862  0.7598  1.0000
  H   H11       1.0  0.95286  0.005199999999999997  0.74636  1.0000
  H   H12       1.0  0.7415399999999992  0.86578  0.54671  1.0000
  H   H13       1.0  0.8436999999999999  0.17537999999999998  0.62364  1.0000
  H   H14       1.0  0.61536  0.34684  0.60235  1.0000
  H   H15       1.0  0.28812  0.14192999999999995  0.63058  1.0000
  H   H16       1.0  0.5049  0.96103  0.64864  1.0000
  H   H17       1.0  0.6806400000000001  0.66474  0.67176  1.0000
  H   H18       1.0  0.6757800000000002  0.7597999999999999  0.82862  1.0000
  H   H19       1.0  0.45286000000000004  0.74636  0.00519  1.0000
  H   H20       1.0  0.24152999999999977  0.54671  0.86578  1.0000
  H   H21       1.0  0.34370000000000006  0.62364  0.17537  1.0000
  H   H22       1.0  0.11536999999999997  0.60235  0.34683  1.0000
  H   H23       1.0  0.7881200000000002  0.63058  0.14193  1.0000
  H   H24       1.0  0.004890000000000118  0.6486399999999998  0.96103  1.0000
  H   H25       1.0  0.81937  0.32824  0.33525999999999995  1.0000
  H   H26       1.0  0.82423  0.17138  0.2402  1.0000
  H   H27       1.0  0.047149999999999956  0.9948  0.25364  1.0000
  H   H28       1.0  0.25847000000000003  0.13422  0.45327999999999996  1.0000
  H   H29       1.0  0.15631000000000003  0.82462  0.3763599999999999  1.0000
  H   H30       1.0  0.38464999999999994  0.65316  0.39765  1.0000
  H   H31       1.0  0.7118900000000001  0.8580699999999999  0.36942  1.0000
  H   H32       1.0  0.49511  0.03896999999999999  0.35136  1.0000
  C   C1        1.0  0.52883  0.46322  0.33073  1.0000
  C   C2        1.0  0.5377000000000001  0.40045  0.23952999999999997  1.0000
  C   C3        1.0  0.41550999999999993  0.33984  0.25031  1.0000
  C   C4        1.0  0.41922  0.28754  0.16209  1.0000
  C   C5        1.0  0.54452  0.2952799999999999  0.0629  1.0000
  C   C6        1.0  0.6700100000000001  0.3539399999999999  0.05167999999999999  1.0000
  C   C7        1.0  0.66458  0.40608  0.14104  1.0000
  C   C8        1.0  0.8046599999999998  0.36164000000000013  0.94813  1.0000
  C   C9        1.0  0.77789  0.37232  0.8370299999999999  1.0000
  C   C10       1.0  0.90545  0.38395000000000007  0.74048  1.0000
  C   C11       1.0  0.08676999999999997  0.37036  0.85493  1.0000
  C   C12       1.0  0.96492  0.36076  0.9554099999999998  1.0000
  C   C13       1.0  0.97118  0.66927  0.53678  1.0000
  C   C14       1.0  0.9623099999999999  0.7604699999999999  0.59955  1.0000
  C   C15       1.0  0.08449999999999998  0.74968  0.66016  1.0000
  C   C16       1.0  0.0807899999999999  0.8379099999999998  0.71246  1.0000
  C   C17       1.0  0.9554899999999998  0.9371  0.7047199999999999  1.0000
  C   C18       1.0  0.8299999999999997  0.94832  0.64606  1.0000
  C   C19       1.0  0.8354299999999996  0.8589600000000002  0.59392  1.0000
  C   C20       1.0  0.69535  0.05186999999999999  0.63836  1.0000
  C   C21       1.0  0.7221099999999999  0.16296999999999995  0.62768  1.0000
  C   C22       1.0  0.5945599999999999  0.25952  0.61605  1.0000
  C   C23       1.0  0.41322999999999993  0.14506999999999998  0.62964  1.0000
  C   C24       1.0  0.53509  0.04459  0.63923  1.0000
  C   C25       1.0  0.47118000000000004  0.53678  0.6692699999999999  1.0000
  C   C26       1.0  0.46231  0.59955  0.7604699999999998  1.0000
  C   C27       1.0  0.5844999999999997  0.6601600000000001  0.74968  1.0000
  C   C28       1.0  0.5807900000000001  0.71246  0.83791  1.0000
  C   C29       1.0  0.4554800000000001  0.70472  0.9370999999999999  1.0000
  C   C30       1.0  0.3299999999999999  0.6460600000000001  0.94831  1.0000
  C   C31       1.0  0.33542999999999995  0.59392  0.85896  1.0000
  C   C32       1.0  0.19535  0.63836  0.05187  1.0000
  C   C33       1.0  0.22211000000000003  0.62768  0.16296  1.0000
  C   C34       1.0  0.09456000000000006  0.6160499999999998  0.25952  1.0000
  C   C35       1.0  0.9132399999999999  0.62964  0.14507  1.0000
  C   C36       1.0  0.03508999999999998  0.63924  0.04459  1.0000
  C   C37       1.0  0.028829999999999998  0.33073  0.46322  1.0000
  C   C38       1.0  0.037700000000000004  0.23953  0.40045  1.0000
  C   C39       1.0  0.9155099999999999  0.25032  0.33984  1.0000
  C   C40       1.0  0.91922  0.16208999999999998  0.28754  1.0000
  C   C41       1.0  0.04452  0.0629  0.29528  1.0000
  C   C42       1.0  0.17000999999999997  0.05168  0.35394  1.0000
  C   C43       1.0  0.16458000000000003  0.14104000000000003  0.40607999999999994  1.0000
  C   C44       1.0  0.30465999999999993  0.94813  0.36164  1.0000
  C   C45       1.0  0.2779  0.83703  0.37232  1.0000
  C   C46       1.0  0.4054499999999999  0.74048  0.38395  1.0000
  C   C47       1.0  0.5867800000000002  0.8549299999999999  0.37036  1.0000
  C   C48       1.0  0.46492  0.9554099999999998  0.36076  1.0000
  N   N1        1.0  0.0592  0.38275  0.74802  1.0000
  N   N2        1.0  0.4408099999999999  0.25199  0.61724  1.0000
  N   N3        1.0  0.9408099999999999  0.61725  0.25198  1.0000
  N   N4        1.0  0.5591999999999999  0.74801  0.38275  1.0000
  O   O1        1.0  0.64779  0.51267  0.31709  1.0000
  O   O2        1.0  0.40241  0.46687  0.41200999999999993  1.0000
  O   O3        1.0  0.8522199999999999  0.6829099999999999  0.48733  1.0000
  O   O4        1.0  0.09759999999999994  0.5879900000000001  0.53313  1.0000
  O   O5        1.0  0.35222000000000003  0.4873299999999999  0.68291  1.0000
  O   O6        1.0  0.5975999999999998  0.53313  0.58799  1.0000
  O   O7        1.0  0.14778999999999998  0.31709  0.51267  1.0000
  O   O8        1.0  0.9023999999999999  0.4120099999999999  0.46687  1.0000
