data_image0
_chemical_formula_structural       Zn6H16C24N4O8F8
_chemical_formula_sum              "Zn6 H16 C24 N4 O8 F8"
_cell_length_a       8.23056
_cell_length_b       11.70495
_cell_length_c       11.70395
_cell_angle_alpha    70.94181
_cell_angle_beta     75.32708
_cell_angle_gamma    75.01437

_space_group_name_H-M_alt    "P 1"
_space_group_IT_number       1

loop_
  _space_group_symop_operation_xyz
  'x, y, z'

loop_
  _atom_site_type_symbol
  _atom_site_label
  _atom_site_symmetry_multiplicity
  _atom_site_fract_x
  _atom_site_fract_y
  _atom_site_fract_z
  _atom_site_occupancy
  Zn  Zn1       1.0  0.5598599999999999  0.9246399999999998  0.8977000000000002  1.0000
  Zn  Zn2       1.0  0.93939  0.10172000000000002  0.07739  1.0000
  Zn  Zn3       1.0  0.44012999999999997  0.07536  0.10231  1.0000
  Zn  Zn4       1.0  0.060609999999999956  0.8982800000000001  0.92261  1.0000
  Zn  Zn5       1.0  0.25024000000000013  0.86762  0.13116  1.0000
  Zn  Zn6       1.0  0.7497500000000001  0.13238999999999998  0.8688400000000001  1.0000
  H   H1        1.0  0.23622999999999994  0.29431999999999997  0.9559700000000001  1.0000
  H   H2        1.0  0.4955399999999999  0.24315  0.23419  1.0000
  H   H3        1.0  0.41165  0.4690900000000001  0.22514  1.0000
  H   H4        1.0  0.14539999999999995  0.5228500000000003  0.93371  1.0000
  H   H5        1.0  0.26371  0.04461999999999999  0.70373  1.0000
  H   H6        1.0  0.004590000000000004  0.7671999999999999  0.7555400000000001  1.0000
  H   H7        1.0  0.08934000000000003  0.7738  0.53051  1.0000
  H   H8        1.0  0.35442  0.0649  0.4759  1.0000
  H   H9        1.0  0.7637699999999998  0.70568  0.04403  1.0000
  H   H10       1.0  0.5044600000000001  0.75685  0.76581  1.0000
  H   H11       1.0  0.5883500000000002  0.53092  0.77486  1.0000
  H   H12       1.0  0.8545900000000003  0.47715  0.06629  1.0000
  H   H13       1.0  0.73629  0.9553900000000002  0.29628  1.0000
  H   H14       1.0  0.9954099999999999  0.23279999999999998  0.24446  1.0000
  H   H15       1.0  0.9106599999999999  0.22620000000000004  0.46948999999999996  1.0000
  H   H16       1.0  0.64557  0.9351000000000003  0.5241  1.0000
  C   C1        1.0  0.27201  0.33747  0.012970000000000002  1.0000
  C   C2        1.0  0.41659999999999997  0.30856  0.17011  1.0000
  C   C3        1.0  0.37063999999999997  0.4330800000000001  0.16462  1.0000
  C   C4        1.0  0.22197  0.46307  0.0016  1.0000
  C   C5        1.0  0.2710199999999999  0.5125300000000002  0.07866  1.0000
  C   C6        1.0  0.21934999999999996  0.6491600000000001  0.06665  1.0000
  C   C7        1.0  0.22789999999999985  0.9873700000000002  0.66088  1.0000
  C   C8        1.0  0.08352999999999997  0.8305900000000002  0.69015  1.0000
  C   C9        1.0  0.12987999999999994  0.8347800000000001  0.56612  1.0000
  C   C10       1.0  0.2780199999999999  0.99755  0.5357  1.0000
  C   C11       1.0  0.22941999999999999  0.91996  0.48666  1.0000
  C   C12       1.0  0.2816600000000001  0.93045  0.3505  1.0000
  C   C13       1.0  0.7279899999999999  0.6625399999999999  0.9870300000000001  1.0000
  C   C14       1.0  0.5833999999999999  0.6914499999999999  0.82989  1.0000
  C   C15       1.0  0.62935  0.56693  0.83538  1.0000
  C   C16       1.0  0.7780299999999998  0.53693  0.9984000000000001  1.0000
  C   C17       1.0  0.72898  0.48748  0.92135  1.0000
  C   C18       1.0  0.78065  0.3508400000000001  0.93335  1.0000
  C   C19       1.0  0.7721  0.012640000000000004  0.33913  1.0000
  C   C20       1.0  0.9164699999999999  0.16941  0.30985  1.0000
  C   C21       1.0  0.8701099999999999  0.16522000000000006  0.43388  1.0000
  C   C22       1.0  0.72198  0.0024500000000000025  0.4643  1.0000
  C   C23       1.0  0.77058  0.08004000000000001  0.51334  1.0000
  C   C24       1.0  0.7183299999999999  0.06954999999999997  0.6495  1.0000
  N   N1        1.0  0.36765  0.26144  0.09612  1.0000
  N   N2        1.0  0.13210999999999998  0.9050300000000002  0.73684  1.0000
  N   N3        1.0  0.63235  0.73856  0.90388  1.0000
  N   N4        1.0  0.86789  0.09496999999999998  0.26317  1.0000
  O   O1        1.0  0.28002000000000005  0.68816  0.13345  1.0000
  O   O2        1.0  0.12095000000000002  0.7102  0.98999  1.0000
  O   O3        1.0  0.22381  0.86209  0.3117  1.0000
  O   O4        1.0  0.37799  0.007840000000000007  0.28947  1.0000
  O   O5        1.0  0.71998  0.31184  0.86655  1.0000
  O   O6        1.0  0.87905  0.2898  0.01002  1.0000
  O   O7        1.0  0.7761799999999999  0.13790999999999998  0.6883  1.0000
  O   O8        1.0  0.6220100000000001  0.99216  0.71053  1.0000
  F   F1        1.0  0.49668  0.88923  0.08927  1.0000
  F   F2        1.0  0.30443999999999993  0.9163500000000001  0.92728  1.0000
  F   F3        1.0  0.004429999999999952  0.9099100000000002  0.10667  1.0000
  F   F4        1.0  0.19321000000000002  0.07233  0.0841  1.0000
  F   F5        1.0  0.50332  0.11077000000000001  0.91073  1.0000
  F   F6        1.0  0.69556  0.08366  0.07272  1.0000
  F   F7        1.0  0.99557  0.09009000000000003  0.89333  1.0000
  F   F8        1.0  0.8067899999999998  0.9276800000000004  0.9159  1.0000
