data_image0
_chemical_formula_structural       Ce4H16C16S2O32
_chemical_formula_sum              "Ce4 H16 C16 S2 O32"
_cell_length_a       6.08693
_cell_length_b       7.71477
_cell_length_c       21.75173
_cell_angle_alpha    90.00091999999998
_cell_angle_beta     90.0
_cell_angle_gamma    90.0

_symmetry_space_group_name_H-M    'P 1'
_symmetry_Int_Tables_number       1

loop_
  _symmetry_equiv_pos_as_xyz
  'x,y,z'

loop_
  _atom_site_type_symbol
  _atom_site_label
  _atom_site_symmetry_multiplicity
  _atom_site_fract_x
  _atom_site_fract_y
  _atom_site_fract_z
  _atom_site_occupancy
  Ce  Ce1       1.0  0.54901  0.47960999999999987  0.8575799999999999  1.0000
  Ce  Ce2       1.0  0.54901  0.5203999999999998  0.14242  1.0000
  Ce  Ce3       1.0  0.45104  0.020389999999999995  0.35757999999999995  1.0000
  Ce  Ce4       1.0  0.45104  0.9796199999999998  0.64242  1.0000
  H   H1        1.0  0.48066  0.8731299999999997  0.89246  1.0000
  H   H2        1.0  0.32388  0.7421799999999997  0.74366  1.0000
  H   H3        1.0  0.12658  0.9258499999999997  0.88457  1.0000
  H   H4        1.0  0.03383  0.01396  0.78306  1.0000
  H   H5        1.0  0.48066  0.12686999999999996  0.10754  1.0000
  H   H6        1.0  0.32388  0.25782  0.25634  1.0000
  H   H7        1.0  0.12658  0.07416  0.11542999999999999  1.0000
  H   H8        1.0  0.03383  0.9860499999999998  0.21694  1.0000
  H   H9        1.0  0.51945  0.6268699999999998  0.39248  1.0000
  H   H10       1.0  0.67618  0.7578899999999997  0.24364999999999998  1.0000
  H   H11       1.0  0.87354  0.5742199999999997  0.38454999999999995  1.0000
  H   H12       1.0  0.96643  0.48622  0.28304999999999997  1.0000
  H   H13       1.0  0.51945  0.3731299999999999  0.60752  1.0000
  H   H14       1.0  0.67618  0.24211999999999995  0.7563399999999999  1.0000
  H   H15       1.0  0.87354  0.4257899999999999  0.61545  1.0000
  H   H16       1.0  0.96643  0.51379  0.7169499999999999  1.0000
  C   C1        1.0  0.05859000000000001  0.67577  0.84395  1.0000
  C   C2        1.0  0.1936  0.8433299999999998  0.8480199999999999  1.0000
  C   C3        1.0  0.19337  0.9477299999999997  0.78768  1.0000
  C   C4        1.0  0.37439000000000006  0.08619  0.7925999999999999  1.0000
  C   C5        1.0  0.05859000000000001  0.32423  0.15605  1.0000
  C   C6        1.0  0.1936  0.15667999999999996  0.15198  1.0000
  C   C7        1.0  0.19337  0.05228  0.21232  1.0000
  C   C8        1.0  0.37439000000000006  0.9138199999999997  0.2074  1.0000
  C   C9        1.0  0.94151  0.82422  0.34395  1.0000
  C   C10       1.0  0.80647  0.6567399999999998  0.34801  1.0000
  C   C11       1.0  0.8068499999999998  0.55238  0.28765  1.0000
  C   C12       1.0  0.6261  0.41371999999999987  0.29259  1.0000
  C   C13       1.0  0.94151  0.17577999999999994  0.65605  1.0000
  C   C14       1.0  0.80647  0.3432699999999999  0.6519899999999998  1.0000
  C   C15       1.0  0.8068499999999998  0.4476199999999999  0.71235  1.0000
  C   C16       1.0  0.6261  0.58628  0.70741  1.0000
  S   S1        1.0  0.56046  0.4999999999999999  0.0  1.0000
  S   S2        1.0  0.43954  0.0  0.5  1.0000
  O   O1        1.0  0.42287  0.38015  0.9611399999999999  1.0000
  O   O2        1.0  0.6997600000000002  0.60007  0.95493  1.0000
  O   O3        1.0  0.16522  0.53441  0.84585  1.0000
  O   O4        1.0  0.85261  0.69074  0.83917  1.0000
  O   O5        1.0  0.41502  0.7924199999999998  0.8634899999999999  1.0000
  O   O6        1.0  0.22172  0.84337  0.7337499999999999  1.0000
  O   O7        1.0  0.38061  0.18279  0.83931  1.0000
  O   O8        1.0  0.51296  0.0916  0.7483199999999999  1.0000
  O   O9        1.0  0.42287  0.6198599999999997  0.03886  1.0000
  O   O10       1.0  0.6997600000000002  0.3999399999999999  0.04507  1.0000
  O   O11       1.0  0.16522  0.4655999999999999  0.15415  1.0000
  O   O12       1.0  0.85261  0.30926  0.16082999999999997  1.0000
  O   O13       1.0  0.41502  0.20758  0.13650999999999996  1.0000
  O   O14       1.0  0.22172  0.15664  0.26625  1.0000
  O   O15       1.0  0.38061  0.8172199999999997  0.16069  1.0000
  O   O16       1.0  0.51296  0.9083999999999998  0.25168  1.0000
  O   O17       1.0  0.57711  0.11987999999999997  0.46114  1.0000
  O   O18       1.0  0.30024  0.8999399999999997  0.45493  1.0000
  O   O19       1.0  0.83489  0.96565  0.34586  1.0000
  O   O20       1.0  0.14744  0.8092099999999998  0.33916  1.0000
  O   O21       1.0  0.58502  0.7075799999999998  0.36346999999999996  1.0000
  O   O22       1.0  0.7783400000000001  0.65672  0.23372  1.0000
  O   O23       1.0  0.62037  0.3170499999999999  0.33927  1.0000
  O   O24       1.0  0.48716  0.40833999999999987  0.24838  1.0000
  O   O25       1.0  0.57711  0.8801299999999997  0.5388599999999999  1.0000
  O   O26       1.0  0.30024  0.10006  0.54507  1.0000
  O   O27       1.0  0.83489  0.03436  0.6541399999999999  1.0000
  O   O28       1.0  0.14744  0.19079  0.66084  1.0000
  O   O29       1.0  0.58502  0.29243  0.63653  1.0000
  O   O30       1.0  0.7783400000000001  0.34328  0.7662799999999999  1.0000
  O   O31       1.0  0.62037  0.6829599999999998  0.66073  1.0000
  O   O32       1.0  0.48716  0.5916599999999997  0.75162  1.0000
