data_image0
_chemical_formula_structural       Cd4H12C32O18
_chemical_formula_sum              "Cd4 H12 C32 O18"
_cell_length_a       8.26473
_cell_length_b       10.31925
_cell_length_c       13.362619999999998
_cell_angle_alpha    82.89697
_cell_angle_beta     71.98871
_cell_angle_gamma    66.27352

_space_group_name_H-M_alt    "P 1"
_space_group_IT_number       1

loop_
  _space_group_symop_operation_xyz
  'x, y, z'

loop_
  _atom_site_type_symbol
  _atom_site_label
  _atom_site_symmetry_multiplicity
  _atom_site_fract_x
  _atom_site_fract_y
  _atom_site_fract_z
  _atom_site_occupancy
  Cd  Cd1       1.0  0.33630000000000004  0.1976  0.55577  1.0000
  Cd  Cd2       1.0  0.09259000000000002  0.79653  0.44376  1.0000
  Cd  Cd3       1.0  0.40403000000000006  0.9555500000000001  0.26383  1.0000
  Cd  Cd4       1.0  0.63195  0.04274  0.73335  1.0000
  H   H1        1.0  0.64509  0.22129  0.9753800000000001  1.0000
  H   H2        1.0  0.9211900000000001  0.48945999999999995  0.70732  1.0000
  H   H3        1.0  0.8897000000000002  0.1739  0.19917  1.0000
  H   H4        1.0  0.27752  0.35775  0.97661  1.0000
  H   H5        1.0  0.12418000000000001  0.60338  0.70983  1.0000
  H   H6        1.0  0.84731  0.77544  0.023950000000000003  1.0000
  H   H7        1.0  0.1189  0.5055  0.29336  1.0000
  H   H8        1.0  0.37390000000000007  0.62891  0.9227000000000001  1.0000
  H   H9        1.0  0.93075  0.36521  0.07643  1.0000
  H   H10       1.0  0.43708  0.39261  0.28963  1.0000
  H   H11       1.0  0.61386  0.63714  0.02341  1.0000
  H   H12       1.0  0.2648999999999999  0.82238  0.80102  1.0000
  C   C1        1.0  0.04863000000000001  0.32339  0.34136  1.0000
  C   C2        1.0  0.49532  0.40273  0.20551  1.0000
  C   C3        1.0  0.8554399999999999  0.69973  0.56751  1.0000
  C   C4        1.0  0.97799  0.70496  0.86147  1.0000
  C   C5        1.0  0.93956  0.24634  0.22048  1.0000
  C   C6        1.0  0.9619899999999999  0.35467  0.15092  1.0000
  C   C7        1.0  0.9815200000000003  0.22926999999999997  0.31644  1.0000
  C   C8        1.0  0.21169000000000002  0.46746  0.8361  1.0000
  C   C9        1.0  0.4504500000000001  0.65065  0.23502  1.0000
  C   C10       1.0  0.12504999999999994  0.29457  0.43242  1.0000
  C   C11       1.0  0.6544  0.54596  0.82183  1.0000
  C   C12       1.0  0.40885000000000005  0.74972  0.77995  1.0000
  C   C13       1.0  0.06116999999999996  0.56669  0.01056  1.0000
  C   C14       1.0  0.50358  0.16417  0.1805  1.0000
  C   C15       1.0  0.19246  0.45404  0.94446  1.0000
  C   C16       1.0  0.47006999999999993  0.64052  0.84905  1.0000
  C   C17       1.0  0.5302200000000001  0.76729  0.68448  1.0000
  C   C18       1.0  0.023039999999999942  0.44964  0.17848  1.0000
  C   C19       1.0  0.33982000000000007  0.34521  0.76417  1.0000
  C   C20       1.0  0.06618999999999996  0.43428000000000005  0.27324  1.0000
  C   C21       1.0  0.64085  0.42845  0.98916  1.0000
  C   C22       1.0  0.7165400000000002  0.67263  0.65929  1.0000
  C   C23       1.0  0.5927100000000001  0.54104  0.055260000000000004  1.0000
  C   C24       1.0  0.10800999999999997  0.59342  0.7940000000000002  1.0000
  C   C25       1.0  0.9659399999999999  0.1052  0.38536999999999993  1.0000
  C   C26       1.0  0.95208  0.69106  0.9704500000000001  1.0000
  C   C27       1.0  0.7771800000000001  0.56155  0.72735  1.0000
  C   C28       1.0  0.4582500000000001  0.89206  0.61656  1.0000
  C   C29       1.0  0.85424  0.83321  0.81856  1.0000
  C   C30       1.0  0.51634  0.52821  0.16347  1.0000
  C   C31       1.0  0.6136  0.30502  0.02895  1.0000
  C   C32       1.0  0.54314  0.29179  0.13791  1.0000
  O   O1        1.0  0.47916  0.25667  0.79307  1.0000
  O   O2        1.0  0.91433  0.87548  0.72464  1.0000
  O   O3        1.0  0.04015  0.56504  0.11789  1.0000
  O   O4        1.0  0.7274600000000001  0.4302099999999999  0.88215  1.0000
  O   O5        1.0  0.8020600000000001  0.78719  0.49677  1.0000
  O   O6        1.0  0.47756  0.00884  0.6365  1.0000
  O   O7        1.0  0.32322000000000006  0.65497  0.3188  1.0000
  O   O8        1.0  0.12065999999999998  0.9868700000000001  0.3632600000000001  1.0000
  O   O9        1.0  0.82344  0.10434  0.44982999999999995  1.0000
  O   O10       1.0  0.45122999999999996  0.10533  0.12489  1.0000
  O   O11       1.0  0.51778  0.11825999999999999  0.27289  1.0000
  O   O12       1.0  0.29856000000000005  0.33895  0.6816  1.0000
  O   O13       1.0  0.5266500000000001  0.74097  0.20506  1.0000
  O   O14       1.0  0.23859999999999998  0.35037  0.43346  1.0000
  O   O15       1.0  0.37322000000000005  0.89512  0.55476  1.0000
  O   O16       1.0  0.026039999999999935  0.64293  0.56628  1.0000
  O   O17       1.0  0.08934  0.2065  0.5026  1.0000
  O   O18       1.0  0.68895  0.896  0.8750600000000001  1.0000
