data_image0
_chemical_formula_structural       V4H32C40O20
_chemical_formula_sum              "V4 H32 C40 O20"
_cell_length_a       6.95323
_cell_length_b       13.08263
_cell_length_c       16.83938
_cell_angle_alpha    90.0
_cell_angle_beta     90.0
_cell_angle_gamma    90.93247

_space_group_name_H-M_alt    "P 1"
_space_group_IT_number       1

loop_
  _space_group_symop_operation_xyz
  'x, y, z'

loop_
  _atom_site_type_symbol
  _atom_site_label
  _atom_site_symmetry_multiplicity
  _atom_site_fract_x
  _atom_site_fract_y
  _atom_site_fract_z
  _atom_site_occupancy
  V   V1        1.0  0.29669000000000006  0.73029  0.75  1.0000
  V   V2        1.0  0.2029  0.23080999999999993  0.25  1.0000
  V   V3        1.0  0.7033  0.26971  0.25  1.0000
  V   V4        1.0  0.7971  0.76919  0.75  1.0000
  H   H1        1.0  0.75062  0.014579999999999997  0.89723  1.0000
  H   H2        1.0  0.24204  0.76873  0.97587  1.0000
  H   H3        1.0  0.08425  0.86215  0.94076  1.0000
  H   H4        1.0  0.11003  0.84312  0.04504  1.0000
  H   H5        1.0  0.7607500000000003  0.51378  0.10698999999999997  1.0000
  H   H6        1.0  0.25139  0.27059  0.01829  1.0000
  H   H7        1.0  0.41043  0.36392999999999986  0.05684  1.0000
  H   H8        1.0  0.3880400000000001  0.34922999999999993  0.9518700000000001  1.0000
  H   H9        1.0  0.24938  0.9854199999999997  0.39723  1.0000
  H   H10       1.0  0.7579600000000002  0.23128  0.47587  1.0000
  H   H11       1.0  0.91575  0.13785  0.44076  1.0000
  H   H12       1.0  0.88997  0.15688  0.54504  1.0000
  H   H13       1.0  0.23924000000000004  0.48622  0.60698  1.0000
  H   H14       1.0  0.7486100000000001  0.7294099999999998  0.51829  1.0000
  H   H15       1.0  0.58956  0.63608  0.55684  1.0000
  H   H16       1.0  0.61196  0.65078  0.45187  1.0000
  H   H17       1.0  0.24938  0.9854199999999997  0.10277  1.0000
  H   H18       1.0  0.7579600000000002  0.23128  0.02413  1.0000
  H   H19       1.0  0.91575  0.13785  0.05924  1.0000
  H   H20       1.0  0.88997  0.15688  0.9549599999999999  1.0000
  H   H21       1.0  0.23924000000000004  0.48622  0.89301  1.0000
  H   H22       1.0  0.7486100000000001  0.7294099999999998  0.9817100000000001  1.0000
  H   H23       1.0  0.58956  0.63608  0.94316  1.0000
  H   H24       1.0  0.61196  0.65078  0.04813  1.0000
  H   H25       1.0  0.75062  0.014579999999999997  0.60277  1.0000
  H   H26       1.0  0.24204  0.76873  0.52413  1.0000
  H   H27       1.0  0.08425  0.86215  0.55924  1.0000
  H   H28       1.0  0.11003  0.84312  0.45496  1.0000
  H   H29       1.0  0.7607500000000003  0.51378  0.39301  1.0000
  H   H30       1.0  0.25139  0.27059  0.4817100000000001  1.0000
  H   H31       1.0  0.41043  0.36392999999999986  0.44316  1.0000
  H   H32       1.0  0.3880400000000001  0.34922999999999993  0.54813  1.0000
  C   C1        1.0  0.49449  0.93507  0.93406  1.0000
  C   C2        1.0  0.34753  0.9245199999999998  0.99172  1.0000
  C   C3        1.0  0.64178  0.00893  0.94342  1.0000
  C   C4        1.0  0.50222  0.8692099999999999  0.862  1.0000
  C   C5        1.0  0.18736  0.84537  0.98828  1.0000
  C   C6        1.0  0.010070000000000004  0.43613  0.06628  1.0000
  C   C7        1.0  0.15080000000000002  0.42583  0.00629  1.0000
  C   C8        1.0  0.86465  0.50887  0.05892  1.0000
  C   C9        1.0  0.0030199999999999975  0.36956999999999995  0.13794  1.0000
  C   C10       1.0  0.30887  0.34824  0.00824  1.0000
  C   C11       1.0  0.5055  0.06494  0.43406  1.0000
  C   C12       1.0  0.65246  0.07548  0.49171999999999993  1.0000
  C   C13       1.0  0.35822  0.99107  0.44342  1.0000
  C   C14       1.0  0.49777  0.13079999999999997  0.36201  1.0000
  C   C15       1.0  0.81263  0.15463  0.48828  1.0000
  C   C16       1.0  0.98992  0.56388  0.56628  1.0000
  C   C17       1.0  0.84919  0.5741699999999998  0.5062899999999999  1.0000
  C   C18       1.0  0.13534  0.49113  0.55892  1.0000
  C   C19       1.0  0.9969800000000001  0.63043  0.6379399999999998  1.0000
  C   C20       1.0  0.69112  0.6517699999999998  0.50824  1.0000
  C   C21       1.0  0.5055  0.06494  0.06593  1.0000
  C   C22       1.0  0.65246  0.07548  0.00828  1.0000
  C   C23       1.0  0.35822  0.99107  0.05657  1.0000
  C   C24       1.0  0.49777  0.13079999999999997  0.13798999999999997  1.0000
  C   C25       1.0  0.81263  0.15463  0.01172  1.0000
  C   C26       1.0  0.98992  0.56388  0.93372  1.0000
  C   C27       1.0  0.84919  0.5741699999999998  0.9937099999999999  1.0000
  C   C28       1.0  0.13534  0.49113  0.94107  1.0000
  C   C29       1.0  0.9969800000000001  0.63043  0.86206  1.0000
  C   C30       1.0  0.69112  0.6517699999999998  0.9917600000000001  1.0000
  C   C31       1.0  0.49449  0.93507  0.56593  1.0000
  C   C32       1.0  0.34753  0.9245199999999998  0.50828  1.0000
  C   C33       1.0  0.64178  0.00893  0.55657  1.0000
  C   C34       1.0  0.50222  0.8692099999999999  0.63799  1.0000
  C   C35       1.0  0.18736  0.84537  0.51172  1.0000
  C   C36       1.0  0.010070000000000004  0.43613  0.4337199999999999  1.0000
  C   C37       1.0  0.15080000000000002  0.42583  0.49371000000000004  1.0000
  C   C38       1.0  0.86465  0.50887  0.44107  1.0000
  C   C39       1.0  0.0030199999999999975  0.36956999999999995  0.36206  1.0000
  C   C40       1.0  0.30887  0.34824  0.49176  1.0000
  O   O1        1.0  0.34333  0.83347  0.83435  1.0000
  O   O2        1.0  0.66855  0.85285  0.83301  1.0000
  O   O3        1.0  0.16045  0.33326  0.16428  1.0000
  O   O4        1.0  0.83633  0.35294  0.1675  1.0000
  O   O5        1.0  0.65666  0.16653  0.33435  1.0000
  O   O6        1.0  0.33145  0.14715  0.33301  1.0000
  O   O7        1.0  0.83954  0.6667499999999998  0.66428  1.0000
  O   O8        1.0  0.16366  0.6470599999999997  0.6675  1.0000
  O   O9        1.0  0.65666  0.16653  0.16565  1.0000
  O   O10       1.0  0.33145  0.14715  0.16699  1.0000
  O   O11       1.0  0.83954  0.6667499999999998  0.83572  1.0000
  O   O12       1.0  0.16366  0.6470599999999997  0.83249  1.0000
  O   O13       1.0  0.34333  0.83347  0.6656499999999997  1.0000
  O   O14       1.0  0.66855  0.85285  0.66699  1.0000
  O   O15       1.0  0.16045  0.33326  0.33572  1.0000
  O   O16       1.0  0.83633  0.35294  0.33249  1.0000
  O   O17       1.0  0.50791  0.68094  0.75  1.0000
  O   O18       1.0  0.9896000000000003  0.18062  0.25  1.0000
  O   O19       1.0  0.49209  0.31906  0.25  1.0000
  O   O20       1.0  0.010390000000000002  0.81938  0.75  1.0000
