data_image0
_chemical_formula_structural       Zn2H4C16S4N8O8
_chemical_formula_sum              "Zn2 H4 C16 S4 N8 O8"
_cell_length_a       4.10029
_cell_length_b       12.50113
_cell_length_c       12.66367
_cell_angle_alpha    82.45521000000001
_cell_angle_beta     58.356010000000005
_cell_angle_gamma    58.114149999999995

_space_group_name_H-M_alt    "P 1"
_space_group_IT_number       1

loop_
  _space_group_symop_operation_xyz
  'x, y, z'

loop_
  _atom_site_type_symbol
  _atom_site_label
  _atom_site_symmetry_multiplicity
  _atom_site_fract_x
  _atom_site_fract_y
  _atom_site_fract_z
  _atom_site_occupancy
  Zn  Zn1       1.0  0.4988000000000002  0.99193  0.9935400000000001  1.0000
  Zn  Zn2       1.0  0.7264599999999998  0.51847  0.51133  1.0000
  H   H1        1.0  0.64899  0.17268  0.64371  1.0000
  H   H2        1.0  0.6995  0.83322  0.30482  1.0000
  H   H3        1.0  0.1065299999999999  0.34085  0.17648000000000003  1.0000
  H   H4        1.0  0.5968699999999998  0.66313  0.8480700000000001  1.0000
  C   C1        1.0  0.6011499999999996  0.18316  0.8214300000000001  1.0000
  C   C2        1.0  0.6876100000000002  0.8067299999999998  0.1436  1.0000
  C   C3        1.0  0.07217999999999995  0.17268  0.21849000000000002  1.0000
  C   C4        1.0  0.6809800000000001  0.82225  0.7917100000000002  1.0000
  C   C5        1.0  0.61974  0.6755  0.31562000000000007  1.0000
  C   C6        1.0  0.5516899999999999  0.3543200000000001  0.68055  1.0000
  C   C7        1.0  0.18813  0.28218  0.33331  1.0000
  C   C8        1.0  0.5537599999999998  0.70945  0.68401  1.0000
  C   C9        1.0  0.4559099999999999  0.246  0.7267  1.0000
  C   C10       1.0  0.9636599999999999  0.28553  0.77327  1.0000
  C   C11       1.0  0.8111099999999992  0.75431  0.24093000000000006  1.0000
  C   C12       1.0  0.36336000000000007  0.68439  0.18675  1.0000
  C   C13       1.0  0.11902999999999979  0.27158  0.23765000000000006  1.0000
  C   C14       1.0  0.15608999999999998  0.1048  0.38341  1.0000
  C   C15       1.0  0.6066299999999994  0.7266100000000001  0.7811100000000002  1.0000
  C   C16       1.0  0.6405099999999997  0.87592  0.61859  1.0000
  S   S1        1.0  0.4222499999999999  0.49874  0.011320000000000002  1.0000
  S   S2        1.0  0.7594400000000001  0.54175  0.05224  1.0000
  S   S3        1.0  0.1708699999999999  0.99471  0.48396  1.0000
  S   S4        1.0  0.6617999999999997  0.9753499999999999  0.50876  1.0000
  N   N1        1.0  0.8008700000000005  0.21988  0.85276  1.0000
  N   N2        1.0  0.48391999999999974  0.7679900000000001  0.11983  1.0000
  N   N3        1.0  0.054759999999999934  0.09108  0.30381  1.0000
  N   N4        1.0  0.7248699999999996  0.89677  0.6999600000000001  1.0000
  N   N5        1.0  0.4532499999999997  0.63213  0.27931000000000006  1.0000
  N   N6        1.0  0.7880399999999999  0.37038  0.7141100000000001  1.0000
  N   N7        1.0  0.24179000000000012  0.18689  0.40442  1.0000
  N   N8        1.0  0.5407599999999998  0.79553  0.6037200000000003  1.0000
  O   O1        1.0  0.5480799999999998  0.09223000000000003  0.8572900000000001  1.0000
  O   O2        1.0  0.7794599999999999  0.88939  0.08984000000000002  1.0000
  O   O3        1.0  0.02000000000000003  0.15952  0.13047  1.0000
  O   O4        1.0  0.7416000000000004  0.8357499999999999  0.87736  1.0000
  O   O5        1.0  0.6437000000000004  0.65475  0.41344  1.0000
  O   O6        1.0  0.4486600000000002  0.4143  0.60432  1.0000
  O   O7        1.0  0.2337000000000001  0.3708199999999999  0.35177  1.0000
  O   O8        1.0  0.49358000000000013  0.62211  0.67237  1.0000
