data_image0
_chemical_formula_structural       Mg2H2C10O8
_chemical_formula_sum              "Mg2 H2 C10 O8"
_cell_length_a       6.41485
_cell_length_b       7.37312
_cell_length_c       8.28126
_cell_angle_alpha    90.80154
_cell_angle_beta     105.93275
_cell_angle_gamma    92.50412999999999

_space_group_name_H-M_alt    "P 1"
_space_group_IT_number       1

loop_
  _space_group_symop_operation_xyz
  'x, y, z'

loop_
  _atom_site_type_symbol
  _atom_site_label
  _atom_site_symmetry_multiplicity
  _atom_site_fract_x
  _atom_site_fract_y
  _atom_site_fract_z
  _atom_site_occupancy
  Mg  Mg1       1.0  0.50001  0.50001  1e-05  1.0000
  Mg  Mg2       1.0  9.999999999995628e-06  0.9999899999999999  0.99999  1.0000
  H   H1        1.0  0.5684999999999999  0.67725  0.4576599999999999  1.0000
  H   H2        1.0  0.43149  0.32276  0.54236  1.0000
  C   C1        1.0  0.43309  0.8320099999999998  0.16912  1.0000
  C   C2        1.0  0.46549999999999986  0.9257799999999998  0.3364499999999999  1.0000
  C   C3        1.0  0.5388099999999999  0.81898  0.4775899999999999  1.0000
  C   C4        1.0  0.42644  0.11020999999999999  0.35918  1.0000
  C   C5        1.0  0.36348  0.23813  0.21636999999999995  1.0000
  C   C6        1.0  0.56694  0.16797  0.83091  1.0000
  C   C7        1.0  0.53448  0.07423  0.66357  1.0000
  C   C8        1.0  0.4611799999999999  0.18102  0.52243  1.0000
  C   C9        1.0  0.5735500000000001  0.8898  0.64084  1.0000
  C   C10       1.0  0.63652  0.76186  0.78363  1.0000
  O   O1        1.0  0.57629  0.72209  0.15868  1.0000
  O   O2        1.0  0.50153  0.36602  0.21435  1.0000
  O   O3        1.0  0.17909999999999998  0.21806999999999999  0.10781  1.0000
  O   O4        1.0  0.26343  0.85459  0.04841  1.0000
  O   O5        1.0  0.4237099999999999  0.27789  0.84136  1.0000
  O   O6        1.0  0.49848  0.63396  0.78564  1.0000
  O   O7        1.0  0.8209  0.78191  0.8921799999999998  1.0000
  O   O8        1.0  0.73662  0.14538  0.95159  1.0000
