data_image0
_chemical_formula_structural       Cd3H28C30N2O12
_chemical_formula_sum              "Cd3 H28 C30 N2 O12"
_cell_length_a       9.19626
_cell_length_b       9.69144
_cell_length_c       19.10563
_cell_angle_alpha    94.58772
_cell_angle_beta     93.57134
_cell_angle_gamma    119.78181000000001

_space_group_name_H-M_alt    "P 1"
_space_group_IT_number       1

loop_
  _space_group_symop_operation_xyz
  'x, y, z'

loop_
  _atom_site_type_symbol
  _atom_site_label
  _atom_site_symmetry_multiplicity
  _atom_site_fract_x
  _atom_site_fract_y
  _atom_site_fract_z
  _atom_site_occupancy
  Cd  Cd1       1.0  0.97047  0.90904  0.82608  1.0000
  Cd  Cd2       1.0  0.02951  0.09095  0.17392  1.0000
  Cd  Cd3       1.0  0.0  0.0  0.0  1.0000
  H   H1        1.0  0.7870899999999997  0.19297  0.96543  1.0000
  H   H2        1.0  0.9777899999999995  0.4447199999999999  0.9174699999999999  1.0000
  H   H3        1.0  0.8324699999999999  0.38749  0.8411  1.0000
  H   H4        1.0  0.7669199999999999  0.45182000000000005  0.9927599999999999  1.0000
  H   H5        1.0  0.5433699999999999  0.37188999999999994  0.8521599999999999  1.0000
  H   H6        1.0  0.4970899999999999  0.41743  0.93666  1.0000
  H   H7        1.0  0.48600999999999994  0.17684  0.97697  1.0000
  H   H8        1.0  0.5530799999999999  0.10227  0.82754  1.0000
  H   H9        1.0  0.5203500000000001  0.98431  0.8978500000000001  1.0000
  H   H10       1.0  0.7986399999999998  0.5722  0.73264  1.0000
  H   H11       1.0  0.62619  0.43148000000000003  0.61674  1.0000
  H   H12       1.0  0.51172  0.65942  0.48696999999999996  1.0000
  H   H13       1.0  0.66924  0.88099  0.57396  1.0000
  H   H14       1.0  0.8399599999999998  0.0029099999999999955  0.69324  1.0000
  H   H15       1.0  0.21290000000000012  0.8070300000000002  0.03457  1.0000
  H   H16       1.0  0.02219000000000003  0.55527  0.08253  1.0000
  H   H17       1.0  0.16751  0.61251  0.1589  1.0000
  H   H18       1.0  0.23306999999999997  0.54817  0.007239999999999999  1.0000
  H   H19       1.0  0.45661999999999997  0.6281  0.14784  1.0000
  H   H20       1.0  0.5029  0.58256  0.06335  1.0000
  H   H21       1.0  0.51398  0.82315  0.02304  1.0000
  H   H22       1.0  0.44691  0.89772  0.17246  1.0000
  H   H23       1.0  0.47963  0.01568  0.10215  1.0000
  H   H24       1.0  0.20134  0.42779  0.26736  1.0000
  H   H25       1.0  0.37379  0.56851  0.38326  1.0000
  H   H26       1.0  0.4882699999999999  0.34057  0.51303  1.0000
  H   H27       1.0  0.33075  0.119  0.42604  1.0000
  H   H28       1.0  0.1600299999999999  0.9970799999999999  0.30676  1.0000
  C   C1        1.0  0.8402499999999999  0.11701999999999994  0.86747  1.0000
  C   C2        1.0  0.76592  0.20243000000000003  0.9091700000000001  1.0000
  C   C3        1.0  0.8425799999999999  0.37876  0.8978799999999999  1.0000
  C   C4        1.0  0.7519  0.45544000000000007  0.9354600000000001  1.0000
  C   C5        1.0  0.56127  0.36339  0.90871  1.0000
  C   C6        1.0  0.48139  0.18637  0.92003  1.0000
  C   C7        1.0  0.5741199999999999  0.10780000000000002  0.88522  1.0000
  C   C8        1.0  0.8269999999999997  0.63092  0.92464  1.0000
  C   C9        1.0  0.29739000000000004  0.08684  0.88949  1.0000
  C   C10       1.0  0.76921  0.63565  0.69472  1.0000
  C   C11       1.0  0.67218  0.55859  0.6302  1.0000
  C   C12       1.0  0.6337099999999998  0.64532  0.58401  1.0000
  C   C13       1.0  0.53306  0.57652  0.51518  1.0000
  C   C14       1.0  0.6965600000000001  0.8086100000000002  0.6071  1.0000
  C   C15       1.0  0.7928  0.8781000000000001  0.67244  1.0000
  C   C16       1.0  0.1597300000000001  0.8829700000000003  0.13254  1.0000
  C   C17       1.0  0.2340599999999999  0.79757  0.09084  1.0000
  C   C18       1.0  0.1574  0.62123  0.10212  1.0000
  C   C19       1.0  0.24808  0.54455  0.06454  1.0000
  C   C20       1.0  0.43871999999999994  0.6366  0.0913  1.0000
  C   C21       1.0  0.5186000000000001  0.8136200000000002  0.07997  1.0000
  C   C22       1.0  0.4258599999999999  0.89219  0.11477999999999998  1.0000
  C   C23       1.0  0.17298  0.3690700000000001  0.07537  1.0000
  C   C24       1.0  0.70259  0.91316  0.11051000000000001  1.0000
  C   C25       1.0  0.23077999999999999  0.36434  0.30528  1.0000
  C   C26       1.0  0.3278  0.4414  0.3698  1.0000
  C   C27       1.0  0.36628  0.35467  0.41599  1.0000
  C   C28       1.0  0.46692  0.42347  0.48482000000000003  1.0000
  C   C29       1.0  0.30342  0.19139  0.3929  1.0000
  C   C30       1.0  0.20718000000000003  0.12189000000000001  0.32756  1.0000
  N   N1        1.0  0.82998  0.79326  0.71538  1.0000
  N   N2        1.0  0.17  0.20673  0.28462  1.0000
  O   O1        1.0  0.8533399999999999  0.007250000000000101  0.89881  1.0000
  O   O2        1.0  0.8741300000000002  0.13933  0.8056  1.0000
  O   O3        1.0  0.25194  0.09642  0.82637  1.0000
  O   O4        1.0  0.19261  0.98646  0.9269499999999999  1.0000
  O   O5        1.0  0.85344  0.66316  0.86124  1.0000
  O   O6        1.0  0.8529500000000001  0.7291200000000001  0.97898  1.0000
  O   O7        1.0  0.14664999999999997  0.99274  0.10119  1.0000
  O   O8        1.0  0.12584999999999988  0.86066  0.1944  1.0000
  O   O9        1.0  0.7480499999999998  0.90357  0.17363  1.0000
  O   O10       1.0  0.8073699999999998  0.01354  0.07305  1.0000
  O   O11       1.0  0.14654999999999999  0.33682999999999996  0.13876  1.0000
  O   O12       1.0  0.14704  0.27087  0.02102  1.0000
