data_image0
_chemical_formula_structural       Tb4H12C24O24
_chemical_formula_sum              "Tb4 H12 C24 O24"
_cell_length_a       8.20172
_cell_length_b       9.87719
_cell_length_c       18.27825
_cell_angle_alpha    89.90569999999998
_cell_angle_beta     90.01074999999999
_cell_angle_gamma    110.68253

_symmetry_space_group_name_H-M    'P 1'
_symmetry_Int_Tables_number       1

loop_
  _symmetry_equiv_pos_as_xyz
  'x,y,z'

loop_
  _atom_site_type_symbol
  _atom_site_label
  _atom_site_symmetry_multiplicity
  _atom_site_fract_x
  _atom_site_fract_y
  _atom_site_fract_z
  _atom_site_occupancy
  Tb  Tb1       1.0  0.8422099999999998  0.03263  0.23585999999999996  1.0000
  Tb  Tb2       1.0  0.15505999999999998  0.46662  0.7367  1.0000
  Tb  Tb3       1.0  0.15478  0.96677  0.76124  1.0000
  Tb  Tb4       1.0  0.8432799999999999  0.53154  0.26126  1.0000
  H   H1        1.0  0.87775  0.08085999999999999  0.97766  1.0000
  H   H2        1.0  0.28115  0.16774  0.31088  1.0000
  H   H3        1.0  0.39063999999999993  0.9070699999999999  0.27272  1.0000
  H   H4        1.0  0.11912999999999996  0.41937  0.47767  1.0000
  H   H5        1.0  0.71516  0.33057999999999993  0.81083  1.0000
  H   H6        1.0  0.6072199999999999  0.59333  0.77448  1.0000
  H   H7        1.0  0.12227000000000003  0.91576  0.02002  1.0000
  H   H8        1.0  0.71545  0.83367  0.68824  1.0000
  H   H9        1.0  0.6049299999999999  0.09399  0.72663  1.0000
  H   H10       1.0  0.8777199999999998  0.5867799999999997  0.52  1.0000
  H   H11       1.0  0.28297  0.66641  0.18832  1.0000
  H   H12       1.0  0.394  0.40609  0.22659  1.0000
  C   C1        1.0  0.9067099999999998  0.02384  0.09183  1.0000
  C   C2        1.0  0.9443299999999998  0.02759  0.012659999999999998  1.0000
  C   C3        1.0  0.55524  0.1929  0.29122  1.0000
  C   C4        1.0  0.3667899999999999  0.10754  0.29984  1.0000
  C   C5        1.0  0.30340999999999996  0.9644099999999999  0.28678  1.0000
  C   C6        1.0  0.11475999999999999  0.8767999999999999  0.28462  1.0000
  C   C7        1.0  0.09582999999999993  0.4789199999999999  0.59196  1.0000
  C   C8        1.0  0.05502  0.474  0.51296  1.0000
  C   C9        1.0  0.44102  0.30775  0.7926  1.0000
  C   C10       1.0  0.63021  0.39182999999999996  0.80049  1.0000
  C   C11       1.0  0.69419  0.53523  0.78776  1.0000
  C   C12       1.0  0.88291  0.6226599999999999  0.78505  1.0000
  C   C13       1.0  0.09436000000000004  0.97448  0.90561  1.0000
  C   C14       1.0  0.056350000000000025  0.96934  0.9848600000000001  1.0000
  C   C15       1.0  0.4408799999999998  0.80617  0.7074  1.0000
  C   C16       1.0  0.62915  0.89322  0.69957  1.0000
  C   C17       1.0  0.6918799999999998  0.03633  0.71272  1.0000
  C   C18       1.0  0.88063  0.12338999999999999  0.71457  1.0000
  C   C19       1.0  0.9026099999999998  0.52447  0.406  1.0000
  C   C20       1.0  0.94236  0.5318  0.48517999999999994  1.0000
  C   C21       1.0  0.55754  0.69304  0.20721  1.0000
  C   C22       1.0  0.3693000000000001  0.60674  0.19942  1.0000
  C   C23       1.0  0.30683999999999995  0.46359999999999996  0.2127  1.0000
  C   C24       1.0  0.11825  0.3764  0.21479  1.0000
  O   O1        1.0  0.97655  0.96062  0.13695  1.0000
  O   O2        1.0  0.8026799999999997  0.08673999999999998  0.11481  1.0000
  O   O3        1.0  0.66598  0.12830999999999995  0.29245  1.0000
  O   O4        1.0  0.59654  0.3286299999999999  0.28123  1.0000
  O   O5        1.0  0.0008799999999999597  0.9328999999999998  0.30223  1.0000
  O   O6        1.0  0.07654999999999997  0.74628  0.26348  1.0000
  O   O7        1.0  0.030509999999999975  0.54559  0.63704  1.0000
  O   O8        1.0  0.19677  0.41311  0.61495  1.0000
  O   O9        1.0  0.33169  0.37349  0.79568  1.0000
  O   O10       1.0  0.39745  0.17226  0.78134  1.0000
  O   O11       1.0  0.9966399999999999  0.56659  0.80315  1.0000
  O   O12       1.0  0.92137  0.7528599999999998  0.76315  1.0000
  O   O13       1.0  0.024669999999999997  0.03919999999999999  0.86123  1.0000
  O   O14       1.0  0.19766000000000006  0.91182  0.88167  1.0000
  O   O15       1.0  0.32784  0.86829  0.70396  1.0000
  O   O16       1.0  0.40215  0.67114  0.71871  1.0000
  O   O17       1.0  0.99316  0.06654  0.69624  1.0000
  O   O18       1.0  0.9209399999999998  0.25375  0.73632  1.0000
  O   O19       1.0  0.97032  0.45758  0.36213  1.0000
  O   O20       1.0  0.8004999999999998  0.58783  0.38159  1.0000
  O   O21       1.0  0.66984  0.6302199999999999  0.2039  1.0000
  O   O22       1.0  0.5968199999999999  0.8280899999999999  0.21853  1.0000
  O   O23       1.0  0.0056600000000000044  0.43335  0.19629  1.0000
  O   O24       1.0  0.07831000000000002  0.24605  0.23653  1.0000
