data_image0
_chemical_formula_structural       Zn6H12C12N18F6
_chemical_formula_sum              "Zn6 H12 C12 N18 F6"
_cell_length_a       9.88064
_cell_length_b       11.34801
_cell_length_c       11.34806
_cell_angle_alpha    111.65458
_cell_angle_beta     106.98321000000001
_cell_angle_gamma    106.98378

_space_group_name_H-M_alt    "P 1"
_space_group_IT_number       1

loop_
  _space_group_symop_operation_xyz
  'x, y, z'

loop_
  _atom_site_type_symbol
  _atom_site_label
  _atom_site_symmetry_multiplicity
  _atom_site_fract_x
  _atom_site_fract_y
  _atom_site_fract_z
  _atom_site_occupancy
  Zn  Zn1       1.0  0.6265000000000001  0.37471  0.75121  1.0000
  Zn  Zn2       1.0  0.87349  0.24880000000000002  0.62529  1.0000
  Zn  Zn3       1.0  0.25  0.37453  0.62547  1.0000
  Zn  Zn4       1.0  0.37349999999999994  0.62529  0.24879  1.0000
  Zn  Zn5       1.0  0.12650999999999996  0.7512099999999999  0.37471  1.0000
  Zn  Zn6       1.0  0.75  0.62547  0.37453  1.0000
  H   H1        1.0  0.6365399999999999  0.58999  0.61309  1.0000
  H   H2        1.0  0.02132999999999999  0.38627999999999996  0.97558  1.0000
  H   H3        1.0  0.04647  0.023729999999999994  0.41028  1.0000
  H   H4        1.0  0.47867  0.024419999999999997  0.61372  1.0000
  H   H5        1.0  0.45352000000000003  0.58972  0.97628  1.0000
  H   H6        1.0  0.8634600000000003  0.38691  0.41002  1.0000
  H   H7        1.0  0.36346  0.41002000000000005  0.38691  1.0000
  H   H8        1.0  0.97867  0.61372  0.024419999999999997  1.0000
  H   H9        1.0  0.9535200000000001  0.97628  0.58972  1.0000
  H   H10       1.0  0.52133  0.97559  0.38628  1.0000
  H   H11       1.0  0.5464800000000001  0.41028  0.023719999999999998  1.0000
  H   H12       1.0  0.13653999999999994  0.61309  0.58998  1.0000
  C   C1        1.0  0.6927300000000001  0.52386  0.57933  1.0000
  C   C2        1.0  0.11212999999999984  0.4205099999999999  0.9438899999999999  1.0000
  C   C3        1.0  0.16920000000000002  0.055819999999999995  0.47621  1.0000
  C   C4        1.0  0.38787  0.05610999999999999  0.5795  1.0000
  C   C5        1.0  0.33080000000000004  0.5237900000000001  0.94419  1.0000
  C   C6        1.0  0.8072699999999999  0.42068  0.4761500000000001  1.0000
  C   C7        1.0  0.30727  0.47615  0.42067  1.0000
  C   C8        1.0  0.8878700000000002  0.5795000000000001  0.05611  1.0000
  C   C9        1.0  0.8308  0.9441899999999999  0.52379  1.0000
  C   C10       1.0  0.61213  0.94389  0.4205  1.0000
  C   C11       1.0  0.6691999999999999  0.47620999999999997  0.05580999999999999  1.0000
  C   C12       1.0  0.19273  0.57933  0.52385  1.0000
  N   N1        1.0  0.71329  0.43748  0.62911  1.0000
  N   N2        1.0  0.08341  0.37069  0.80831  1.0000
  N   N3        1.0  0.27589  0.19154  0.56271  1.0000
  N   N4        1.0  0.41659000000000007  0.19170000000000004  0.62931  1.0000
  N   N5        1.0  0.22411000000000003  0.4373  0.80846  1.0000
  N   N6        1.0  0.7867000000000002  0.37089  0.56252  1.0000
  N   N7        1.0  0.2867  0.56252  0.37089  1.0000
  N   N8        1.0  0.9165900000000001  0.62932  0.19169  1.0000
  N   N9        1.0  0.72411  0.80847  0.43729  1.0000
  N   N10       1.0  0.58341  0.80831  0.37069  1.0000
  N   N11       1.0  0.7758900000000001  0.56271  0.19153999999999996  1.0000
  N   N12       1.0  0.21330000000000002  0.62911  0.43748  1.0000
  N   N13       1.0  0.75  0.51683  0.48316999999999993  1.0000
  N   N14       1.0  0.26573  0.51675  0.0328  1.0000
  N   N15       1.0  0.23426999999999998  0.9672099999999999  0.48325  1.0000
  N   N16       1.0  0.25  0.48318  0.51683  1.0000
  N   N17       1.0  0.7342700000000001  0.48325000000000007  0.9672  1.0000
  N   N18       1.0  0.76573  0.03280000000000001  0.51675  1.0000
  F   F1        1.0  0.74999  0.25541  0.74459  1.0000
  F   F2        1.0  0.0066699999999999884  0.25567  0.51599  1.0000
  F   F3        1.0  0.49333  0.48400999999999994  0.74433  1.0000
  F   F4        1.0  0.25001  0.7446  0.25541  1.0000
  F   F5        1.0  0.99333  0.74433  0.48400999999999994  1.0000
  F   F6        1.0  0.50667  0.516  0.25567  1.0000
