data_image0
_chemical_formula_structural       La4H16C16O20
_chemical_formula_sum              "La4 H16 C16 O20"
_cell_length_a       6.31858
_cell_length_b       10.63675
_cell_length_c       14.332730000000002
_cell_angle_alpha    89.70022000000002
_cell_angle_beta     89.95568
_cell_angle_gamma    111.45003000000001

_symmetry_space_group_name_H-M    'P 1'
_symmetry_Int_Tables_number       1

loop_
  _symmetry_equiv_pos_as_xyz
  'x,y,z'

loop_
  _atom_site_type_symbol
  _atom_site_label
  _atom_site_symmetry_multiplicity
  _atom_site_fract_x
  _atom_site_fract_y
  _atom_site_fract_z
  _atom_site_occupancy
  La  La1       1.0  0.27723  0.49532  0.3975  1.0000
  La  La2       1.0  0.2237  0.006700000000000001  0.89633  1.0000
  La  La3       1.0  0.72634  0.50864  0.57505  1.0000
  La  La4       1.0  0.77807  0.99803  0.07420000000000002  1.0000
  H   H1        1.0  0.84801  0.54382  0.26089  1.0000
  H   H2        1.0  0.7106499999999998  0.36493  0.2828000000000001  1.0000
  H   H3        1.0  0.48297  0.29887  0.17245  1.0000
  H   H4        1.0  0.37273999999999996  0.41074000000000005  0.11523  1.0000
  H   H5        1.0  0.65205  0.9551400000000001  0.76019  1.0000
  H   H6        1.0  0.7866199999999999  0.13447  0.7793900000000002  1.0000
  H   H7        1.0  0.018169999999999988  0.20502  0.67076  1.0000
  H   H8        1.0  0.13475  0.09699  0.61337  1.0000
  H   H9        1.0  0.29494999999999993  0.47473  0.7846200000000002  1.0000
  H   H10       1.0  0.29244  0.64155  0.76351  1.0000
  H   H11       1.0  0.6870999999999999  0.75465  0.8275200000000003  1.0000
  H   H12       1.0  0.7220599999999999  0.59774  0.84961  1.0000
  H   H13       1.0  0.20196  0.027539999999999995  0.2839600000000001  1.0000
  H   H14       1.0  0.21034  0.86221  0.26346  1.0000
  H   H15       1.0  0.8091999999999999  0.74452  0.32646  1.0000
  H   H16       1.0  0.7775  0.90223  0.34835  1.0000
  C   C1        1.0  0.6935599999999998  0.49082  0.39708  1.0000
  C   C2        1.0  0.7006699999999998  0.46533  0.2935100000000001  1.0000
  C   C3        1.0  0.38527  0.36469  0.18295  1.0000
  C   C4        1.0  0.14581  0.27858  0.21554  1.0000
  C   C5        1.0  0.8080799999999999  0.011089999999999996  0.89548  1.0000
  C   C6        1.0  0.7989399999999998  0.03476  0.7914400000000003  1.0000
  C   C7        1.0  0.11691999999999998  0.13974  0.6814100000000002  1.0000
  C   C8        1.0  0.35401  0.22678  0.7153500000000003  1.0000
  C   C9        1.0  0.23376  0.51539  0.64202  1.0000
  C   C10       1.0  0.3459599999999999  0.56118  0.7358900000000002  1.0000
  C   C11       1.0  0.73058  0.67321  0.7952300000000002  1.0000
  C   C12       1.0  0.9709  0.72998  0.75601  1.0000
  C   C13       1.0  0.26931999999999995  0.98957  0.14191  1.0000
  C   C14       1.0  0.15445000000000003  0.9417  0.23547  1.0000
  C   C15       1.0  0.76806  0.8271700000000001  0.29411000000000004  1.0000
  C   C16       1.0  0.5282099999999998  0.77261  0.25452  1.0000
  O   O1        1.0  0.5221299999999999  0.37502  0.4439400000000001  1.0000
  O   O2        1.0  0.917  0.50643  0.4309  1.0000
  O   O3        1.0  0.49401999999999996  0.46904999999999997  0.24895000000000006  1.0000
  O   O4        1.0  0.03248999999999998  0.18302  0.16168  1.0000
  O   O5        1.0  0.07279999999999998  0.30605  0.29214  1.0000
  O   O6        1.0  0.9784699999999998  0.12867  0.93985  1.0000
  O   O7        1.0  0.58415  0.9940600000000002  0.93027  1.0000
  O   O8        1.0  0.00563  0.03201  0.7457100000000002  1.0000
  O   O9        1.0  0.4674  0.32363  0.66174  1.0000
  O   O10       1.0  0.42606  0.19916000000000003  0.7922800000000001  1.0000
  O   O11       1.0  0.35985  0.55631  0.5690900000000001  1.0000
  O   O12       1.0  0.027159999999999972  0.43972999999999995  0.63958  1.0000
  O   O13       1.0  0.5849899999999998  0.6127  0.7185800000000001  1.0000
  O   O14       1.0  0.1282  0.79372  0.8133600000000002  1.0000
  O   O15       1.0  0.0017899999999999965  0.70665  0.6717100000000001  1.0000
  O   O16       1.0  0.14494999999999988  0.9504  0.06878  1.0000
  O   O17       1.0  0.4760499999999999  0.06502  0.13981  1.0000
  O   O18       1.0  0.91579  0.8881199999999999  0.21753  1.0000
  O   O19       1.0  0.36827999999999994  0.70671  0.31069  1.0000
  O   O20       1.0  0.49956999999999996  0.79966  0.17063  1.0000
