data_image0
_chemical_formula_structural       Eu2H6C12O12
_chemical_formula_sum              "Eu2 H6 C12 O12"
_cell_length_a       7.24276
_cell_length_b       8.38673
_cell_length_c       11.95241
_cell_angle_alpha    89.25652
_cell_angle_beta     75.25755
_cell_angle_gamma    75.66257000000002

_space_group_name_H-M_alt    "P 1"
_space_group_IT_number       1

loop_
  _space_group_symop_operation_xyz
  'x, y, z'

loop_
  _atom_site_type_symbol
  _atom_site_label
  _atom_site_symmetry_multiplicity
  _atom_site_fract_x
  _atom_site_fract_y
  _atom_site_fract_z
  _atom_site_occupancy
  Eu  Eu1       1.0  0.21350999999999998  0.9988199999999999  0.0908  1.0000
  Eu  Eu2       1.0  0.7861399999999998  0.001680000000000021  0.9113400000000003  1.0000
  H   H1        1.0  0.86667  0.61829  0.11427  1.0000
  H   H2        1.0  0.57951  0.41166  0.0889  1.0000
  H   H3        1.0  0.14511999999999992  0.10587999999999997  0.50595  1.0000
  H   H4        1.0  0.13486  0.38069999999999987  0.88723  1.0000
  H   H5        1.0  0.4206699999999998  0.58903  0.91155  1.0000
  H   H6        1.0  0.8523199999999996  0.89551  0.49663  1.0000
  C   C1        1.0  0.5639000000000001  0.7299599999999998  0.09762000000000001  1.0000
  C   C2        1.0  0.7308199999999998  0.59093  0.10671  1.0000
  C   C3        1.0  0.7152099999999998  0.43518  0.09988  1.0000
  C   C4        1.0  0.8801399999999999  0.28988999999999987  0.09923  1.0000
  C   C5        1.0  0.11627999999999998  0.0191  0.34045  1.0000
  C   C6        1.0  0.06632999999999997  0.0353  0.4680500000000001  1.0000
  C   C7        1.0  0.43781999999999993  0.27141  0.90479  1.0000
  C   C8        1.0  0.27012  0.40923  0.89479  1.0000
  C   C9        1.0  0.28502  0.56531  0.90064  1.0000
  C   C10       1.0  0.12000999999999998  0.71065  0.90118  1.0000
  C   C11       1.0  0.8798699999999999  0.98393  0.66241  1.0000
  C   C12       1.0  0.9309  0.9662099999999998  0.53474  1.0000
  O   O1        1.0  0.59934  0.86971  0.06311  1.0000
  O   O2        1.0  0.38987000000000005  0.7122499999999998  0.12188  1.0000
  O   O3        1.0  0.8798399999999997  0.15217  0.04993  1.0000
  O   O4        1.0  0.018770000000000033  0.29704999999999987  0.14334  1.0000
  O   O5        1.0  0.019059999999999914  0.95253  0.2872  1.0000
  O   O6        1.0  0.26045  0.07249  0.28117  1.0000
  O   O7        1.0  0.40374999999999994  0.1326  0.94263  1.0000
  O   O8        1.0  0.61194  0.28868  0.8780500000000001  1.0000
  O   O9        1.0  0.12102999999999997  0.8486299999999998  0.94988  1.0000
  O   O10       1.0  0.9805899999999999  0.7032599999999999  0.85784  1.0000
  O   O11       1.0  0.9797299999999995  0.04723  0.71589  1.0000
  O   O12       1.0  0.7319599999999999  0.9352799999999998  0.72186  1.0000
