data_image0
_chemical_formula_structural       Cu4H24C24N8O8
_chemical_formula_sum              "Cu4 H24 C24 N8 O8"
_cell_length_a       14.15628
_cell_length_b       14.17725
_cell_length_c       14.177469999999998
_cell_angle_alpha    108.3917
_cell_angle_beta     110.10112
_cell_angle_gamma    110.09952000000001

_symmetry_space_group_name_H-M    'P 1'
_symmetry_Int_Tables_number       1

loop_
  _symmetry_equiv_pos_as_xyz
  'x,y,z'

loop_
  _atom_site_type_symbol
  _atom_site_label
  _atom_site_symmetry_multiplicity
  _atom_site_fract_x
  _atom_site_fract_y
  _atom_site_fract_z
  _atom_site_occupancy
  Cu  Cu1       1.0  0.8951999999999999  0.20475000000000004  0.10036  1.0000
  Cu  Cu2       1.0  0.10457999999999996  0.20485000000000003  0.30937  1.0000
  Cu  Cu3       1.0  0.60464  0.05938999999999999  0.45495  1.0000
  Cu  Cu4       1.0  0.3951500000000001  0.85042  0.45474000000000003  1.0000
  H   H1        1.0  0.6549299999999998  0.10593  0.06028  1.0000
  H   H2        1.0  0.67606  0.21974  0.18041  1.0000
  H   H3        1.0  0.5914799999999998  0.07518  0.14459  1.0000
  H   H4        1.0  0.34454999999999997  0.40521  0.45069999999999993  1.0000
  H   H5        1.0  0.3239799999999999  0.50438  0.54358  1.0000
  H   H6        1.0  0.4087100000000001  0.55334  0.48403000000000007  1.0000
  H   H7        1.0  0.54603  0.20025  0.35666  1.0000
  H   H8        1.0  0.5399399999999999  0.29342  0.47022  1.0000
  H   H9        1.0  0.43052  0.23259000000000002  0.32548  1.0000
  H   H10       1.0  0.4537099999999999  0.81023  0.65421  1.0000
  H   H11       1.0  0.46026000000000006  0.9301200000000001  0.75367  1.0000
  H   H12       1.0  0.5695  0.89504  0.80236  1.0000
  H   H13       1.0  0.04602999999999998  0.10665  0.45025  1.0000
  H   H14       1.0  0.039940000000000045  0.22021  0.54342  1.0000
  H   H15       1.0  0.9305199999999999  0.07548  0.48259  1.0000
  H   H16       1.0  0.9537099999999998  0.40421000000000007  0.06023  1.0000
  H   H17       1.0  0.96027  0.50367  0.18012  1.0000
  H   H18       1.0  0.0695  0.55236  0.14504  1.0000
  H   H19       1.0  0.8445299999999998  0.20068999999999995  0.6552  1.0000
  H   H20       1.0  0.8239699999999998  0.29358  0.75437  1.0000
  H   H21       1.0  0.90871  0.23402999999999993  0.8033299999999999  1.0000
  H   H22       1.0  0.15494999999999998  0.81028  0.35592999999999997  1.0000
  H   H23       1.0  0.17605999999999994  0.93041  0.46975  1.0000
  H   H24       1.0  0.09149000000000006  0.8945800000000002  0.32518  1.0000
  C   C1        1.0  0.7744  0.13936  0.22515  1.0000
  C   C2        1.0  0.66799  0.13425  0.14749  1.0000
  C   C3        1.0  0.22559999999999997  0.45075  0.36467  1.0000
  C   C4        1.0  0.33196  0.47959  0.46613  1.0000
  C   C5        1.0  0.41419  0.11441  0.38959  1.0000
  C   C6        1.0  0.4870099999999999  0.21561  0.38471  1.0000
  C   C7        1.0  0.58568  0.97525  0.70027  1.0000
  C   C8        1.0  0.5129499999999999  0.8975000000000001  0.72867  1.0000
  C   C9        1.0  0.91414  0.13958  0.3644  1.0000
  C   C10       1.0  0.9870099999999996  0.13469999999999996  0.46560999999999997  1.0000
  C   C11       1.0  0.08572999999999999  0.45031  0.22528  1.0000
  C   C12       1.0  0.012949999999999972  0.47867  0.1475  1.0000
  C   C13       1.0  0.72559  0.1146499999999999  0.7007399999999999  1.0000
  C   C14       1.0  0.8319399999999999  0.21611999999999998  0.72958  1.0000
  C   C15       1.0  0.27441  0.9751600000000001  0.38936  1.0000
  C   C16       1.0  0.16801000000000008  0.89749  0.38426000000000005  1.0000
  C   C17       1.0  0.79942  0.12163000000000003  0.32185  1.0000
  C   C18       1.0  0.72496  0.0947  0.36969  1.0000
  C   C19       1.0  0.20063  0.52254  0.32212  1.0000
  C   C20       1.0  0.2752699999999999  0.64493  0.36981  1.0000
  C   C21       1.0  0.29947  0.07184999999999997  0.37160999999999994  1.0000
  C   C22       1.0  0.22506  0.11974  0.34486  1.0000
  C   C23       1.0  0.7005799999999999  0.07205999999999994  0.7724799999999999  1.0000
  C   C24       1.0  0.77513  0.11988999999999997  0.89486  1.0000
  N   N1        1.0  0.8690099999999997  0.16572000000000003  0.21299  1.0000
  N   N2        1.0  0.13085  0.3438  0.29622  1.0000
  N   N3        1.0  0.45251  0.04617  0.41587  1.0000
  N   N4        1.0  0.54729  0.96308  0.59359  1.0000
  N   N5        1.0  0.9524599999999998  0.16582  0.29614  1.0000
  N   N6        1.0  0.047340000000000014  0.34362  0.21307  1.0000
  N   N7        1.0  0.63083  0.04623000000000001  0.59379  1.0000
  N   N8        1.0  0.36904  0.96302  0.41575  1.0000
  O   O1        1.0  0.622  0.08225  0.32506  1.0000
  O   O2        1.0  0.37822999999999996  0.70358  0.46064  1.0000
  O   O3        1.0  0.25794  0.21045  0.33314  1.0000
  O   O4        1.0  0.74223  0.07516000000000005  0.95259  1.0000
  O   O5        1.0  0.75801  0.08305000000000003  0.4604500000000001  1.0000
  O   O6        1.0  0.24237  0.70255  0.32487  1.0000
  O   O7        1.0  0.87804  0.21071000000000006  0.95341  1.0000
  O   O8        1.0  0.12223999999999997  0.07515999999999998  0.33267  1.0000
