data_image0
_chemical_formula_structural       U3H18C18O12
_chemical_formula_sum              "U3 H18 C18 O12"
_cell_length_a       8.58463
_cell_length_b       8.95344
_cell_length_c       11.52736
_cell_angle_alpha    77.46987
_cell_angle_beta     74.65133
_cell_angle_gamma    74.72095

_space_group_name_H-M_alt    "P 1"
_space_group_IT_number       1

loop_
  _space_group_symop_operation_xyz
  'x, y, z'

loop_
  _atom_site_type_symbol
  _atom_site_label
  _atom_site_symmetry_multiplicity
  _atom_site_fract_x
  _atom_site_fract_y
  _atom_site_fract_z
  _atom_site_occupancy
  U   U1        1.0  0.4776  0.75294  0.8148299999999999  1.0000
  U   U2        1.0  0.51683  0.25337  0.18038  1.0000
  U   U3        1.0  0.48423000000000005  0.001540000000000001  0.51713  1.0000
  H   H1        1.0  0.78209  0.14643000000000003  0.9553099999999999  1.0000
  H   H2        1.0  0.01010000000000002  0.89498  0.39721  1.0000
  H   H3        1.0  0.2803399999999999  0.69354  0.29672  1.0000
  H   H4        1.0  0.9680099999999999  0.038520000000000006  0.13257  1.0000
  H   H5        1.0  0.4259  0.77021  0.17764  1.0000
  H   H6        1.0  0.21676999999999996  0.85347  0.04540999999999999  1.0000
  H   H7        1.0  0.01815000000000001  0.29906  0.74024  1.0000
  H   H8        1.0  0.9851299999999997  0.09384  0.33055999999999996  1.0000
  H   H9        1.0  0.94933  0.77443  0.11332999999999999  1.0000
  H   H10       1.0  0.027659999999999955  0.9004300000000001  0.6733599999999998  1.0000
  H   H11       1.0  0.027340000000000017  0.9607700000000001  0.8720699999999999  1.0000
  H   H12       1.0  0.72354  0.29736  0.69996  1.0000
  H   H13       1.0  0.99786  0.10092000000000001  0.60951  1.0000
  H   H14       1.0  0.57886  0.22021000000000004  0.8196599999999999  1.0000
  H   H15       1.0  0.04724000000000003  0.22374000000000002  0.8895399999999999  1.0000
  H   H16       1.0  0.75951  0.95381  0.8220499999999998  1.0000
  H   H17       1.0  0.25072  0.03953000000000001  0.17586999999999997  1.0000
  H   H18       1.0  0.99068  0.69452  0.26023  1.0000
  C   C1        1.0  0.29262999999999995  0.78801  0.21870999999999996  1.0000
  C   C2        1.0  0.03204000000000002  0.9744  0.30928  1.0000
  C   C3        1.0  0.2909399999999999  0.9814  0.35258  1.0000
  C   C4        1.0  0.015710000000000016  0.78438  0.18001  1.0000
  C   C5        1.0  0.28107999999999983  0.60791  0.08664999999999999  1.0000
  C   C6        1.0  0.20225000000000004  0.7649  0.12759  1.0000
  C   C7        1.0  0.79733  0.23565  0.87313  1.0000
  C   C8        1.0  0.22109000000000004  0.9505599999999998  0.25671  1.0000
  C   C9        1.0  0.25167  0.02100000000000001  0.7429499999999999  1.0000
  C   C10       1.0  0.7871500000000001  0.04637000000000003  0.7446999999999999  1.0000
  C   C11       1.0  0.7119500000000001  0.20809  0.78151  1.0000
  C   C12       1.0  0.98549  0.21295  0.82127  1.0000
  C   C13       1.0  0.71385  0.39619999999999994  0.90703  1.0000
  C   C14       1.0  0.9759299999999999  0.019439999999999992  0.69515  1.0000
  C   C15       1.0  0.05983999999999999  0.04615999999999999  0.78843  1.0000
  C   C16       1.0  0.7109300000000001  0.02171000000000001  0.65088  1.0000
  C   C17       1.0  0.7634900000000001  0.9685399999999998  0.25126  1.0000
  C   C18       1.0  0.94772  0.95046  0.21472999999999995  1.0000
  O   O1        1.0  0.29816  0.13482000000000002  0.64748  1.0000
  O   O2        1.0  0.32559  0.60003  0.97354  1.0000
  O   O3        1.0  0.68881  0.12300000000000001  0.55574  1.0000
  O   O4        1.0  0.7015199999999999  0.89969  0.35699999999999993  1.0000
  O   O5        1.0  0.66066  0.40849  0.022719999999999997  1.0000
  O   O6        1.0  0.3301100000000002  0.98647  0.83818  1.0000
  O   O7        1.0  0.68242  0.013349999999999997  0.16369999999999998  1.0000
  O   O8        1.0  0.33778  0.11309000000000001  0.33879  1.0000
  O   O9        1.0  0.30416  0.48612  0.16915  1.0000
  O   O10       1.0  0.6678699999999995  0.8880500000000001  0.66432  1.0000
  O   O11       1.0  0.69514  0.51177  0.82396  1.0000
  O   O12       1.0  0.30178999999999995  0.8835299999999999  0.44977  1.0000
