data_image0
_chemical_formula_structural       La2H12C24O12
_chemical_formula_sum              "La2 H12 C24 O12"
_cell_length_a       9.48031
_cell_length_b       10.80274
_cell_length_c       10.68602
_cell_angle_alpha    63.70313
_cell_angle_beta     65.83258999999998
_cell_angle_gamma    68.56392

_symmetry_space_group_name_H-M    'P 1'
_symmetry_Int_Tables_number       1

loop_
  _symmetry_equiv_pos_as_xyz
  'x,y,z'

loop_
  _atom_site_type_symbol
  _atom_site_label
  _atom_site_symmetry_multiplicity
  _atom_site_fract_x
  _atom_site_fract_y
  _atom_site_fract_z
  _atom_site_occupancy
  La  La1       1.0  0.2854999999999999  0.9977800000000001  0.50631  1.0000
  La  La2       1.0  0.7145  0.00222  0.4936900000000001  1.0000
  H   H1        1.0  0.5107  0.60706  0.322  1.0000
  H   H2        1.0  0.6735000000000002  0.36138000000000003  0.3399  1.0000
  H   H3        1.0  0.03170999999999996  0.45150000000000007  0.41375  1.0000
  H   H4        1.0  0.8690899999999999  0.6951400000000001  0.40023  1.0000
  H   H5        1.0  0.72166  0.6232499999999999  0.88573  1.0000
  H   H6        1.0  0.25669999999999993  0.6187699999999999  0.91976  1.0000
  H   H7        1.0  0.48929999999999996  0.39294  0.67799  1.0000
  H   H8        1.0  0.32650000000000007  0.63862  0.66009  1.0000
  H   H9        1.0  0.9682899999999998  0.5485  0.5862400000000001  1.0000
  H   H10       1.0  0.13090999999999992  0.30486000000000013  0.59977  1.0000
  H   H11       1.0  0.27834  0.37676  0.11427000000000001  1.0000
  H   H12       1.0  0.7433  0.38124  0.08024000000000002  1.0000
  C   C1        1.0  0.56549  0.79885  0.38273  1.0000
  C   C2        1.0  0.6770399999999999  0.6647400000000002  0.36472000000000004  1.0000
  C   C3        1.0  0.6251799999999997  0.5722400000000002  0.34169  1.0000
  C   C4        1.0  0.71548  0.43512000000000006  0.3525800000000001  1.0000
  C   C5        1.0  0.85901  0.3892  0.38578000000000007  1.0000
  C   C6        1.0  0.9170199999999998  0.48627  0.39503000000000005  1.0000
  C   C7        1.0  0.8265599999999999  0.62269  0.38599  1.0000
  C   C8        1.0  0.05555999999999998  0.7636899999999999  0.57641  1.0000
  C   C9        1.0  0.47805999999999993  0.7759900000000001  0.77278  1.0000
  C   C10       1.0  0.48826  0.63443  0.8917000000000002  1.0000
  C   C11       1.0  0.6257399999999997  0.5681  0.9368200000000001  1.0000
  C   C12       1.0  0.3624799999999999  0.56565  0.9556400000000002  1.0000
  C   C13       1.0  0.4345100000000001  0.20115  0.61726  1.0000
  C   C14       1.0  0.32295999999999997  0.33526  0.6352800000000001  1.0000
  C   C15       1.0  0.37482000000000004  0.4277500000000001  0.65831  1.0000
  C   C16       1.0  0.28451999999999994  0.5648800000000002  0.64742  1.0000
  C   C17       1.0  0.14098999999999995  0.6108  0.6142200000000001  1.0000
  C   C18       1.0  0.08297999999999996  0.5137400000000001  0.6049700000000001  1.0000
  C   C19       1.0  0.1734299999999999  0.37731000000000015  0.61401  1.0000
  C   C20       1.0  0.9444499999999998  0.23631000000000008  0.42359  1.0000
  C   C21       1.0  0.52192  0.22401  0.22722  1.0000
  C   C22       1.0  0.5117399999999999  0.3655700000000001  0.10830000000000001  1.0000
  C   C23       1.0  0.37426  0.43190000000000006  0.06317000000000002  1.0000
  C   C24       1.0  0.63752  0.43435  0.04436  1.0000
  O   O1        1.0  0.42877  0.83235  0.36726  1.0000
  O   O2        1.0  0.60353  0.87361  0.42616000000000004  1.0000
  O   O3        1.0  0.9412200000000001  0.80149  0.52332  1.0000
  O   O4        1.0  0.10169000000000002  0.8499100000000003  0.59484  1.0000
  O   O5        1.0  0.3574099999999999  0.82517  0.7250700000000001  1.0000
  O   O6        1.0  0.59099  0.8381500000000001  0.72407  1.0000
  O   O7        1.0  0.57124  0.16764999999999997  0.6327300000000001  1.0000
  O   O8        1.0  0.3964699999999999  0.12639000000000006  0.57384  1.0000
  O   O9        1.0  0.058770000000000024  0.19851  0.47667000000000004  1.0000
  O   O10       1.0  0.89831  0.15008  0.40516  1.0000
  O   O11       1.0  0.6426  0.17483000000000004  0.27493000000000006  1.0000
  O   O12       1.0  0.40901000000000004  0.16184999999999997  0.27592000000000005  1.0000
