data_image0
_chemical_formula_structural       Sr4H16C24S2N4O18
_chemical_formula_sum              "Sr4 H16 C24 S2 N4 O18"
_cell_length_a       8.15071
_cell_length_b       11.83727
_cell_length_c       11.96506
_cell_angle_alpha    108.58023000000001
_cell_angle_beta     100.70905
_cell_angle_gamma    101.11328

_space_group_name_H-M_alt    "P 1"
_space_group_IT_number       1

loop_
  _space_group_symop_operation_xyz
  'x, y, z'

loop_
  _atom_site_type_symbol
  _atom_site_label
  _atom_site_symmetry_multiplicity
  _atom_site_fract_x
  _atom_site_fract_y
  _atom_site_fract_z
  _atom_site_occupancy
  Sr  Sr1       1.0  0.50674  0.41184  0.82744  1.0000
  Sr  Sr2       1.0  0.71614  0.96859  0.43013  1.0000
  Sr  Sr3       1.0  0.49325  0.58812  0.17257000000000003  1.0000
  Sr  Sr4       1.0  0.28386  0.03138999999999999  0.56986  1.0000
  H   H1        1.0  0.4242900000000001  0.30802  0.4650100000000001  1.0000
  H   H2        1.0  0.40943  0.24286  0.30693  1.0000
  H   H3        1.0  0.12730000000000005  0.70213  0.39175  1.0000
  H   H4        1.0  0.08006999999999995  0.6894999999999999  0.23651  1.0000
  H   H5        1.0  0.05721  0.49375  0.14457  1.0000
  H   H6        1.0  0.9164899999999998  0.37514  0.16357  1.0000
  H   H7        1.0  0.63513  0.20423  0.68247  1.0000
  H   H8        1.0  0.66135  0.20858000000000002  0.81679  1.0000
  H   H9        1.0  0.57575  0.69199  0.53501  1.0000
  H   H10       1.0  0.5906  0.75715  0.69309  1.0000
  H   H11       1.0  0.8727  0.29787  0.60825  1.0000
  H   H12       1.0  0.91994  0.3105  0.7634900000000001  1.0000
  H   H13       1.0  0.9428000000000001  0.50624  0.8554200000000002  1.0000
  H   H14       1.0  0.08351000000000007  0.62485  0.8364200000000002  1.0000
  H   H15       1.0  0.36487  0.79573  0.31751  1.0000
  H   H16       1.0  0.33866999999999997  0.7914099999999998  0.1832  1.0000
  C   C1        1.0  0.82732  0.51699  0.34265  1.0000
  C   C2        1.0  0.6923700000000002  0.40742  0.30843000000000004  1.0000
  C   C3        1.0  0.63864  0.39046  0.41123  1.0000
  C   C4        1.0  0.72645  0.48725  0.51953  1.0000
  C   C5        1.0  0.60255  0.33277  0.18591  1.0000
  C   C6        1.0  0.4994799999999999  0.28057  0.39921  1.0000
  C   C7        1.0  0.5738  0.17852000000000007  0.4196400000000001  1.0000
  C   C8        1.0  0.70862  0.50571  0.64479  1.0000
  C   C9        1.0  0.021209999999999958  0.68183  0.31019  1.0000
  C   C10       1.0  0.9277299999999999  0.78355  0.33816  1.0000
  C   C11       1.0  0.92661  0.46567  0.15537  1.0000
  C   C12       1.0  0.7972099999999998  0.45246  0.0398  1.0000
  C   C13       1.0  0.17270999999999995  0.483  0.65736  1.0000
  C   C14       1.0  0.30764  0.59257  0.69157  1.0000
  C   C15       1.0  0.36138999999999993  0.60955  0.58878  1.0000
  C   C16       1.0  0.2735799999999999  0.51276  0.48047  1.0000
  C   C17       1.0  0.39747  0.6673  0.81415  1.0000
  C   C18       1.0  0.50055  0.71944  0.6008100000000001  1.0000
  C   C19       1.0  0.42621  0.8214799999999999  0.5803800000000001  1.0000
  C   C20       1.0  0.29145  0.49433  0.35522  1.0000
  C   C21       1.0  0.9787900000000002  0.31817000000000006  0.6898000000000001  1.0000
  C   C22       1.0  0.07227000000000004  0.21644000000000005  0.6618400000000001  1.0000
  C   C23       1.0  0.07339999999999997  0.53432  0.84462  1.0000
  C   C24       1.0  0.20279999999999995  0.54754  0.96019  1.0000
  S   S1        1.0  0.8760599999999997  0.60201  0.49893  1.0000
  S   S2        1.0  0.12397000000000002  0.39799999999999996  0.5010700000000001  1.0000
  N   N1        1.0  0.52368  0.27937  0.08292  1.0000
  N   N2        1.0  0.91399  0.55541  0.26801  1.0000
  N   N3        1.0  0.47625000000000006  0.72065  0.91704  1.0000
  N   N4        1.0  0.08601999999999997  0.4445799999999999  0.73198  1.0000
  O   O1        1.0  0.70471  0.15804  0.38243000000000005  1.0000
  O   O2        1.0  0.49994  0.11336000000000002  0.47462000000000004  1.0000
  O   O3        1.0  0.63241  0.40646  0.66012  1.0000
  O   O4        1.0  0.7682299999999997  0.61142  0.72699  1.0000
  O   O5        1.0  0.76342  0.75898  0.302  1.0000
  O   O6        1.0  0.02232999999999994  0.8940399999999998  0.39893000000000006  1.0000
  O   O7        1.0  0.79425  0.37177999999999994  0.93912  1.0000
  O   O8        1.0  0.6970799999999998  0.52451  0.04774  1.0000
  O   O9        1.0  0.57464  0.17866  0.73746  1.0000
  O   O10       1.0  0.29527  0.84192  0.61755  1.0000
  O   O11       1.0  0.5000899999999998  0.8866599999999999  0.52543  1.0000
  O   O12       1.0  0.36752  0.59362  0.33989  1.0000
  O   O13       1.0  0.23198999999999997  0.38862  0.27303000000000005  1.0000
  O   O14       1.0  0.23658  0.241  0.698  1.0000
  O   O15       1.0  0.97767  0.10594  0.60107  1.0000
  O   O16       1.0  0.20576  0.62821  0.06088  1.0000
  O   O17       1.0  0.30293999999999993  0.47550000000000003  0.9522600000000001  1.0000
  O   O18       1.0  0.42536  0.82135  0.26255  1.0000
