data_image0
_chemical_formula_structural       Cd4H2C18N2O16
_chemical_formula_sum              "Cd4 H2 C18 N2 O16"
_cell_length_a       8.05888
_cell_length_b       8.75634
_cell_length_c       11.38962
_cell_angle_alpha    97.66551
_cell_angle_beta     55.50307
_cell_angle_gamma    72.68753

_space_group_name_H-M_alt    "P 1"
_space_group_IT_number       1

loop_
  _space_group_symop_operation_xyz
  'x, y, z'

loop_
  _atom_site_type_symbol
  _atom_site_label
  _atom_site_symmetry_multiplicity
  _atom_site_fract_x
  _atom_site_fract_y
  _atom_site_fract_z
  _atom_site_occupancy
  Cd  Cd1       1.0  0.20397000000000026  0.7693999999999996  0.9177599999999999  1.0000
  Cd  Cd2       1.0  0.22568000000000005  0.30823  0.50269  1.0000
  Cd  Cd3       1.0  0.79602  0.23060999999999995  0.08224  1.0000
  Cd  Cd4       1.0  0.7743100000000002  0.6917799999999997  0.49732000000000004  1.0000
  H   H1        1.0  0.30772  0.11634  0.058320000000000004  1.0000
  H   H2        1.0  0.6922800000000001  0.8836599999999997  0.9416899999999999  1.0000
  C   C1        1.0  0.17013000000000003  0.70043  0.19064999999999996  1.0000
  C   C2        1.0  0.23586  0.52513  0.08871  1.0000
  C   C3        1.0  0.26348  0.3763499999999999  0.12319999999999999  1.0000
  C   C4        1.0  0.23556000000000005  0.36940000000000006  0.2638  1.0000
  C   C5        1.0  0.29909  0.22998999999999994  0.02844  1.0000
  C   C6        1.0  0.31508  0.22928999999999986  0.8992899999999999  1.0000
  C   C7        1.0  0.3531500000000001  0.06304999999999993  0.8074299999999999  1.0000
  C   C8        1.0  0.28971  0.3819999999999999  0.87015  1.0000
  C   C9        1.0  0.28280000000000005  0.41223  0.74412  1.0000
  C   C10       1.0  0.82986  0.29957  0.80936  1.0000
  C   C11       1.0  0.76414  0.47487  0.9113  1.0000
  C   C12       1.0  0.7365099999999999  0.6236599999999998  0.87681  1.0000
  C   C13       1.0  0.7644400000000001  0.6306  0.7362  1.0000
  C   C14       1.0  0.7009000000000004  0.7700199999999997  0.9715699999999999  1.0000
  C   C15       1.0  0.6849100000000001  0.7707099999999998  0.10072  1.0000
  C   C16       1.0  0.64682  0.9369699999999997  0.19261  1.0000
  C   C17       1.0  0.7102699999999998  0.6180099999999997  0.12986  1.0000
  C   C18       1.0  0.71719  0.58777  0.25588  1.0000
  N   N1        1.0  0.24931000000000011  0.52177  0.9656599999999999  1.0000
  N   N2        1.0  0.75069  0.47824  0.03434  1.0000
  O   O1        1.0  0.19296999999999995  0.8143  0.13333  1.0000
  O   O2        1.0  0.09659000000000005  0.7171099999999998  0.32647  1.0000
  O   O3        1.0  0.05054000000000003  0.37941  0.37596  1.0000
  O   O4        1.0  0.40024  0.34132  0.26454  1.0000
  O   O5        1.0  0.18865000000000004  0.02284  0.88474  1.0000
  O   O6        1.0  0.539  0.9742499999999997  0.67611  1.0000
  O   O7        1.0  0.29698  0.28577  0.66277  1.0000
  O   O8        1.0  0.25562999999999997  0.55716  0.73206  1.0000
  O   O9        1.0  0.8070300000000001  0.18569999999999995  0.86668  1.0000
  O   O10       1.0  0.9033899999999999  0.2828999999999999  0.67354  1.0000
  O   O11       1.0  0.94945  0.62059  0.62405  1.0000
  O   O12       1.0  0.5997600000000001  0.65869  0.73547  1.0000
  O   O13       1.0  0.8113499999999999  0.97716  0.11526  1.0000
  O   O14       1.0  0.46104  0.025739999999999978  0.32389  1.0000
  O   O15       1.0  0.70303  0.7142399999999999  0.33723  1.0000
  O   O16       1.0  0.74436  0.44284  0.26795  1.0000
