data_image0
_chemical_formula_structural       In4H4C32O20F16
_chemical_formula_sum              "In4 H4 C32 O20 F16"
_cell_length_a       11.22259
_cell_length_b       11.217
_cell_length_c       14.30202
_cell_angle_alpha    71.71216
_cell_angle_beta     71.67885
_cell_angle_gamma    85.99929

_space_group_name_H-M_alt    "P 1"
_space_group_IT_number       1

loop_
  _space_group_symop_operation_xyz
  'x, y, z'

loop_
  _atom_site_type_symbol
  _atom_site_label
  _atom_site_symmetry_multiplicity
  _atom_site_fract_x
  _atom_site_fract_y
  _atom_site_fract_z
  _atom_site_occupancy
  In  In1       1.0  0.0  0.0  0.5  1.0000
  In  In2       1.0  0.0  0.0  0.0  1.0000
  In  In3       1.0  0.9565  0.043570000000000005  0.25002  1.0000
  In  In4       1.0  0.043499999999999955  0.95643  0.7499800000000001  1.0000
  H   H1        1.0  0.84637  0.9069  0.43590000000000007  1.0000
  H   H2        1.0  0.09311  0.15364  0.06411  1.0000
  H   H3        1.0  0.15362000000000006  0.09310000000000004  0.5641  1.0000
  H   H4        1.0  0.90688  0.84636  0.9358900000000002  1.0000
  C   C1        1.0  0.08595  0.27622  0.43188  1.0000
  C   C2        1.0  0.06747999999999998  0.4126  0.37621  1.0000
  C   C3        1.0  0.9468300000000002  0.46183000000000013  0.3957600000000001  1.0000
  C   C4        1.0  0.9244699999999999  0.58357  0.3415500000000001  1.0000
  C   C5        1.0  0.02291999999999998  0.6605300000000002  0.26365  1.0000
  C   C6        1.0  0.14397999999999997  0.6130400000000001  0.24403  1.0000
  C   C7        1.0  0.16613999999999998  0.49215000000000003  0.30091  1.0000
  C   C8        1.0  0.99892  0.7908099999999998  0.20676000000000005  1.0000
  C   C9        1.0  0.72379  0.9140300000000002  0.06811000000000002  1.0000
  C   C10       1.0  0.58743  0.9325100000000001  0.12381  1.0000
  C   C11       1.0  0.53819  0.05316999999999999  0.10423  1.0000
  C   C12       1.0  0.41644  0.07553999999999998  0.15841000000000002  1.0000
  C   C13       1.0  0.33946000000000004  0.9770899999999998  0.23628000000000005  1.0000
  C   C14       1.0  0.38696  0.85601  0.25594  1.0000
  C   C15       1.0  0.50787  0.8338399999999997  0.19909000000000004  1.0000
  C   C16       1.0  0.20919999999999997  0.001069999999999971  0.29317000000000004  1.0000
  C   C17       1.0  0.91405  0.7237700000000002  0.56812  1.0000
  C   C18       1.0  0.9325100000000002  0.5874  0.62379  1.0000
  C   C19       1.0  0.05315999999999997  0.5381600000000001  0.60424  1.0000
  C   C20       1.0  0.07552000000000003  0.4164300000000001  0.65845  1.0000
  C   C21       1.0  0.9770700000000001  0.33947  0.73635  1.0000
  C   C22       1.0  0.8560100000000002  0.38696  0.75597  1.0000
  C   C23       1.0  0.83385  0.50785  0.69909  1.0000
  C   C24       1.0  0.0010699999999999935  0.20919  0.79324  1.0000
  C   C25       1.0  0.27620999999999996  0.08595999999999994  0.9318900000000002  1.0000
  C   C26       1.0  0.4125699999999999  0.06748999999999994  0.8761900000000002  1.0000
  C   C27       1.0  0.46181000000000033  0.94683  0.89576  1.0000
  C   C28       1.0  0.58355  0.9244600000000001  0.8415900000000002  1.0000
  C   C29       1.0  0.66053  0.022909999999999982  0.76372  1.0000
  C   C30       1.0  0.6130299999999999  0.14399  0.7440600000000002  1.0000
  C   C31       1.0  0.49212999999999996  0.16616  0.80091  1.0000
  C   C32       1.0  0.7908000000000001  0.99892  0.70683  1.0000
  O   O1        1.0  0.01979999999999995  0.19896  0.4150600000000001  1.0000
  O   O2        1.0  0.15707  0.24883999999999995  0.4865000000000001  1.0000
  O   O3        1.0  0.049609999999999994  0.83026  0.10994000000000002  1.0000
  O   O4        1.0  0.92742  0.85305  0.26348000000000005  1.0000
  O   O5        1.0  0.8725600000000001  0.9990500000000001  0.4074500000000001  1.0000
  O   O6        1.0  0.80103  0.9801700000000002  0.08495000000000003  1.0000
  O   O7        1.0  0.75116  0.8429  0.01343  1.0000
  O   O8        1.0  0.16972999999999996  0.95038  0.3899900000000001  1.0000
  O   O9        1.0  0.14696999999999996  0.07255999999999999  0.23649000000000006  1.0000
  O   O10       1.0  0.0009699999999999933  0.12746  0.09260000000000003  1.0000
  O   O11       1.0  0.9802  0.8010300000000001  0.58494  1.0000
  O   O12       1.0  0.84292  0.75115  0.5135  1.0000
  O   O13       1.0  0.95038  0.16974  0.89006  1.0000
  O   O14       1.0  0.07258000000000003  0.14694000000000002  0.73652  1.0000
  O   O15       1.0  0.12744  0.0009400000000000125  0.59255  1.0000
  O   O16       1.0  0.19896999999999995  0.01982999999999991  0.9150400000000002  1.0000
  O   O17       1.0  0.24884000000000003  0.15710000000000002  0.9865700000000001  1.0000
  O   O18       1.0  0.8302700000000001  0.04962000000000001  0.61001  1.0000
  O   O19       1.0  0.85302  0.9274400000000002  0.7635100000000002  1.0000
  O   O20       1.0  0.99902  0.87254  0.9074000000000001  1.0000
  F   F1        1.0  0.84795  0.3922  0.46847  1.0000
  F   F2        1.0  0.80621  0.6240400000000003  0.36116  1.0000
  F   F3        1.0  0.24220999999999993  0.6847099999999999  0.17146000000000006  1.0000
  F   F4        1.0  0.28509  0.45362  0.27808  1.0000
  F   F5        1.0  0.60783  0.15206  0.03152  1.0000
  F   F6        1.0  0.37595  0.19381  0.13883  1.0000
  F   F7        1.0  0.3153  0.75779  0.3285300000000001  1.0000
  F   F8        1.0  0.54639  0.71487  0.22192000000000003  1.0000
  F   F9        1.0  0.15204  0.6078  0.53152  1.0000
  F   F10       1.0  0.19378000000000004  0.37595  0.63884  1.0000
  F   F11       1.0  0.7577800000000001  0.31529  0.8285400000000003  1.0000
  F   F12       1.0  0.7149  0.54638  0.7219200000000002  1.0000
  F   F13       1.0  0.3921599999999999  0.84794  0.9684800000000002  1.0000
  F   F14       1.0  0.6240399999999999  0.8061800000000002  0.86116  1.0000
  F   F15       1.0  0.6846999999999999  0.24220999999999995  0.6714700000000001  1.0000
  F   F16       1.0  0.4535999999999999  0.28513  0.7780700000000002  1.0000
