data_image0
_chemical_formula_structural       Pr2CuH12C32N4O24
_chemical_formula_sum              "Pr2 Cu1 H12 C32 N4 O24"
_cell_length_a       10.59235
_cell_length_b       10.6955
_cell_length_c       11.499949999999998
_cell_angle_alpha    82.57604
_cell_angle_beta     73.91649
_cell_angle_gamma    69.52518

_space_group_name_H-M_alt    "P 1"
_space_group_IT_number       1

loop_
  _space_group_symop_operation_xyz
  'x, y, z'

loop_
  _atom_site_type_symbol
  _atom_site_label
  _atom_site_symmetry_multiplicity
  _atom_site_fract_x
  _atom_site_fract_y
  _atom_site_fract_z
  _atom_site_occupancy
  Pr  Pr1       1.0  0.58557  0.59332  0.63422  1.0000
  Pr  Pr2       1.0  0.41465  0.40717  0.36577  1.0000
  Cu  Cu1       1.0  0.00021000000000001356  0.49991  0.50005  1.0000
  H   H1        1.0  0.36032999999999993  0.9899599999999998  0.46919  1.0000
  H   H2        1.0  0.98228  0.17598999999999998  0.35244  1.0000
  H   H3        1.0  0.17946000000000006  0.7515599999999998  0.33647  1.0000
  H   H4        1.0  0.67383  0.48184  0.9442099999999999  1.0000
  H   H5        1.0  0.91504  0.3239099999999999  0.20851  1.0000
  H   H6        1.0  0.12216  0.33581  0.83032  1.0000
  H   H7        1.0  0.63955  0.010099999999999996  0.53089  1.0000
  H   H8        1.0  0.01775999999999998  0.8240899999999999  0.64748  1.0000
  H   H9        1.0  0.8204199999999999  0.24843999999999994  0.66357  1.0000
  H   H10       1.0  0.32645  0.51826  0.05551  1.0000
  H   H11       1.0  0.08537000000000015  0.67579  0.79145  1.0000
  H   H12       1.0  0.8783000000000002  0.6640999999999999  0.16931  1.0000
  C   C1        1.0  0.28078000000000003  0.85676  0.40779  1.0000
  C   C2        1.0  0.2802500000000002  0.9828099999999997  0.43126  1.0000
  C   C3        1.0  0.17377999999999996  0.09820000000000001  0.41045999999999994  1.0000
  C   C4        1.0  0.06833999999999998  0.08850000000000001  0.3649  1.0000
  C   C5        1.0  0.07396999999999998  0.9642  0.33694  1.0000
  C   C6        1.0  0.17867000000000008  0.8478099999999998  0.35719  1.0000
  C   C7        1.0  0.3884700000000003  0.73204  0.43836  1.0000
  C   C8        1.0  0.16629999999999998  0.23496  0.43493  1.0000
  C   C9        1.0  0.89759  0.41534999999999994  0.8732999999999999  1.0000
  C   C10       1.0  0.77462  0.43846  0.96537  1.0000
  C   C11       1.0  0.78181  0.40395999999999993  0.08574  1.0000
  C   C12       1.0  0.91032  0.34886999999999996  0.11495  1.0000
  C   C13       1.0  0.030920000000000003  0.32529  0.0216  1.0000
  C   C14       1.0  0.02667999999999999  0.35681  0.90132  1.0000
  C   C15       1.0  0.89535  0.45174  0.74401  1.0000
  C   C16       1.0  0.6522400000000002  0.4183599999999999  0.18366  1.0000
  C   C17       1.0  0.71888  0.14318  0.59202  1.0000
  C   C18       1.0  0.7196500000000001  0.01712  0.56883  1.0000
  C   C19       1.0  0.8262600000000002  0.90189  0.58959  1.0000
  C   C20       1.0  0.9315799999999999  0.91162  0.63526  1.0000
  C   C21       1.0  0.92575  0.03603  0.66308  1.0000
  C   C22       1.0  0.82096  0.15238  0.64268  1.0000
  C   C23       1.0  0.6122099999999999  0.26749  0.55959  1.0000
  C   C24       1.0  0.8335  0.7652299999999999  0.56529  1.0000
  C   C25       1.0  0.10258  0.58453  0.12614  1.0000
  C   C26       1.0  0.22583000000000003  0.56176  0.03424  1.0000
  C   C27       1.0  0.21932  0.59569  0.91371  1.0000
  C   C28       1.0  0.09055000000000003  0.6508499999999998  0.88481  1.0000
  C   C29       1.0  0.9697500000000001  0.6745399999999999  0.97796  1.0000
  C   C30       1.0  0.97368  0.64314  0.09821  1.0000
  C   C31       1.0  0.10428  0.54842  0.25554  1.0000
  C   C32       1.0  0.34840999999999994  0.58269  0.81541  1.0000
  N   N1        1.0  0.9629400000000001  0.9567599999999998  0.28671  1.0000
  N   N2        1.0  0.16751000000000005  0.2668  0.05029  1.0000
  N   N3        1.0  0.03696  0.04328  0.71333  1.0000
  N   N4        1.0  0.8328499999999999  0.73308  0.94956  1.0000
  O   O1        1.0  0.38567  0.61915  0.41470000000000007  1.0000
  O   O2        1.0  0.47503000000000006  0.74294  0.4904899999999999  1.0000
  O   O3        1.0  0.2764  0.2590199999999999  0.4327  1.0000
  O   O4        1.0  0.04281000000000003  0.31822  0.45884  1.0000
  O   O5        1.0  0.87647  0.06298999999999999  0.26221  1.0000
  O   O6        1.0  0.96214  0.84358  0.27367  1.0000
  O   O7        1.0  0.011060000000000016  0.4441  0.6689  1.0000
  O   O8        1.0  0.77951  0.4860699999999999  0.71448  1.0000
  O   O9        1.0  0.53361  0.46057  0.15849  1.0000
  O   O10       1.0  0.6635299999999998  0.38108999999999993  0.2921  1.0000
  O   O11       1.0  0.16859000000000002  0.25192  0.15936  1.0000
  O   O12       1.0  0.2729  0.23751999999999993  0.9650400000000001  1.0000
  O   O13       1.0  0.61699  0.38031999999999994  0.58133  1.0000
  O   O14       1.0  0.52487  0.25632  0.50843  1.0000
  O   O15       1.0  0.72283  0.74181  0.56722  1.0000
  O   O16       1.0  0.9566099999999998  0.6818  0.54114  1.0000
  O   O17       1.0  0.12350000000000001  0.93703  0.7377  1.0000
  O   O18       1.0  0.03791000000000002  0.1564  0.72634  1.0000
  O   O19       1.0  0.98866  0.5559899999999999  0.33096  1.0000
  O   O20       1.0  0.22027  0.51397  0.28476  1.0000
  O   O21       1.0  0.46775  0.5414299999999999  0.8401100000000001  1.0000
  O   O22       1.0  0.3362799999999999  0.61776  0.70714  1.0000
  O   O23       1.0  0.83144  0.74803  0.8405500000000001  1.0000
  O   O24       1.0  0.7276400000000001  0.7623699999999998  0.03489  1.0000
