data_image0
_chemical_formula_structural       Cd2H12C18S6
_chemical_formula_sum              "Cd2 H12 C18 S6"
_cell_length_a       8.41756
_cell_length_b       9.50916
_cell_length_c       11.749459999999997
_cell_angle_alpha    97.92786999999998
_cell_angle_beta     98.45562
_cell_angle_gamma    128.85441

_symmetry_space_group_name_H-M    'P 1'
_symmetry_Int_Tables_number       1

loop_
  _symmetry_equiv_pos_as_xyz
  'x,y,z'

loop_
  _atom_site_type_symbol
  _atom_site_label
  _atom_site_symmetry_multiplicity
  _atom_site_fract_x
  _atom_site_fract_y
  _atom_site_fract_z
  _atom_site_occupancy
  Cd  Cd1       1.0  0.8809899999999998  0.8616699999999998  0.85352  1.0000
  Cd  Cd2       1.0  0.11901  0.13833  0.14648  1.0000
  H   H1        1.0  0.3557300000000002  0.9910700000000001  0.7969100000000002  1.0000
  H   H2        1.0  0.50187  0.16615999999999997  0.18250000000000002  1.0000
  H   H3        1.0  0.6803800000000004  0.97066  0.45369  1.0000
  H   H4        1.0  0.12740999999999963  0.9812699999999995  0.69746  1.0000
  H   H5        1.0  0.02599999999999988  0.7790199999999998  0.04182000000000001  1.0000
  H   H6        1.0  0.9165099999999999  0.32579999999999987  0.79058  1.0000
  H   H7        1.0  0.64426  0.008930000000000002  0.20308  1.0000
  H   H8        1.0  0.49811999999999984  0.8338299999999997  0.81749  1.0000
  H   H9        1.0  0.31960999999999995  0.029339999999999977  0.54631  1.0000
  H   H10       1.0  0.8725799999999999  0.018729999999999983  0.30253  1.0000
  H   H11       1.0  0.974  0.22098000000000007  0.95818  1.0000
  H   H12       1.0  0.08348000000000004  0.6742  0.20942000000000002  1.0000
  C   C1        1.0  0.41087  0.08582000000000001  0.98851  1.0000
  C   C2        1.0  0.4144900000000001  0.99259  0.8861300000000001  1.0000
  C   C3        1.0  0.49983000000000005  0.09285  0.10225  1.0000
  C   C4        1.0  0.8207799999999998  0.9845499999999999  0.47358  1.0000
  C   C5        1.0  0.07066999999999998  0.98744  0.61027  1.0000
  C   C6        1.0  0.8872099999999999  0.9693699999999998  0.58634  1.0000
  C   C7        1.0  0.013449999999999993  0.65623  0.023380000000000005  1.0000
  C   C8        1.0  0.9615500000000001  0.55827  0.9023500000000001  1.0000
  C   C9        1.0  0.9526199999999999  0.40179000000000004  0.8820000000000001  1.0000
  C   C10       1.0  0.5891199999999999  0.9141699999999998  0.01149  1.0000
  C   C11       1.0  0.5855  0.00741  0.11387  1.0000
  C   C12       1.0  0.50016  0.90715  0.8977400000000001  1.0000
  C   C13       1.0  0.1792100000000001  0.015450000000000018  0.52642  1.0000
  C   C14       1.0  0.9293300000000001  0.012559999999999993  0.38973  1.0000
  C   C15       1.0  0.11279  0.03063  0.41366  1.0000
  C   C16       1.0  0.98655  0.34376999999999996  0.9766200000000002  1.0000
  C   C17       1.0  0.03845  0.44173  0.09765  1.0000
  C   C18       1.0  0.04737000000000001  0.59821  0.118  1.0000
  S   S1        1.0  0.2886900000000001  0.1815700000000001  0.9715800000000001  1.0000
  S   S2        1.0  0.7354399999999999  0.9242799999999999  0.68341  1.0000
  S   S3        1.0  0.9107900000000001  0.6178  0.7788600000000001  1.0000
  S   S4        1.0  0.71131  0.81843  0.028420000000000004  1.0000
  S   S5        1.0  0.26455  0.07572  0.31658  1.0000
  S   S6        1.0  0.08921000000000005  0.3821899999999999  0.22114  1.0000
