data_image0
_chemical_formula_structural       U6P8H16C24O24F2
_chemical_formula_sum              "U6 P8 H16 C24 O24 F2"
_cell_length_a       8.96801
_cell_length_b       10.93499
_cell_length_c       17.1951
_cell_angle_alpha    91.31381
_cell_angle_beta     89.52331999999998
_cell_angle_gamma    133.11300000000003

_space_group_name_H-M_alt    "P 1"
_space_group_IT_number       1

loop_
  _space_group_symop_operation_xyz
  'x, y, z'

loop_
  _atom_site_type_symbol
  _atom_site_label
  _atom_site_symmetry_multiplicity
  _atom_site_fract_x
  _atom_site_fract_y
  _atom_site_fract_z
  _atom_site_occupancy
  U   U1        1.0  0.22527999999999992  0.9248199999999998  0.5586499999999998  1.0000
  U   U2        1.0  0.77727  0.07676  0.06053999999999999  1.0000
  U   U3        1.0  0.77269  0.06799999999999998  0.4427699999999999  1.0000
  U   U4        1.0  0.23030000000000003  0.92749  0.93988  1.0000
  U   U5        1.0  0.19875000000000007  0.78753  0.2501699999999999  1.0000
  U   U6        1.0  0.80699  0.21416999999999994  0.75109  1.0000
  P   P1        1.0  0.23775  0.68758  0.4071399999999999  1.0000
  P   P2        1.0  0.05554000000000002  0.13892  0.6015899999999997  1.0000
  P   P3        1.0  0.7646  0.30923  0.91217  1.0000
  P   P4        1.0  0.9737399999999999  0.8847899999999997  0.10308999999999997  1.0000
  P   P5        1.0  0.76538  0.3084099999999999  0.59383  1.0000
  P   P6        1.0  0.94301  0.8546399999999997  0.39883999999999986  1.0000
  P   P7        1.0  0.24107  0.69447  0.08857  1.0000
  P   P8        1.0  0.03587999999999998  0.12050999999999998  0.8973799999999997  1.0000
  H   H1        1.0  0.24724  0.4293  0.35431999999999997  1.0000
  H   H2        1.0  0.19253  0.21338  0.4346899999999999  1.0000
  H   H3        1.0  0.29823  0.48927  0.64273  1.0000
  H   H4        1.0  0.36327  0.70598  0.56423  1.0000
  H   H5        1.0  0.7378999999999999  0.55324  0.86088  1.0000
  H   H6        1.0  0.8048699999999998  0.7806499999999997  0.9405699999999999  1.0000
  H   H7        1.0  0.72709  0.53523  0.14958  1.0000
  H   H8        1.0  0.65297  0.30784  0.07161  1.0000
  H   H9        1.0  0.75035  0.56357  0.64619  1.0000
  H   H10       1.0  0.8039999999999999  0.7788  0.56554  1.0000
  H   H11       1.0  0.7029399999999999  0.50384  0.35776  1.0000
  H   H12       1.0  0.6383099999999998  0.2877299999999999  0.4367699999999999  1.0000
  H   H13       1.0  0.27049  0.45182  0.14007  1.0000
  H   H14       1.0  0.20422999999999994  0.22481999999999994  0.06025  1.0000
  H   H15       1.0  0.27929999999999994  0.4695199999999999  0.85137  1.0000
  H   H16       1.0  0.3522000000000001  0.69617  0.9294499999999998  1.0000
  C   C1        1.0  0.29565999999999987  0.57744  0.45423  1.0000
  C   C2        1.0  0.25864000000000004  0.44239  0.41755  1.0000
  C   C3        1.0  0.22342  0.31959  0.46254  1.0000
  C   C4        1.0  0.22176000000000004  0.32889  0.54481  1.0000
  C   C5        1.0  0.29380999999999996  0.47785  0.57969  1.0000
  C   C6        1.0  0.3297099999999998  0.6002399999999998  0.53495  1.0000
  C   C7        1.0  0.70671  0.42083999999999994  0.96107  1.0000
  C   C8        1.0  0.7362499999999997  0.54945  0.92418  1.0000
  C   C9        1.0  0.7785299999999997  0.6790499999999998  0.96869  1.0000
  C   C10       1.0  0.7941999999999998  0.68306  0.05085  1.0000
  C   C11       1.0  0.72498  0.53865  0.08649999999999998  1.0000
  C   C12       1.0  0.68287  0.40941  0.04206999999999999  1.0000
  C   C13       1.0  0.70504  0.41657  0.5464299999999997  1.0000
  C   C14       1.0  0.7402  0.55087  0.58293  1.0000
  C   C15       1.0  0.77463  0.67317  0.53781  1.0000
  C   C16       1.0  0.7771699999999998  0.6640999999999998  0.45553  1.0000
  C   C17       1.0  0.70667  0.51548  0.42078  1.0000
  C   C18       1.0  0.6713499999999999  0.39345999999999987  0.46571  1.0000
  C   C19       1.0  0.29954999999999976  0.5832899999999998  0.03983999999999999  1.0000
  C   C20       1.0  0.2712499999999999  0.4552699999999999  0.07675  1.0000
  C   C21       1.0  0.22977999999999998  0.3261  0.03217  1.0000
  C   C22       1.0  0.2139799999999999  0.32196999999999987  0.9500099999999999  1.0000
  C   C23       1.0  0.28167999999999993  0.4659599999999999  0.9144099999999997  1.0000
  C   C24       1.0  0.32293  0.59474  0.9588599999999999  1.0000
  O   O1        1.0  0.08502999999999988  0.5773199999999998  0.3391999999999999  1.0000
  O   O2        1.0  0.14836999999999997  0.71586  0.47358  1.0000
  O   O3        1.0  0.43049  0.85452  0.36701  1.0000
  O   O4        1.0  0.99758  0.18397  0.67274  1.0000
  O   O5        1.0  0.86465  0.010419999999999995  0.54699  1.0000
  O   O6        1.0  0.15377999999999997  0.07  0.62118  1.0000
  O   O7        1.0  0.9194599999999999  0.42004999999999987  0.8463899999999998  1.0000
  O   O8        1.0  0.8541099999999999  0.28141  0.9770899999999999  1.0000
  O   O9        1.0  0.57179  0.14370999999999995  0.86792  1.0000
  O   O10       1.0  0.05392999999999996  0.85821  0.17219999999999996  1.0000
  O   O11       1.0  0.15053  0.0009299999999999993  0.04316999999999999  1.0000
  O   O12       1.0  0.8801299999999997  0.9578699999999998  0.12496  1.0000
  O   O13       1.0  0.9208299999999999  0.42195  0.66077  1.0000
  O   O14       1.0  0.85446  0.27965  0.52743  1.0000
  O   O15       1.0  0.5746399999999999  0.14316999999999994  0.63587  1.0000
  O   O16       1.0  0.9990800000000001  0.80883  0.32723  1.0000
  O   O17       1.0  0.13409  0.98206  0.45337999999999995  1.0000
  O   O18       1.0  0.8465999999999998  0.9249799999999998  0.37895  1.0000
  O   O19       1.0  0.0870199999999999  0.58344  0.1547  1.0000
  O   O20       1.0  0.15059999999999976  0.7213499999999998  0.02353  1.0000
  O   O21       1.0  0.43407  0.85984  0.13269  1.0000
  O   O22       1.0  0.95774  0.14816999999999994  0.82797  1.0000
  O   O23       1.0  0.85824  0.004619999999999993  0.9569699999999999  1.0000
  O   O24       1.0  0.12836999999999998  0.04658999999999997  0.8750899999999998  1.0000
  F   F1        1.0  0.50043  0.0035099999999999958  0.49966999999999995  1.0000
  F   F2        1.0  0.5032099999999999  0.9996599999999999  0.99992  1.0000
