data_image0
_chemical_formula_structural       Zn4H12C28N4O16
_chemical_formula_sum              "Zn4 H12 C28 N4 O16"
_cell_length_a       11.75522
_cell_length_b       10.30635
_cell_length_c       15.85064
_cell_angle_alpha    89.72643999999998
_cell_angle_beta     90.12349
_cell_angle_gamma    90.18665

_space_group_name_H-M_alt    "P 1"
_space_group_IT_number       1

loop_
  _space_group_symop_operation_xyz
  'x, y, z'

loop_
  _atom_site_type_symbol
  _atom_site_label
  _atom_site_symmetry_multiplicity
  _atom_site_fract_x
  _atom_site_fract_y
  _atom_site_fract_z
  _atom_site_occupancy
  Zn  Zn1       1.0  0.37402  0.76834  0.14294  1.0000
  Zn  Zn2       1.0  0.12358000000000002  0.23803000000000002  0.64321  1.0000
  Zn  Zn3       1.0  0.62544  0.26838  0.35641  1.0000
  Zn  Zn4       1.0  0.8758100000000002  0.73741  0.8576  1.0000
  H   H1        1.0  0.51661  0.51363  0.2956  1.0000
  H   H2        1.0  0.44479000000000013  0.24431  0.4857  1.0000
  H   H3        1.0  0.19728  0.54046  0.42594  1.0000
  H   H4        1.0  0.9780700000000002  0.48699000000000003  0.79945  1.0000
  H   H5        1.0  0.0553  0.75644  0.98687  1.0000
  H   H6        1.0  0.30315  0.46365  0.92336  1.0000
  H   H7        1.0  0.4822100000000001  0.01402  0.2028  1.0000
  H   H8        1.0  0.5553800000000001  0.74687  0.01367  1.0000
  H   H9        1.0  0.80575  0.0387  0.07774  1.0000
  H   H10       1.0  0.01784  0.98992  0.7033  1.0000
  H   H11       1.0  0.9434  0.25826  0.51332  1.0000
  H   H12       1.0  0.6967  0.9603799999999999  0.57426  1.0000
  C   C1        1.0  0.45794  0.47994  0.34394  1.0000
  C   C2        1.0  0.41732  0.32897  0.44974999999999987  1.0000
  C   C3        1.0  0.3118600000000001  0.38658  0.46449  1.0000
  C   C4        1.0  0.2797700000000001  0.49490000000000006  0.4165  1.0000
  C   C5        1.0  0.3545700000000001  0.54347  0.3555699999999999  1.0000
  C   C6        1.0  0.23439  0.33193  0.53017  1.0000
  C   C7        1.0  0.32182000000000005  0.65599  0.29891  1.0000
  C   C8        1.0  0.03852  0.52145  0.84637  1.0000
  C   C9        1.0  0.08184000000000001  0.67186  0.95109  1.0000
  C   C10       1.0  0.18793  0.61475  0.96495  1.0000
  C   C11       1.0  0.21973  0.50819  0.91601  1.0000
  C   C12       1.0  0.14331  0.46002000000000004  0.85601  1.0000
  C   C13       1.0  0.26535  0.6705  0.03024  1.0000
  C   C14       1.0  0.17615  0.35132  0.79737  1.0000
  C   C15       1.0  0.5417300000000002  0.98021  0.15538  1.0000
  C   C16       1.0  0.58307  0.8307200000000001  0.04998  1.0000
  C   C17       1.0  0.68983  0.8874000000000001  0.03657  1.0000
  C   C18       1.0  0.7222100000000001  0.9941300000000001  0.08547  1.0000
  C   C19       1.0  0.64638  0.04253  0.14535  1.0000
  C   C20       1.0  0.76787  0.83223  0.97169  1.0000
  C   C21       1.0  0.6793  0.15325  0.2029  1.0000
  C   C22       1.0  0.9586000000000002  0.023110000000000002  0.65512  1.0000
  C   C23       1.0  0.9165300000000002  0.1733  0.54934  1.0000
  C   C24       1.0  0.8108400000000002  0.11488  0.53503  1.0000
  C   C25       1.0  0.77937  0.00647  0.58323  1.0000
  C   C26       1.0  0.85507  0.95877  0.64393  1.0000
  C   C27       1.0  0.73322  0.1706  0.46979  1.0000
  C   C28       1.0  0.82352  0.84659  0.70122  1.0000
  N   N1        1.0  0.48874  0.37472  0.38978  1.0000
  N   N2        1.0  0.008880000000000002  0.62624  0.89225  1.0000
  N   N3        1.0  0.5107900000000001  0.87594  0.1091  1.0000
  N   N4        1.0  0.9886800000000001  0.12848  0.60909  1.0000
  O   O1        1.0  0.26828  0.23411  0.5745299999999998  1.0000
  O   O2        1.0  0.13736  0.38279  0.54179  1.0000
  O   O3        1.0  0.40639000000000003  0.69414  0.2501  1.0000
  O   O4        1.0  0.22471000000000005  0.70034  0.30004  1.0000
  O   O5        1.0  0.22883  0.76625  0.07472  1.0000
  O   O6        1.0  0.36411000000000004  0.62366  0.04165999999999999  1.0000
  O   O7        1.0  0.09067  0.31222  0.74986  1.0000
  O   O8        1.0  0.27466  0.31114  0.79568  1.0000
  O   O9        1.0  0.7305700000000002  0.73901  0.92512  1.0000
  O   O10       1.0  0.86785  0.87716  0.96249  1.0000
  O   O11       1.0  0.59371  0.19312  0.24966  1.0000
  O   O12       1.0  0.77753  0.19486  0.20417  1.0000
  O   O13       1.0  0.7697400000000001  0.26735  0.42541  1.0000
  O   O14       1.0  0.63459  0.1231  0.45832  1.0000
  O   O15       1.0  0.9087  0.81193  0.75065  1.0000
  O   O16       1.0  0.7271200000000001  0.7994800000000001  0.70012  1.0000
