data_image0
_chemical_formula_structural       Cd3H8C24O20
_chemical_formula_sum              "Cd3 H8 C24 O20"
_cell_length_a       9.39748
_cell_length_b       10.30338
_cell_length_c       11.536299999999999
_cell_angle_alpha    64.13335999999998
_cell_angle_beta     71.92145999999998
_cell_angle_gamma    82.92334000000001

_space_group_name_H-M_alt    "P 1"
_space_group_IT_number       1

loop_
  _space_group_symop_operation_xyz
  'x, y, z'

loop_
  _atom_site_type_symbol
  _atom_site_label
  _atom_site_symmetry_multiplicity
  _atom_site_fract_x
  _atom_site_fract_y
  _atom_site_fract_z
  _atom_site_occupancy
  Cd  Cd1       1.0  0.06466  0.16970000000000002  0.29812  1.0000
  Cd  Cd2       1.0  0.07307000000000001  0.8177799999999998  0.61144  1.0000
  Cd  Cd3       1.0  0.061800000000000056  0.5198  0.9822899999999999  1.0000
  H   H1        1.0  0.62117  0.07848999999999999  0.11048  1.0000
  H   H2        1.0  0.8889300000000001  0.98401  0.17122  1.0000
  H   H3        1.0  0.24417000000000003  0.35485999999999995  0.42610000000000003  1.0000
  H   H4        1.0  0.5151400000000003  0.26264999999999994  0.48089999999999994  1.0000
  H   H5        1.0  0.7966400000000001  0.06116999999999996  0.8975299999999999  1.0000
  H   H6        1.0  0.8127900000000002  0.29862  0.94924  1.0000
  H   H7        1.0  0.31906  0.050350000000000006  0.63974  1.0000
  H   H8        1.0  0.33105  0.28306  0.69943  1.0000
  C   C1        1.0  0.36970000000000014  0.027759999999999986  0.36152  1.0000
  C   C2        1.0  0.5355200000000002  0.019720000000000015  0.32782  1.0000
  C   C3        1.0  0.64411  0.036279999999999986  0.20682000000000003  1.0000
  C   C4        1.0  0.77903  0.9870899999999998  0.23784  1.0000
  C   C5        1.0  0.7479200000000004  0.94638  0.3763  1.0000
  C   C6        1.0  0.8423900000000002  0.88371  0.46969999999999995  1.0000
  C   C7        1.0  0.28402  0.45520999999999995  0.12798  1.0000
  C   C8        1.0  0.38085000000000035  0.39401  0.21944  1.0000
  C   C9        1.0  0.3529900000000002  0.35272  0.35759  1.0000
  C   C10       1.0  0.4895600000000001  0.3049199999999999  0.38568  1.0000
  C   C11       1.0  0.59596  0.32284  0.2632  1.0000
  C   C12       1.0  0.76203  0.31440999999999997  0.22773  1.0000
  C   C13       1.0  0.9793700000000001  0.11681999999999997  0.61553  1.0000
  C   C14       1.0  0.9441100000000001  0.19694999999999993  0.70078  1.0000
  C   C15       1.0  0.8568899999999999  0.16252  0.83205  1.0000
  C   C16       1.0  0.8656000000000001  0.28229  0.85862  1.0000
  C   C17       1.0  0.9587400000000001  0.38345000000000007  0.74198  1.0000
  C   C18       1.0  0.0078000000000000205  0.5291799999999998  0.70791  1.0000
  C   C19       1.0  0.13262000000000002  0.8120099999999999  0.8770399999999999  1.0000
  C   C20       1.0  0.17908999999999997  0.95665  0.8488  1.0000
  C   C21       1.0  0.26776000000000005  0.06240999999999998  0.73265  1.0000
  C   C22       1.0  0.27445  0.17955  0.76328  1.0000
  C   C23       1.0  0.19005999999999995  0.13927  0.8962400000000001  1.0000
  C   C24       1.0  0.15297999999999998  0.21669999999999995  0.9837600000000001  1.0000
  O   O1        1.0  0.2984899999999999  0.94415  0.47901000000000005  1.0000
  O   O2        1.0  0.32018  0.11783  0.26532  1.0000
  O   O3        1.0  0.5991600000000001  0.96253  0.43156000000000005  1.0000
  O   O4        1.0  0.7850599999999999  0.7906599999999999  0.58465  1.0000
  O   O5        1.0  0.97985  0.9293599999999997  0.42156  1.0000
  O   O6        1.0  0.14566000000000004  0.4117  0.17916  1.0000
  O   O7        1.0  0.34043000000000007  0.54447  0.01085  1.0000
  O   O8        1.0  0.5292599999999998  0.37945000000000007  0.16154  1.0000
  O   O9        1.0  0.81152  0.22725999999999993  0.32514  1.0000
  O   O10       1.0  0.8333100000000002  0.39396999999999993  0.10864  1.0000
  O   O11       1.0  0.9379000000000001  0.9849699999999999  0.67696  1.0000
  O   O12       1.0  0.048490000000000005  0.18803999999999998  0.49249000000000004  1.0000
  O   O13       1.0  0.006290000000000008  0.33213  0.64495  1.0000
  O   O14       1.0  0.9647900000000003  0.57488  0.80041  1.0000
  O   O15       1.0  0.08533000000000003  0.60455  0.58863  1.0000
  O   O16       1.0  0.04618000000000003  0.7369599999999997  0.99284  1.0000
  O   O17       1.0  0.18602000000000007  0.7691499999999999  0.78356  1.0000
  O   O18       1.0  0.13253000000000004  0.002450000000000007  0.9496  1.0000
  O   O19       1.0  0.19452999999999998  0.3485999999999999  0.92382  1.0000
  O   O20       1.0  0.08372000000000002  0.14405  0.10639999999999998  1.0000
