data_image0
_chemical_formula_structural       U3Cu2P4H16C28O20
_chemical_formula_sum              "U3 Cu2 P4 H16 C28 O20"
_cell_length_a       9.68849
_cell_length_b       10.532249999999998
_cell_length_c       13.69531
_cell_angle_alpha    75.90023
_cell_angle_beta     89.13942
_cell_angle_gamma    65.31635

_symmetry_space_group_name_H-M    'P 1'
_symmetry_Int_Tables_number       1

loop_
  _symmetry_equiv_pos_as_xyz
  'x,y,z'

loop_
  _atom_site_type_symbol
  _atom_site_label
  _atom_site_symmetry_multiplicity
  _atom_site_fract_x
  _atom_site_fract_y
  _atom_site_fract_z
  _atom_site_occupancy
  U   U1        1.0  0.7571100000000001  0.5789799999999999  0.9830300000000002  1.0000
  U   U2        1.0  0.24391999999999994  0.42339000000000004  0.01577  1.0000
  U   U3        1.0  0.0006000000000000535  0.9997699999999999  0.00109  1.0000
  Cu  Cu1       1.0  0.9106299999999999  0.031459999999999995  0.42728  1.0000
  Cu  Cu2       1.0  0.08923000000000007  0.9685  0.573  1.0000
  P   P1        1.0  0.6286200000000001  0.31885999999999987  0.9145800000000002  1.0000
  P   P2        1.0  0.9133199999999999  0.68645  0.12232  1.0000
  P   P3        1.0  0.37281999999999993  0.68071  0.08594  1.0000
  P   P4        1.0  0.08651999999999999  0.31256  0.87777  1.0000
  H   H1        1.0  0.7821800000000001  0.14152  0.77854  1.0000
  H   H2        1.0  0.47975  0.34729999999999994  0.50677  1.0000
  H   H3        1.0  0.29283999999999993  0.52656  0.59356  1.0000
  H   H4        1.0  0.3594599999999999  0.5167900000000001  0.76795  1.0000
  H   H5        1.0  0.9239200000000001  0.41735  0.25019  1.0000
  H   H6        1.0  0.19987000000000002  0.34663  0.51534  1.0000
  H   H7        1.0  0.20942999999999995  0.58675  0.443  1.0000
  H   H8        1.0  0.07258000000000005  0.7406199999999998  0.27744  1.0000
  H   H9        1.0  0.21820000000000006  0.8581099999999999  0.22197000000000006  1.0000
  H   H10       1.0  0.5206999999999999  0.65261  0.49361  1.0000
  H   H11       1.0  0.70701  0.47345999999999994  0.4066700000000001  1.0000
  H   H12       1.0  0.6405299999999999  0.48324  0.23234  1.0000
  H   H13       1.0  0.07562000000000006  0.5827399999999999  0.7502600000000001  1.0000
  H   H14       1.0  0.80011  0.65336  0.48464  1.0000
  H   H15       1.0  0.7907199999999999  0.41303  0.55654  1.0000
  H   H16       1.0  0.92697  0.25893999999999995  0.72238  1.0000
  C   C1        1.0  0.5749300000000002  0.32677999999999996  0.7868800000000001  1.0000
  C   C2        1.0  0.6757  0.2273199999999999  0.7388000000000002  1.0000
  C   C3        1.0  0.64246  0.23658999999999994  0.6373000000000001  1.0000
  C   C4        1.0  0.50343  0.34203  0.58568  1.0000
  C   C5        1.0  0.40120000000000006  0.44272  0.6325500000000001  1.0000
  C   C6        1.0  0.438  0.43544  0.7329200000000001  1.0000
  C   C7        1.0  0.76629  0.14241000000000004  0.58632  1.0000
  C   C8        1.0  0.99564  0.58707  0.24841000000000005  1.0000
  C   C9        1.0  0.9885500000000002  0.4554099999999999  0.29001  1.0000
  C   C10       1.0  0.05979999999999998  0.36972000000000005  0.38595  1.0000
  C   C11       1.0  0.14329999999999998  0.41541000000000006  0.44074  1.0000
  C   C12       1.0  0.14869  0.54765  0.40051  1.0000
  C   C13       1.0  0.07353999999999997  0.63494  0.30564  1.0000
  C   C14       1.0  0.03881000000000003  0.23437999999999995  0.42886  1.0000
  C   C15       1.0  0.4254  0.67312  0.21318  1.0000
  C   C16       1.0  0.32496  0.7725699999999999  0.26124  1.0000
  C   C17       1.0  0.35769  0.76311  0.36285  1.0000
  C   C18       1.0  0.49660000000000004  0.6575499999999999  0.41476  1.0000
  C   C19       1.0  0.5987900000000002  0.55737  0.36752  1.0000
  C   C20       1.0  0.56211  0.56461  0.26717  1.0000
  C   C21       1.0  0.23401000000000002  0.8579099999999998  0.41376  1.0000
  C   C22       1.0  0.00307000000000002  0.4133899999999999  0.7515000000000001  1.0000
  C   C23       1.0  0.010320000000000086  0.5451599999999999  0.7101700000000002  1.0000
  C   C24       1.0  0.9395000000000002  0.63086  0.61402  1.0000
  C   C25       1.0  0.85696  0.58445  0.55918  1.0000
  C   C26       1.0  0.85079  0.45247999999999994  0.59919  1.0000
  C   C27       1.0  0.9256  0.3651000000000001  0.69426  1.0000
  C   C28       1.0  0.96121  0.76555  0.57101  1.0000
  O   O1        1.0  0.69137  0.43295  0.9106500000000002  1.0000
  O   O2        1.0  0.75364  0.16279  0.96171  1.0000
  O   O3        1.0  0.48603999999999997  0.35183  0.9730400000000001  1.0000
  O   O4        1.0  0.7495  0.70152  0.10764  1.0000
  O   O5        1.0  0.99872  0.5951  0.04540000000000001  1.0000
  O   O6        1.0  0.9302500000000001  0.82922  0.10051  1.0000
  O   O7        1.0  0.7307  0.14519000000000004  0.49613  1.0000
  O   O8        1.0  0.89776  0.07475000000000001  0.63663  1.0000
  O   O9        1.0  0.11451999999999997  0.15326000000000004  0.51309  1.0000
  O   O10       1.0  0.9443299999999998  0.21494000000000002  0.37692  1.0000
  O   O11       1.0  0.31051  0.56651  0.08952  1.0000
  O   O12       1.0  0.24789999999999995  0.83644  0.03890000000000001  1.0000
  O   O13       1.0  0.51486  0.64897  0.026980000000000004  1.0000
  O   O14       1.0  0.2500600000000001  0.29855999999999994  0.8922500000000002  1.0000
  O   O15       1.0  0.0007900000000000369  0.4021599999999999  0.9557900000000003  1.0000
  O   O16       1.0  0.06939000000000001  0.16973999999999997  0.89928  1.0000
  O   O17       1.0  0.26944  0.8551199999999999  0.50392  1.0000
  O   O18       1.0  0.10238000000000008  0.9258699999999999  0.3634300000000001  1.0000
  O   O19       1.0  0.8847900000000001  0.8472800000000001  0.48691  1.0000
  O   O20       1.0  0.05623999999999992  0.7845100000000002  0.62284  1.0000
