data_image0
_chemical_formula_structural       Eu2H16C16N4O12
_chemical_formula_sum              "Eu2 H16 C16 N4 O12"
_cell_length_a       8.01792
_cell_length_b       8.62181
_cell_length_c       10.553970000000001
_cell_angle_alpha    85.2933
_cell_angle_beta     90.04275
_cell_angle_gamma    84.11459000000002

_space_group_name_H-M_alt    "P 1"
_space_group_IT_number       1

loop_
  _space_group_symop_operation_xyz
  'x, y, z'

loop_
  _atom_site_type_symbol
  _atom_site_label
  _atom_site_symmetry_multiplicity
  _atom_site_fract_x
  _atom_site_fract_y
  _atom_site_fract_z
  _atom_site_occupancy
  Eu  Eu1       1.0  0.56329  0.8803499999999996  0.85359  1.0000
  Eu  Eu2       1.0  0.43671  0.11965  0.14641  1.0000
  H   H1        1.0  0.74001  0.4885999999999999  0.9278  1.0000
  H   H2        1.0  0.88546  0.47636  0.80112  1.0000
  H   H3        1.0  0.13128999999999993  0.79777  0.15023000000000003  1.0000
  H   H4        1.0  0.97805  0.8894  0.03905  1.0000
  H   H5        1.0  0.22171  0.41156  0.72628  1.0000
  H   H6        1.0  0.3532  0.52928  0.80218  1.0000
  H   H7        1.0  0.5649000000000001  0.7489699999999999  0.45147  1.0000
  H   H8        1.0  0.74272  0.61651  0.49581  1.0000
  H   H9        1.0  0.25999  0.5114  0.0722  1.0000
  H   H10       1.0  0.11454  0.52365  0.19889  1.0000
  H   H11       1.0  0.86871  0.20223999999999998  0.8497700000000001  1.0000
  H   H12       1.0  0.02194999999999999  0.1106  0.96095  1.0000
  H   H13       1.0  0.77829  0.58844  0.27372  1.0000
  H   H14       1.0  0.6468099999999998  0.4707299999999999  0.19783  1.0000
  H   H15       1.0  0.4351  0.25103999999999993  0.54853  1.0000
  H   H16       1.0  0.25728  0.38349  0.50419  1.0000
  C   C1        1.0  0.43277000000000004  0.27906999999999993  0.82146  1.0000
  C   C2        1.0  0.9271499999999996  0.6426  0.9302000000000001  1.0000
  C   C3        1.0  0.87442  0.48555  0.90418  1.0000
  C   C4        1.0  0.53082  0.58563  0.60942  1.0000
  C   C5        1.0  0.22814999999999996  0.8484  0.9634200000000002  1.0000
  C   C6        1.0  0.08703  0.80164  0.051430000000000003  1.0000
  C   C7        1.0  0.35336  0.4290800000000001  0.74488  1.0000
  C   C8        1.0  0.6059199999999999  0.62543  0.48111  1.0000
  C   C9        1.0  0.56723  0.72093  0.17854  1.0000
  C   C10       1.0  0.07285999999999998  0.35741  0.0698  1.0000
  C   C11       1.0  0.12558  0.51445  0.09582  1.0000
  C   C12       1.0  0.46918999999999994  0.41438  0.39058  1.0000
  C   C13       1.0  0.7718599999999998  0.1516  0.03658  1.0000
  C   C14       1.0  0.91297  0.19836999999999996  0.94858  1.0000
  C   C15       1.0  0.6466399999999999  0.57092  0.25513  1.0000
  C   C16       1.0  0.39408  0.37458  0.51889  1.0000
  N   N1        1.0  0.03291  0.65051  0.02812  1.0000
  N   N2        1.0  0.43115  0.46844  0.62246  1.0000
  N   N3        1.0  0.9670899999999997  0.3495  0.9718800000000001  1.0000
  N   N4        1.0  0.56885  0.53156  0.37754000000000004  1.0000
  O   O1        1.0  0.41688999999999987  0.28298  0.94035  1.0000
  O   O2        1.0  0.86619  0.7607499999999999  0.8628  1.0000
  O   O3        1.0  0.5660499999999999  0.66438  0.69848  1.0000
  O   O4        1.0  0.50009  0.1661  0.76206  1.0000
  O   O5        1.0  0.29216  0.97319  0.98737  1.0000
  O   O6        1.0  0.2751  0.76526  0.87475  1.0000
  O   O7        1.0  0.58311  0.71702  0.05965000000000001  1.0000
  O   O8        1.0  0.13382  0.23926  0.1372  1.0000
  O   O9        1.0  0.43395  0.33562  0.30153  1.0000
  O   O10       1.0  0.49991  0.8339  0.23794000000000004  1.0000
  O   O11       1.0  0.70784  0.026819999999999997  0.012630000000000002  1.0000
  O   O12       1.0  0.7248999999999998  0.23475000000000001  0.12526  1.0000
