data_image0
_chemical_formula_structural       Sm2H8C8O16
_chemical_formula_sum              "Sm2 H8 C8 O16"
_cell_length_a       6.6887
_cell_length_b       7.18531
_cell_length_c       11.42796
_cell_angle_alpha    90.99659
_cell_angle_beta     106.48851
_cell_angle_gamma    89.32550999999998

_symmetry_space_group_name_H-M    'P 1'
_symmetry_Int_Tables_number       1

loop_
  _symmetry_equiv_pos_as_xyz
  'x,y,z'

loop_
  _atom_site_type_symbol
  _atom_site_label
  _atom_site_symmetry_multiplicity
  _atom_site_fract_x
  _atom_site_fract_y
  _atom_site_fract_z
  _atom_site_occupancy
  Sm  Sm1       1.0  0.3742800000000001  0.25519  0.74413  1.0000
  Sm  Sm2       1.0  0.62586  0.75079  0.25298  1.0000
  H   H1        1.0  0.49828  0.10823  0.49013  1.0000
  H   H2        1.0  0.51032  0.6138  0.5067  1.0000
  H   H3        1.0  0.9934  0.37291  0.48735  1.0000
  H   H4        1.0  0.008369999999999992  0.87566  0.51041  1.0000
  H   H5        1.0  0.8200300000000001  0.25229  0.63437  1.0000
  H   H6        1.0  0.18284999999999998  0.75365  0.36539999999999995  1.0000
  H   H7        1.0  0.25786  0.99598  0.99518  1.0000
  H   H8        1.0  0.7475300000000004  0.47212  0.9976600000000001  1.0000
  C   C1        1.0  0.50673  0.9658600000000003  0.5348  1.0000
  C   C2        1.0  0.49866000000000005  0.46545  0.46356  1.0000
  C   C3        1.0  0.02452000000000002  0.52031  0.53016  1.0000
  C   C4        1.0  0.97313  0.02052  0.46785  1.0000
  C   C5        1.0  0.8695300000000001  0.25353  0.735  1.0000
  C   C6        1.0  0.13262  0.75406  0.26472  1.0000
  C   C7        1.0  0.42371  0.99856  0.99659  1.0000
  C   C8        1.0  0.58417  0.49013  0.99979  1.0000
  O   O1        1.0  0.4688200000000001  0.04637  0.90099  1.0000
  O   O2        1.0  0.05149000000000012  0.19464  0.78816  1.0000
  O   O3        1.0  0.48038000000000003  0.9634000000000003  0.63811  1.0000
  O   O4        1.0  0.54015  0.83387  0.46685  1.0000
  O   O5        1.0  0.54955  0.52759  0.10106000000000001  1.0000
  O   O6        1.0  0.95172  0.6946400000000001  0.21117999999999998  1.0000
  O   O7        1.0  0.52071  0.45623  0.35934  1.0000
  O   O8        1.0  0.4676500000000001  0.34173  0.53396  1.0000
  O   O9        1.0  0.44015  0.47162  0.90012  1.0000
  O   O10       1.0  0.7397000000000001  0.31424  0.7888500000000002  1.0000
  O   O11       1.0  0.15089  0.52787  0.63362  1.0000
  O   O12       1.0  0.92364  0.6468  0.46182  1.0000
  O   O13       1.0  0.56006  0.9536  0.0945  1.0000
  O   O14       1.0  0.26095  0.81407  0.21133  1.0000
  O   O15       1.0  0.83906  0.02739  0.36713  1.0000
  O   O16       1.0  0.07971  0.14885000000000004  0.53351  1.0000
