data_image0
_chemical_formula_structural       Ag6H24C32S4N16
_chemical_formula_sum              "Ag6 H24 C32 S4 N16"
_cell_length_a       10.41582
_cell_length_b       12.705879999999999
_cell_length_c       11.51796
_cell_angle_alpha    101.60423
_cell_angle_beta     92.27997999999998
_cell_angle_gamma    70.93764999999999

_symmetry_space_group_name_H-M    'P 1'
_symmetry_Int_Tables_number       1

loop_
  _symmetry_equiv_pos_as_xyz
  'x,y,z'

loop_
  _atom_site_type_symbol
  _atom_site_label
  _atom_site_symmetry_multiplicity
  _atom_site_fract_x
  _atom_site_fract_y
  _atom_site_fract_z
  _atom_site_occupancy
  Ag  Ag1       1.0  0.18411000000000008  0.4890499999999999  0.7188399999999999  1.0000
  Ag  Ag2       1.0  0.80368  0.90597  0.9291499999999999  1.0000
  Ag  Ag3       1.0  0.22056999999999993  0.09674  0.58812  1.0000
  Ag  Ag4       1.0  0.81589  0.51095  0.28116  1.0000
  Ag  Ag5       1.0  0.19631  0.09403  0.07085  1.0000
  Ag  Ag6       1.0  0.7794200000000001  0.9032599999999998  0.41188  1.0000
  H   H1        1.0  0.13141  0.50551  0.4483  1.0000
  H   H2        1.0  0.9807800000000001  0.65684  0.34577  1.0000
  H   H3        1.0  0.8922200000000002  0.88498  0.6692  1.0000
  H   H4        1.0  0.23123999999999992  0.8783300000000002  0.70291  1.0000
  H   H5        1.0  0.9818  0.21737  0.8015299999999999  1.0000
  H   H6        1.0  0.84438  0.16079999999999994  0.9341699999999998  1.0000
  H   H7        1.0  0.6504699999999999  0.78723  0.71731  1.0000
  H   H8        1.0  0.45754  0.8449900000000001  0.58079  1.0000
  H   H9        1.0  0.65935  0.12000999999999999  0.7965399999999999  1.0000
  H   H10       1.0  0.36112  0.09877  0.84165  1.0000
  H   H11       1.0  0.11044000000000002  0.49885  0.98152  1.0000
  H   H12       1.0  0.09329999999999998  0.35138  0.0901  1.0000
  H   H13       1.0  0.8685900000000001  0.49449  0.55169  1.0000
  H   H14       1.0  0.019220000000000025  0.34316  0.65423  1.0000
  H   H15       1.0  0.10778000000000001  0.11502000000000001  0.33079  1.0000
  H   H16       1.0  0.76875  0.12167  0.29709  1.0000
  H   H17       1.0  0.018200000000000032  0.78263  0.19846999999999998  1.0000
  H   H18       1.0  0.15560999999999997  0.8392  0.06583  1.0000
  H   H19       1.0  0.34953000000000006  0.21277  0.28268  1.0000
  H   H20       1.0  0.54245  0.15501  0.41921  1.0000
  H   H21       1.0  0.3406400000000001  0.8799899999999999  0.20346  1.0000
  H   H22       1.0  0.6388799999999999  0.90123  0.15835  1.0000
  H   H23       1.0  0.8895499999999998  0.50115  0.01847  1.0000
  H   H24       1.0  0.90669  0.64862  0.90989  1.0000
  C   C1        1.0  0.08238000000000006  0.59163  0.49545  1.0000
  C   C2        1.0  0.99641  0.67343  0.44048  1.0000
  C   C3        1.0  0.9506800000000001  0.80242  0.61804  1.0000
  C   C4        1.0  0.04665  0.7241  0.67194  1.0000
  C   C5        1.0  0.06324000000000009  0.9095999999999999  0.8220200000000001  1.0000
  C   C6        1.0  0.14310000000000003  0.94245  0.75204  1.0000
  C   C7        1.0  0.005070000000000003  0.12861  0.80669  1.0000
  C   C8        1.0  0.92836  0.09716999999999998  0.8796599999999999  1.0000
  C   C9        1.0  0.60773  0.8747  0.70505  1.0000
  C   C10       1.0  0.50064  0.90659  0.63225  1.0000
  C   C11       1.0  0.50005  0.09221  0.68134  1.0000
  C   C12       1.0  0.61255  0.059  0.7513  1.0000
  C   C13       1.0  0.30416000000000004  0.18729  0.87173  1.0000
  C   C14       1.0  0.30968  0.26844  0.80907  1.0000
  C   C15       1.0  0.16329000000000002  0.40889  0.94903  1.0000
  C   C16       1.0  0.15659  0.32808  0.00956  1.0000
  C   C17       1.0  0.9176200000000001  0.40837  0.50455  1.0000
  C   C18       1.0  0.0035900000000000046  0.32657  0.55951  1.0000
  C   C19       1.0  0.049319999999999996  0.19758  0.38195  1.0000
  C   C20       1.0  0.9533400000000001  0.2759  0.32806  1.0000
  C   C21       1.0  0.93676  0.0904  0.17797  1.0000
  C   C22       1.0  0.8569  0.05755  0.24795  1.0000
  C   C23       1.0  0.9949300000000002  0.87139  0.19331  1.0000
  C   C24       1.0  0.07164  0.90283  0.12034000000000002  1.0000
  C   C25       1.0  0.39226  0.1253  0.29495  1.0000
  C   C26       1.0  0.49936  0.09341  0.36775  1.0000
  C   C27       1.0  0.4999500000000002  0.9077899999999999  0.31866  1.0000
  C   C28       1.0  0.38744  0.9409999999999998  0.24869  1.0000
  C   C29       1.0  0.69583  0.8127099999999999  0.12827  1.0000
  C   C30       1.0  0.69032  0.7315599999999999  0.19092999999999996  1.0000
  C   C31       1.0  0.8367  0.59111  0.05097000000000001  1.0000
  C   C32       1.0  0.8434  0.67192  0.99043  1.0000
  S   S1        1.0  0.09688  0.76222  0.81845  1.0000
  S   S2        1.0  0.41505  0.23781  0.68171  1.0000
  S   S3        1.0  0.9031200000000003  0.23777999999999996  0.18154999999999996  1.0000
  S   S4        1.0  0.58494  0.76219  0.31829  1.0000
  N   N1        1.0  0.10994999999999996  0.6136600000000001  0.61436  1.0000
  N   N2        1.0  0.9226200000000001  0.77992  0.50135  1.0000
  N   N3        1.0  0.11581  0.05095999999999999  0.73978  1.0000
  N   N4        1.0  0.9541200000000001  0.98613  0.88966  1.0000
  N   N5        1.0  0.6685700000000001  0.9498999999999999  0.76611  1.0000
  N   N6        1.0  0.4406900000000001  0.01691999999999999  0.619  1.0000
  N   N7        1.0  0.23649000000000006  0.38149999999999995  0.8430799999999999  1.0000
  N   N8        1.0  0.22436  0.21434  0.97171  1.0000
  N   N9        1.0  0.8900500000000001  0.38634  0.38564  1.0000
  N   N10       1.0  0.07737000000000001  0.22008  0.49865  1.0000
  N   N11       1.0  0.8841800000000001  0.9490399999999999  0.26022  1.0000
  N   N12       1.0  0.04587  0.013869999999999999  0.11034  1.0000
  N   N13       1.0  0.33143000000000006  0.05009999999999999  0.23388  1.0000
  N   N14       1.0  0.5593099999999999  0.98308  0.38099999999999995  1.0000
  N   N15       1.0  0.7635100000000001  0.61849  0.15691  1.0000
  N   N16       1.0  0.7756399999999998  0.78566  0.028289999999999996  1.0000
