data_image0
_chemical_formula_structural       Y4H16C16O32
_chemical_formula_sum              "Y4 H16 C16 O32"
_cell_length_a       6.55522
_cell_length_b       7.48779
_cell_length_c       20.903909999999996
_cell_angle_alpha    90.04475000000001
_cell_angle_beta     90.13938
_cell_angle_gamma    90.33696

_space_group_name_H-M_alt    "P 1"
_space_group_IT_number       1

loop_
  _space_group_symop_operation_xyz
  'x, y, z'

loop_
  _atom_site_type_symbol
  _atom_site_label
  _atom_site_symmetry_multiplicity
  _atom_site_fract_x
  _atom_site_fract_y
  _atom_site_fract_z
  _atom_site_occupancy
  Y   Y1        1.0  0.50802  0.94599  0.11636000000000002  1.0000
  Y   Y2        1.0  0.9908600000000002  0.04941  0.61645  1.0000
  Y   Y3        1.0  0.4876500000000001  0.4470999999999999  0.38171000000000005  1.0000
  Y   Y4        1.0  0.0060300000000000015  0.54811  0.88152  1.0000
  H   H1        1.0  0.59502  0.37331  0.01527  1.0000
  H   H2        1.0  0.00182  0.009709999999999996  0.0885  1.0000
  H   H3        1.0  0.70798  0.8613499999999997  0.9714300000000001  1.0000
  H   H4        1.0  0.28445  0.6770699999999998  0.24034  1.0000
  H   H5        1.0  0.8902200000000001  0.62313  0.51529  1.0000
  H   H6        1.0  0.50253  0.98962  0.5879900000000001  1.0000
  H   H7        1.0  0.78973  0.13612  0.4702  1.0000
  H   H8        1.0  0.2154  0.32963  0.7407100000000001  1.0000
  H   H9        1.0  0.4052900000000001  0.8744799999999998  0.48405  1.0000
  H   H10       1.0  0.99872  0.51284  0.41117000000000004  1.0000
  H   H11       1.0  0.28918999999999995  0.3562799999999999  0.52634  1.0000
  H   H12       1.0  0.71495  0.17854999999999993  0.25813  1.0000
  H   H13       1.0  0.09415000000000001  0.12378999999999997  0.9849100000000002  1.0000
  H   H14       1.0  0.4973500000000001  0.48713999999999996  0.911  1.0000
  H   H15       1.0  0.20536000000000004  0.63673  0.026380000000000008  1.0000
  H   H16       1.0  0.7805200000000002  0.8227799999999997  0.75931  1.0000
  C   C1        1.0  0.57188  0.25707  0.04641  1.0000
  C   C2        1.0  0.0036999999999999997  0.9634  0.13916  1.0000
  C   C3        1.0  0.7399600000000002  0.73951  0.9998000000000001  1.0000
  C   C4        1.0  0.45453  0.6628  0.23717000000000002  1.0000
  C   C5        1.0  0.9190000000000003  0.7383899999999998  0.54656  1.0000
  C   C6        1.0  0.49863  0.03322  0.6389600000000001  1.0000
  C   C7        1.0  0.75607  0.25631  0.49931000000000003  1.0000
  C   C8        1.0  0.04503  0.33905  0.7365  1.0000
  C   C9        1.0  0.42831  0.75749  0.45335000000000003  1.0000
  C   C10       1.0  0.99541  0.46472999999999987  0.36067  1.0000
  C   C11       1.0  0.25559  0.23505999999999994  0.49754  1.0000
  C   C12       1.0  0.54461  0.16321999999999998  0.26113  1.0000
  C   C13       1.0  0.06853  0.23913  0.9535700000000001  1.0000
  C   C14       1.0  0.4995300000000001  0.53478  0.86048  1.0000
  C   C15       1.0  0.23976  0.75756  0.9976000000000003  1.0000
  C   C16       1.0  0.9511900000000002  0.8367299999999999  0.76245  1.0000
  O   O1        1.0  0.17095000000000005  0.9014699999999998  0.15910000000000002  1.0000
  O   O2        1.0  0.54445  0.6061  0.28633  1.0000
  O   O3        1.0  0.8172300000000002  0.60692  0.97076  1.0000
  O   O4        1.0  0.41408  0.24239999999999995  0.08128000000000002  1.0000
  O   O5        1.0  0.7075800000000001  0.1341  0.04864000000000001  1.0000
  O   O6        1.0  0.8367700000000002  0.9814399999999998  0.16857  1.0000
  O   O7        1.0  0.5353900000000001  0.70561  0.18468000000000004  1.0000
  O   O8        1.0  0.6968100000000002  0.7405499999999998  0.05874  1.0000
  O   O9        1.0  0.32962  0.08984999999999997  0.6591500000000001  1.0000
  O   O10       1.0  0.9505600000000002  0.39240999999999987  0.78527  1.0000
  O   O11       1.0  0.67772  0.38986  0.4709800000000001  1.0000
  O   O12       1.0  0.07754  0.74866  0.58151  1.0000
  O   O13       1.0  0.788  0.86538  0.54874  1.0000
  O   O14       1.0  0.6659800000000002  0.01819  0.66872  1.0000
  O   O15       1.0  0.9695700000000003  0.29497  0.68312  1.0000
  O   O16       1.0  0.7986000000000001  0.25232  0.5583400000000001  1.0000
  O   O17       1.0  0.82793  0.4016299999999999  0.34088000000000007  1.0000
  O   O18       1.0  0.4556200000000001  0.10677999999999997  0.21157000000000004  1.0000
  O   O19       1.0  0.18227000000000004  0.09947999999999997  0.52635  1.0000
  O   O20       1.0  0.58625  0.74256  0.4186  1.0000
  O   O21       1.0  0.29212000000000005  0.63361  0.45131  1.0000
  O   O22       1.0  0.16242000000000004  0.4819099999999999  0.33103  1.0000
  O   O23       1.0  0.46404000000000006  0.20458999999999994  0.31378000000000006  1.0000
  O   O24       1.0  0.29356  0.24022  0.43829  1.0000
  O   O25       1.0  0.66681  0.59772  0.8407200000000001  1.0000
  O   O26       1.0  0.04035000000000001  0.8936599999999998  0.7132600000000001  1.0000
  O   O27       1.0  0.31378000000000006  0.8928399999999997  0.0265  1.0000
  O   O28       1.0  0.91021  0.25001  0.9185500000000001  1.0000
  O   O29       1.0  0.2022  0.3652399999999999  0.9512600000000001  1.0000
  O   O30       1.0  0.33205  0.51722  0.8309400000000002  1.0000
  O   O31       1.0  0.03144999999999999  0.79375  0.81499  1.0000
  O   O32       1.0  0.202  0.7521799999999997  0.9383000000000001  1.0000
