data_image0
_chemical_formula_structural       Mn4H28C36N4O16
_chemical_formula_sum              "Mn4 H28 C36 N4 O16"
_cell_length_a       7.47308
_cell_length_b       7.160699999999999
_cell_length_c       24.29305
_cell_angle_alpha    90.0
_cell_angle_beta     90.0
_cell_angle_gamma    92.83629

_symmetry_space_group_name_H-M    'P 1'
_symmetry_Int_Tables_number       1

loop_
  _symmetry_equiv_pos_as_xyz
  'x,y,z'

loop_
  _atom_site_type_symbol
  _atom_site_label
  _atom_site_symmetry_multiplicity
  _atom_site_fract_x
  _atom_site_fract_y
  _atom_site_fract_z
  _atom_site_occupancy
  Mn  Mn1       1.0  0.6200299999999997  0.14306  0.7117700000000001  1.0000
  Mn  Mn2       1.0  0.8799799999999998  0.35697  0.21176  1.0000
  Mn  Mn3       1.0  0.3799799999999999  0.85694  0.28824  1.0000
  Mn  Mn4       1.0  0.12002999999999996  0.64303  0.78824  1.0000
  H   H1        1.0  0.33086  0.1559  0.87418  1.0000
  H   H2        1.0  0.55835  0.16363  0.85084  1.0000
  H   H3        1.0  0.5827399999999998  0.9475499999999999  0.59352  1.0000
  H   H4        1.0  0.35413  0.89762  0.52037  1.0000
  H   H5        1.0  0.9925199999999997  0.19840999999999995  0.62253  1.0000
  H   H6        1.0  0.23584999999999995  0.23805999999999994  0.69063  1.0000
  H   H7        1.0  0.8846499999999998  0.10632  0.54064  1.0000
  H   H8        1.0  0.16915  0.3441  0.37418  1.0000
  H   H9        1.0  0.9416299999999997  0.33637  0.35084  1.0000
  H   H10       1.0  0.91723  0.55246  0.09352  1.0000
  H   H11       1.0  0.14586999999999994  0.60239  0.02036  1.0000
  H   H12       1.0  0.50751  0.30158  0.12253  1.0000
  H   H13       1.0  0.26415999999999995  0.26192  0.19063999999999998  1.0000
  H   H14       1.0  0.61535  0.39368  0.04064  1.0000
  H   H15       1.0  0.6691499999999998  0.8440999999999999  0.12582  1.0000
  H   H16       1.0  0.4416199999999999  0.83637  0.14917  1.0000
  H   H17       1.0  0.4172399999999999  0.05245999999999999  0.40648  1.0000
  H   H18       1.0  0.6458699999999998  0.10239  0.47964  1.0000
  H   H19       1.0  0.0075099999999999984  0.80159  0.37747  1.0000
  H   H20       1.0  0.7641599999999997  0.76192  0.30936  1.0000
  H   H21       1.0  0.11534999999999997  0.89368  0.45936  1.0000
  H   H22       1.0  0.8308599999999998  0.6559  0.62583  1.0000
  H   H23       1.0  0.058349999999999985  0.66364  0.64917  1.0000
  H   H24       1.0  0.08274999999999998  0.44755  0.90648  1.0000
  H   H25       1.0  0.8541299999999998  0.39761  0.9796400000000001  1.0000
  H   H26       1.0  0.4925199999999999  0.6984099999999998  0.8774799999999999  1.0000
  H   H27       1.0  0.7358499999999998  0.73806  0.80937  1.0000
  H   H28       1.0  0.3846499999999999  0.60632  0.95936  1.0000
  C   C1        1.0  0.3872599999999999  0.32544  0.8020700000000001  1.0000
  C   C2        1.0  0.41751  0.15533  0.83818  1.0000
  C   C3        1.0  0.38739  0.97501  0.8058399999999999  1.0000
  C   C4        1.0  0.4507099999999999  0.00376  0.59756  1.0000
  C   C5        1.0  0.3212199999999999  0.9755799999999998  0.55703  1.0000
  C   C6        1.0  0.15052  0.04886  0.56396  1.0000
  C   C7        1.0  0.12206999999999997  0.14314  0.61383  1.0000
  C   C8        1.0  0.2579099999999999  0.165  0.65227  1.0000
  C   C9        1.0  0.0021399999999999995  0.039049999999999994  0.52538  1.0000
  C   C10       1.0  0.11272  0.17458  0.30207  1.0000
  C   C11       1.0  0.08250999999999997  0.34467  0.33817  1.0000
  C   C12       1.0  0.1126  0.52498  0.30583  1.0000
  C   C13       1.0  0.04929999999999998  0.49624  0.09756  1.0000
  C   C14       1.0  0.17878999999999998  0.52443  0.057019999999999994  1.0000
  C   C15       1.0  0.34948  0.45113999999999993  0.06396  1.0000
  C   C16       1.0  0.3779399999999999  0.35687  0.11382  1.0000
  C   C17       1.0  0.24207999999999993  0.335  0.15227  1.0000
  C   C18       1.0  0.4978599999999999  0.46095  0.02538  1.0000
  C   C19       1.0  0.61274  0.67458  0.19792  1.0000
  C   C20       1.0  0.5825  0.84467  0.16183  1.0000
  C   C21       1.0  0.6126199999999998  0.02498  0.19416  1.0000
  C   C22       1.0  0.5492999999999998  0.99624  0.40245  1.0000
  C   C23       1.0  0.6787799999999998  0.02443  0.44298  1.0000
  C   C24       1.0  0.8494799999999998  0.95115  0.43605  1.0000
  C   C25       1.0  0.8779299999999995  0.85687  0.3861800000000001  1.0000
  C   C26       1.0  0.74209  0.83501  0.34774  1.0000
  C   C27       1.0  0.9978599999999999  0.96095  0.47462  1.0000
  C   C28       1.0  0.88726  0.82544  0.69794  1.0000
  C   C29       1.0  0.9174999999999998  0.65533  0.6618299999999999  1.0000
  C   C30       1.0  0.8873899999999998  0.475  0.69417  1.0000
  C   C31       1.0  0.9507099999999998  0.50376  0.9024500000000001  1.0000
  C   C32       1.0  0.8212199999999997  0.47558  0.94298  1.0000
  C   C33       1.0  0.6505199999999998  0.54887  0.93604  1.0000
  C   C34       1.0  0.62207  0.64314  0.88618  1.0000
  C   C35       1.0  0.75792  0.665  0.8477399999999999  1.0000
  C   C36       1.0  0.50214  0.53905  0.9746200000000002  1.0000
  N   N1        1.0  0.4224199999999999  0.09885  0.64491  1.0000
  N   N2        1.0  0.07756999999999997  0.40114  0.14491  1.0000
  N   N3        1.0  0.5775599999999997  0.90116  0.35509  1.0000
  N   N4        1.0  0.9224199999999999  0.59886  0.8551000000000001  1.0000
  O   O1        1.0  0.47241999999999995  0.34407  0.757  1.0000
  O   O2        1.0  0.27033  0.4348  0.8195  1.0000
  O   O3        1.0  0.26486  0.8599299999999999  0.82332  1.0000
  O   O4        1.0  0.4832399999999999  0.95009  0.76361  1.0000
  O   O5        1.0  0.027579999999999993  0.15596  0.257  1.0000
  O   O6        1.0  0.22971999999999995  0.06535  0.31951  1.0000
  O   O7        1.0  0.23517000000000002  0.6399  0.32333  1.0000
  O   O8        1.0  0.016760000000000004  0.55023  0.2636  1.0000
  O   O9        1.0  0.52756  0.65592  0.24301  1.0000
  O   O10       1.0  0.7296899999999997  0.56519  0.18049  1.0000
  O   O11       1.0  0.7351499999999999  0.14009  0.17667999999999998  1.0000
  O   O12       1.0  0.51674  0.04992999999999999  0.2364  1.0000
  O   O13       1.0  0.9724099999999998  0.84403  0.743  1.0000
  O   O14       1.0  0.7703099999999998  0.93463  0.6805  1.0000
  O   O15       1.0  0.7648599999999998  0.36012  0.67669  1.0000
  O   O16       1.0  0.98323  0.44979  0.73639  1.0000
