data_image0
_chemical_formula_structural       Zn2H24C18N8O6
_chemical_formula_sum              "Zn2 H24 C18 N8 O6"
_cell_length_a       9.22048
_cell_length_b       9.70754
_cell_length_c       9.67335
_cell_angle_alpha    123.87664999999998
_cell_angle_beta     89.90341
_cell_angle_gamma    89.77467

_space_group_name_H-M_alt    "P 1"
_space_group_IT_number       1

loop_
  _space_group_symop_operation_xyz
  'x, y, z'

loop_
  _atom_site_type_symbol
  _atom_site_label
  _atom_site_symmetry_multiplicity
  _atom_site_fract_x
  _atom_site_fract_y
  _atom_site_fract_z
  _atom_site_occupancy
  Zn  Zn1       1.0  0.57285  0.4038400000000001  0.26973000000000014  1.0000
  Zn  Zn2       1.0  0.07029  0.5976  0.73489  1.0000
  H   H1        1.0  0.2535700000000001  0.5371  0.42671  1.0000
  H   H2        1.0  0.43791  0.30016  0.77846  1.0000
  H   H3        1.0  0.24842  0.3439100000000001  0.80364  1.0000
  H   H4        1.0  0.60662  0.5766800000000001  0.93138  1.0000
  H   H5        1.0  0.57493  0.30139  0.53409  1.0000
  H   H6        1.0  0.60651  0.08916000000000003  0.26388  1.0000
  H   H7        1.0  0.77795  0.10015  0.18569  1.0000
  H   H8        1.0  0.28724  0.6385200000000001  0.00231  1.0000
  H   H9        1.0  0.69354  0.84001  0.89947  1.0000
  H   H10       1.0  0.74073  0.80702  0.0545  1.0000
  H   H11       1.0  0.6657  0.1364700000000002  0.9954200000000002  1.0000
  H   H12       1.0  0.5004  0.10066000000000003  0.041250000000000016  1.0000
  H   H13       1.0  0.75486  0.46468000000000015  0.5764500000000002  1.0000
  H   H14       1.0  0.93939  0.6983600000000002  0.22174  1.0000
  H   H15       1.0  0.74924  0.65965  0.20048000000000005  1.0000
  H   H16       1.0  0.10696999999999998  0.42263  0.0675  1.0000
  H   H17       1.0  0.07298  0.70261  0.47013  1.0000
  H   H18       1.0  0.10905  0.90982  0.73523  1.0000
  H   H19       1.0  0.28051  0.89647  0.81163  1.0000
  H   H20       1.0  0.78725  0.36259  0.0035  1.0000
  H   H21       1.0  0.19729  0.15986  0.09787  1.0000
  H   H22       1.0  0.24291  0.19054  0.94099  1.0000
  H   H23       1.0  0.16883  0.86424  0.00452  1.0000
  H   H24       1.0  0.0036099999999999995  0.9045400000000001  0.96222  1.0000
  C   C1        1.0  0.31053  0.48986  0.48986  1.0000
  C   C2        1.0  0.35484  0.3910000000000001  0.79802  1.0000
  C   C3        1.0  0.47489  0.36496  0.54392  1.0000
  C   C4        1.0  0.36314  0.41091  0.65647  1.0000
  C   C5        1.0  0.66593  0.05736000000000001  0.15141  1.0000
  C   C6        1.0  0.39472  0.51366  0.10066  1.0000
  C   C7        1.0  0.38133  0.55649  0.97025  1.0000
  C   C8        1.0  0.66135  0.8698200000000001  0.02308  1.0000
  C   C9        1.0  0.5105  0.80035  0.01319  1.0000
  C   C10       1.0  0.81132  0.51207  0.5133  1.0000
  C   C11       1.0  0.85535  0.61018  0.20457  1.0000
  C   C12       1.0  0.97407  0.63797  0.45977  1.0000
  C   C13       1.0  0.86365  0.59061  0.34633  1.0000
  C   C14       1.0  0.16861  0.9411900000000001  0.8470800000000003  1.0000
  C   C15       1.0  0.8918100000000001  0.48443  0.9007  1.0000
  C   C16       1.0  0.8805600000000001  0.44375  0.03269  1.0000
  C   C17       1.0  0.16431  0.12894  0.97427  1.0000
  C   C18       1.0  0.012760000000000004  0.19925000000000007  0.98637  1.0000
  N   N1        1.0  0.59971  0.1527  0.0893  1.0000
  N   N2        1.0  0.50921  0.6413999999999999  0.96801  1.0000
  N   N3        1.0  0.44149  0.41505  0.43875  1.0000
  N   N4        1.0  0.25899  0.4911400000000001  0.62161  1.0000
  N   N5        1.0  0.10192  0.8486400000000001  0.91185  1.0000
  N   N6        1.0  0.00987  0.35856  0.03268  1.0000
  N   N7        1.0  0.9408100000000001  0.5882100000000002  0.5653100000000002  1.0000
  N   N8        1.0  0.76058  0.50954  0.3808  1.0000
  O   O1        1.0  0.52582  0.49095  0.13168  1.0000
  O   O2        1.0  0.28187  0.49548000000000003  0.1612  1.0000
  O   O3        1.0  0.39961  0.88973  0.0496  1.0000
  O   O4        1.0  0.02214  0.5149  0.87531  1.0000
  O   O5        1.0  0.77912  0.49364  0.83389  1.0000
  O   O6        1.0  0.90261  0.11046999999999996  0.9511  1.0000
