data_image0
_chemical_formula_structural       Ag4H8C8N16
_chemical_formula_sum              "Ag4 H8 C8 N16"
_cell_length_a       4.72289
_cell_length_b       8.95144
_cell_length_c       10.17783
_cell_angle_alpha    90.0
_cell_angle_beta     90.0
_cell_angle_gamma    90.01555

_space_group_name_H-M_alt    "P 1"
_space_group_IT_number       1

loop_
  _space_group_symop_operation_xyz
  'x, y, z'

loop_
  _atom_site_type_symbol
  _atom_site_label
  _atom_site_symmetry_multiplicity
  _atom_site_fract_x
  _atom_site_fract_y
  _atom_site_fract_z
  _atom_site_occupancy
  Ag  Ag1       1.0  0.29166  0.24215000000000003  0.75  1.0000
  Ag  Ag2       1.0  0.70833  0.75785  0.25  1.0000
  Ag  Ag3       1.0  0.79161  0.25792  0.25  1.0000
  Ag  Ag4       1.0  0.20839  0.74208  0.75  1.0000
  H   H1        1.0  0.43026  0.25924  0.46953  1.0000
  H   H2        1.0  0.56974  0.7407599999999999  0.96953  1.0000
  H   H3        1.0  0.56974  0.7407599999999999  0.53047  1.0000
  H   H4        1.0  0.43026  0.25924  0.030470000000000004  1.0000
  H   H5        1.0  0.93058  0.24067999999999998  0.53043  1.0000
  H   H6        1.0  0.06942  0.75932  0.03043  1.0000
  H   H7        1.0  0.06942  0.75932  0.46957  1.0000
  H   H8        1.0  0.93058  0.24067999999999998  0.9695699999999999  1.0000
  C   C1        1.0  0.45799  0.1395  0.48286  1.0000
  C   C2        1.0  0.54201  0.8605  0.98286  1.0000
  C   C3        1.0  0.54201  0.8605  0.51714  1.0000
  C   C4        1.0  0.45799  0.1395  0.01714  1.0000
  C   C5        1.0  0.95811  0.36051  0.51707  1.0000
  C   C6        1.0  0.04189  0.63949  0.01707  1.0000
  C   C7        1.0  0.04189  0.63949  0.48293  1.0000
  C   C8        1.0  0.95811  0.36051  0.98293  1.0000
  N   N1        1.0  0.29246  0.07521  0.57386  1.0000
  N   N2        1.0  0.33858  0.92168  0.58938  1.0000
  N   N3        1.0  0.70754  0.92479  0.07385  1.0000
  N   N4        1.0  0.66142  0.07832  0.08938  1.0000
  N   N5        1.0  0.70754  0.92479  0.42615  1.0000
  N   N6        1.0  0.66142  0.07832  0.41061999999999993  1.0000
  N   N7        1.0  0.29246  0.07521  0.9261499999999999  1.0000
  N   N8        1.0  0.33858  0.92168  0.91062  1.0000
  N   N9        1.0  0.79247  0.42465  0.42621  1.0000
  N   N10       1.0  0.83827  0.57827  0.4106699999999999  1.0000
  N   N11       1.0  0.20753  0.57536  0.92621  1.0000
  N   N12       1.0  0.16172  0.42173  0.91067  1.0000
  N   N13       1.0  0.20753  0.57536  0.57379  1.0000
  N   N14       1.0  0.16172  0.42173  0.58933  1.0000
  N   N15       1.0  0.79247  0.42465  0.07379  1.0000
  N   N16       1.0  0.83827  0.57827  0.08933  1.0000
