data_image0
_chemical_formula_structural       Ag2H16C4N4
_chemical_formula_sum              "Ag2 H16 C4 N4"
_cell_length_a       4.0168
_cell_length_b       9.566050000000002
_cell_length_c       9.55172
_cell_angle_alpha    87.72557000000002
_cell_angle_beta     101.96105
_cell_angle_gamma    101.93820999999998

_space_group_name_H-M_alt    "P 1"
_space_group_IT_number       1

loop_
  _space_group_symop_operation_xyz
  'x, y, z'

loop_
  _atom_site_type_symbol
  _atom_site_label
  _atom_site_symmetry_multiplicity
  _atom_site_fract_x
  _atom_site_fract_y
  _atom_site_fract_z
  _atom_site_occupancy
  Ag  Ag1       1.0  0.42954  0.44456000000000007  0.41411999999999993  1.0000
  Ag  Ag2       1.0  0.07097000000000006  0.58684  0.55508  1.0000
  H   H1        1.0  0.38733  0.42782  0.85325  1.0000
  H   H2        1.0  0.25793999999999995  0.5843  0.8996999999999999  1.0000
  H   H3        1.0  0.96754  0.56966  0.8871  1.0000
  H   H4        1.0  0.83396  0.70395  0.9463099999999999  1.0000
  H   H5        1.0  0.11277000000000004  0.14593  0.57291  1.0000
  H   H6        1.0  0.24232999999999993  0.10034  0.41596  1.0000
  H   H7        1.0  0.53268  0.11261  0.43057  1.0000
  H   H8        1.0  0.66695  0.05453  0.2957599999999999  1.0000
  H   H9        1.0  0.6273799999999998  0.58205  0.14704  1.0000
  H   H10       1.0  0.74236  0.41914  0.11098  1.0000
  H   H11       1.0  0.03267999999999999  0.43927  0.11697999999999999  1.0000
  H   H12       1.0  0.18836999999999995  0.2966  0.09120999999999999  1.0000
  H   H13       1.0  0.8726299999999998  0.85342  0.41706  1.0000
  H   H14       1.0  0.7568699999999997  0.8888799999999999  0.5802  1.0000
  H   H15       1.0  0.46663  0.88294  0.56029  1.0000
  H   H16       1.0  0.31099  0.90859  0.7031  1.0000
  C   C1        1.0  0.47599999999999987  0.52258  0.92317  1.0000
  C   C2        1.0  0.024119999999999944  0.07663  0.4775999999999999  1.0000
  C   C3        1.0  0.5303299999999997  0.48313  0.08298  1.0000
  C   C4        1.0  0.9692199999999996  0.917  0.51632  1.0000
  N   N1        1.0  0.7464299999999998  0.61825  0.87786  1.0000
  N   N2        1.0  0.75413  0.12236  0.38212  1.0000
  N   N3        1.0  0.26316  0.39552  0.1382  1.0000
  N   N4        1.0  0.23617999999999995  0.8616800000000001  0.60409  1.0000
