data_image0
_chemical_formula_structural       Cd4H6C18Cl4O12
_chemical_formula_sum              "Cd4 H6 C18 Cl4 O12"
_cell_length_a       9.48358
_cell_length_b       10.452009999999998
_cell_length_c       9.80227
_cell_angle_alpha    78.73878
_cell_angle_beta     87.64608999999999
_cell_angle_gamma    62.24343

_space_group_name_H-M_alt    "P 1"
_space_group_IT_number       1

loop_
  _space_group_symop_operation_xyz
  'x, y, z'

loop_
  _atom_site_type_symbol
  _atom_site_label
  _atom_site_symmetry_multiplicity
  _atom_site_fract_x
  _atom_site_fract_y
  _atom_site_fract_z
  _atom_site_occupancy
  Cd  Cd1       1.0  0.18201  0.38628  0.34633  1.0000
  Cd  Cd2       1.0  0.36615  0.12529  0.13213  1.0000
  Cd  Cd3       1.0  0.8147999999999999  0.61445  0.65202  1.0000
  Cd  Cd4       1.0  0.63273  0.87234  0.87165  1.0000
  H   H1        1.0  0.1348199999999999  0.8440800000000002  0.3139600000000001  1.0000
  H   H2        1.0  0.6599  0.9098500000000002  0.40795  1.0000
  H   H3        1.0  0.7638  0.27504  0.35726  1.0000
  H   H4        1.0  0.8630700000000001  0.15638  0.6868  1.0000
  H   H5        1.0  0.33818  0.08988000000000002  0.59473  1.0000
  H   H6        1.0  0.23442999999999994  0.72448  0.64547  1.0000
  C   C1        1.0  0.9614499999999999  0.06508000000000004  0.33067  1.0000
  C   C2        1.0  0.011990000000000046  0.91519  0.33427  1.0000
  C   C3        1.0  0.9042800000000001  0.8586499999999999  0.3609600000000001  1.0000
  C   C4        1.0  0.7427299999999998  0.95439  0.3811700000000001  1.0000
  C   C5        1.0  0.69167  0.10515999999999999  0.37729  1.0000
  C   C6        1.0  0.8016099999999999  0.15951000000000004  0.35666  1.0000
  C   C7        1.0  0.07742000000000003  0.12527999999999997  0.2940900000000001  1.0000
  C   C8        1.0  0.95825  0.6988000000000002  0.36689  1.0000
  C   C9        1.0  0.51871  0.20632  0.38703  1.0000
  C   C10       1.0  0.03685999999999997  0.9346700000000001  0.67082  1.0000
  C   C11       1.0  0.98592  0.08490000000000003  0.66694  1.0000
  C   C12       1.0  0.09357000000000001  0.14139999999999997  0.64024  1.0000
  C   C13       1.0  0.25498  0.045690000000000015  0.62088  1.0000
  C   C14       1.0  0.30629999999999985  0.8947800000000001  0.62478  1.0000
  C   C15       1.0  0.19676000000000005  0.8400699999999999  0.64559  1.0000
  C   C16       1.0  0.9209199999999998  0.8745500000000002  0.70643  1.0000
  C   C17       1.0  0.03963000000000001  0.30141  0.6327200000000001  1.0000
  C   C18       1.0  0.4793399999999998  0.7946900000000001  0.61514  1.0000
  Cl  Cl1       1.0  0.22784999999999997  0.39925  0.07854  1.0000
  Cl  Cl2       1.0  0.6520200000000002  0.93528  0.12083000000000002  1.0000
  Cl  Cl3       1.0  0.77809  0.5981500000000001  0.92131  1.0000
  Cl  Cl4       1.0  0.34658000000000005  0.061849999999999974  0.8832700000000001  1.0000
  O   O1        1.0  0.19543  0.049850000000000005  0.22701  1.0000
  O   O2        1.0  0.04715999999999999  0.24318000000000004  0.33466  1.0000
  O   O3        1.0  0.8738300000000001  0.63922  0.42185000000000006  1.0000
  O   O4        1.0  0.08990999999999996  0.6291  0.31215  1.0000
  O   O5        1.0  0.47136  0.33244  0.41179  1.0000
  O   O6        1.0  0.4186000000000001  0.15805999999999998  0.36438  1.0000
  O   O7        1.0  0.8066299999999998  0.94516  0.77889  1.0000
  O   O8        1.0  0.9470699999999997  0.7611400000000001  0.65888  1.0000
  O   O9        1.0  0.12583  0.35944000000000004  0.57872  1.0000
  O   O10       1.0  0.9071400000000001  0.37174  0.6860400000000001  1.0000
  O   O11       1.0  0.5278  0.66938  0.58768  1.0000
  O   O12       1.0  0.5783  0.8432  0.64012  1.0000
