data_image0
_chemical_formula_structural       La2H14C30O14
_chemical_formula_sum              "La2 H14 C30 O14"
_cell_length_a       9.34756
_cell_length_b       9.59765
_cell_length_c       11.61999
_cell_angle_alpha    89.75078
_cell_angle_beta     100.95923
_cell_angle_gamma    107.64689

_symmetry_space_group_name_H-M    'P 1'
_symmetry_Int_Tables_number       1

loop_
  _symmetry_equiv_pos_as_xyz
  'x,y,z'

loop_
  _atom_site_type_symbol
  _atom_site_label
  _atom_site_symmetry_multiplicity
  _atom_site_fract_x
  _atom_site_fract_y
  _atom_site_fract_z
  _atom_site_occupancy
  La  La1       1.0  0.78359  0.53025  0.44127  1.0000
  La  La2       1.0  0.21643  0.46975  0.55873  1.0000
  H   H1        1.0  0.59627  0.14716  0.33387  1.0000
  H   H2        1.0  0.30092  0.70172  0.28807  1.0000
  H   H3        1.0  0.17311  0.0287  0.4633  1.0000
  H   H4        1.0  0.67455  0.72855  0.13788  1.0000
  H   H5        1.0  0.5727500000000001  0.60649  0.9355699999999999  1.0000
  H   H6        1.0  0.21143000000000006  0.80301  0.88782  1.0000
  H   H7        1.0  0.3114  0.92475  0.08982  1.0000
  H   H8        1.0  0.40372  0.85284  0.66613  1.0000
  H   H9        1.0  0.6990800000000003  0.29828  0.71193  1.0000
  H   H10       1.0  0.8268900000000001  0.97129  0.5367  1.0000
  H   H11       1.0  0.32545  0.27145  0.86213  1.0000
  H   H12       1.0  0.42725  0.3935  0.06444  1.0000
  H   H13       1.0  0.78858  0.197  0.11219  1.0000
  H   H14       1.0  0.6886  0.07524999999999998  0.91019  1.0000
  C   C1        1.0  0.4239  0.25761  0.45349999999999996  1.0000
  C   C2        1.0  0.38852999999999993  0.10427  0.4050599999999999  1.0000
  C   C3        1.0  0.49049  0.06647  0.34607  1.0000
  C   C4        1.0  0.4536899999999999  0.9232800000000001  0.30026  1.0000
  C   C5        1.0  0.32372  0.81439  0.31962  1.0000
  C   C6        1.0  0.22286999999999998  0.85286  0.37915999999999994  1.0000
  C   C7        1.0  0.08392000000000001  0.74076  0.40324  1.0000
  C   C8        1.0  0.25265  0.99856  0.41868  1.0000
  C   C9        1.0  0.49581  0.8291  0.12581  1.0000
  C   C10       1.0  0.57415  0.74454  0.08204  1.0000
  C   C11       1.0  0.51696  0.67671  0.97012  1.0000
  C   C12       1.0  0.38376000000000005  0.69491  0.9009099999999999  1.0000
  C   C13       1.0  0.3168599999999999  0.6149799999999999  0.78541  1.0000
  C   C14       1.0  0.3116999999999999  0.78665  0.94381  1.0000
  C   C15       1.0  0.36681  0.85379  0.05614  1.0000
  C   C16       1.0  0.5760899999999999  0.74239  0.54647  1.0000
  C   C17       1.0  0.61146  0.8957199999999998  0.59494  1.0000
  C   C18       1.0  0.50951  0.9335299999999999  0.65393  1.0000
  C   C19       1.0  0.54631  0.07672  0.69974  1.0000
  C   C20       1.0  0.67628  0.1856  0.68038  1.0000
  C   C21       1.0  0.77713  0.14713  0.62084  1.0000
  C   C22       1.0  0.91608  0.25923  0.59676  1.0000
  C   C23       1.0  0.7473500000000002  0.0014299999999999988  0.58133  1.0000
  C   C24       1.0  0.50419  0.17089  0.8742  1.0000
  C   C25       1.0  0.42585  0.25545  0.91796  1.0000
  C   C26       1.0  0.48304  0.32329  0.02989  1.0000
  C   C27       1.0  0.61624  0.30509  0.09908999999999998  1.0000
  C   C28       1.0  0.68314  0.38502  0.21459  1.0000
  C   C29       1.0  0.6883000000000001  0.21335  0.0562  1.0000
  C   C30       1.0  0.63319  0.14621  0.94386  1.0000
  O   O1        1.0  0.56178  0.34084  0.46983  1.0000
  O   O2        1.0  0.3138  0.29727999999999993  0.47742  1.0000
  O   O3        1.0  0.9666200000000001  0.77732  0.41064  1.0000
  O   O4        1.0  0.08368999999999999  0.60531  0.41703999999999997  1.0000
  O   O5        1.0  0.55505  0.88916  0.23967  1.0000
  O   O6        1.0  0.20961000000000002  0.64724  0.7143699999999998  1.0000
  O   O7        1.0  0.36749999999999994  0.51142  0.7561299999999999  1.0000
  O   O8        1.0  0.43819  0.65917  0.53005  1.0000
  O   O9        1.0  0.6862  0.70271  0.5226  1.0000
  O   O10       1.0  0.03338999999999997  0.22266999999999998  0.58936  1.0000
  O   O11       1.0  0.9163099999999998  0.39468000000000003  0.58297  1.0000
  O   O12       1.0  0.44496  0.11082999999999998  0.76034  1.0000
  O   O13       1.0  0.79038  0.35274  0.28563  1.0000
  O   O14       1.0  0.63254  0.48861  0.24386999999999998  1.0000
