data_image0
_chemical_formula_structural       Cu3H18C30N12O12
_chemical_formula_sum              "Cu3 H18 C30 N12 O12"
_cell_length_a       7.85206
_cell_length_b       12.77313
_cell_length_c       12.77103
_cell_angle_alpha    116.05237
_cell_angle_beta     101.83508
_cell_angle_gamma    101.83907

_space_group_name_H-M_alt    "P 1"
_space_group_IT_number       1

loop_
  _space_group_symop_operation_xyz
  'x, y, z'

loop_
  _atom_site_type_symbol
  _atom_site_label
  _atom_site_symmetry_multiplicity
  _atom_site_fract_x
  _atom_site_fract_y
  _atom_site_fract_z
  _atom_site_occupancy
  Cu  Cu1       1.0  0.49999999999999983  0.5  0.0  1.0000
  Cu  Cu2       1.0  0.0  0.5  0.5  1.0000
  Cu  Cu3       1.0  0.49999999999999994  0.0  0.5  1.0000
  H   H1        1.0  0.07531000000000004  0.6108800000000001  0.00514  1.0000
  H   H2        1.0  0.31714000000000003  0.5835900000000002  0.7380500000000001  1.0000
  H   H3        1.0  0.7433399999999998  0.48084  0.63119  1.0000
  H   H4        1.0  0.46416  0.39405000000000007  0.38936  1.0000
  H   H5        1.0  0.7334699999999997  0.15449  0.41644  1.0000
  H   H6        1.0  0.2626300000000001  0.15046000000000007  0.51914  1.0000
  H   H7        1.0  0.06948000000000001  0.9946800000000002  0.60547  1.0000
  H   H8        1.0  0.5791099999999998  0.26203  0.84558  1.0000
  H   H9        1.0  0.11252000000000015  0.36902000000000024  0.8497100000000002  1.0000
  H   H10       1.0  0.9246899999999998  0.38912  0.99486  1.0000
  H   H11       1.0  0.6828599999999998  0.41641  0.26195  1.0000
  H   H12       1.0  0.2566599999999999  0.51916  0.36881  1.0000
  H   H13       1.0  0.5358399999999998  0.60595  0.61064  1.0000
  H   H14       1.0  0.26653  0.84551  0.58356  1.0000
  H   H15       1.0  0.7373700000000001  0.8495400000000001  0.48086000000000007  1.0000
  H   H16       1.0  0.93052  0.00531000000000006  0.3945300000000001  1.0000
  H   H17       1.0  0.42089  0.7379700000000002  0.15442  1.0000
  H   H18       1.0  0.8874799999999998  0.6309800000000002  0.15030000000000002  1.0000
  C   C1        1.0  0.7029699999999999  0.5170300000000002  0.8470500000000001  1.0000
  C   C2        1.0  0.8813599999999999  0.5366300000000002  0.8207200000000001  1.0000
  C   C3        1.0  0.05711000000000004  0.5855300000000001  0.9091600000000001  1.0000
  C   C4        1.0  0.19327000000000008  0.5740200000000002  0.7635900000000002  1.0000
  C   C5        1.0  0.8748299999999999  0.5129900000000001  0.7026400000000002  1.0000
  C   C6        1.0  0.1854299999999999  0.32978  0.48294  1.0000
  C   C7        1.0  0.34436000000000005  0.2839600000000001  0.46331000000000006  1.0000
  C   C8        1.0  0.4711999999999999  0.32345  0.4146  1.0000
  C   C9        1.0  0.6191299999999997  0.18954  0.42608  1.0000
  C   C10       1.0  0.3617799999999999  0.18969000000000005  0.48699  1.0000
  C   C11       1.0  0.85546  0.15308  0.6702  1.0000
  C   C12       1.0  0.060290000000000066  0.17924000000000007  0.7159400000000001  1.0000
  C   C13       1.0  0.14740000000000003  0.09078000000000003  0.6762600000000001  1.0000
  C   C14       1.0  0.42966  0.23653000000000002  0.8104  1.0000
  C   C15       1.0  0.17229000000000005  0.2975000000000001  0.8103800000000001  1.0000
  C   C16       1.0  0.29703  0.48297000000000007  0.15296000000000004  1.0000
  C   C17       1.0  0.11863999999999994  0.46337  0.17929  1.0000
  C   C18       1.0  0.9428899999999998  0.41447  0.09084  1.0000
  C   C19       1.0  0.80672  0.42598000000000014  0.23641  1.0000
  C   C20       1.0  0.12516999999999998  0.48701000000000005  0.29736000000000007  1.0000
  C   C21       1.0  0.8145699999999998  0.6702200000000003  0.51706  1.0000
  C   C22       1.0  0.6556399999999999  0.7160300000000002  0.53669  1.0000
  C   C23       1.0  0.5287899999999998  0.67655  0.5854000000000001  1.0000
  C   C24       1.0  0.3808700000000001  0.8104600000000002  0.5739200000000001  1.0000
  C   C25       1.0  0.63822  0.8103100000000001  0.51301  1.0000
  C   C26       1.0  0.14453000000000002  0.84692  0.32980000000000004  1.0000
  C   C27       1.0  0.9397099999999996  0.82076  0.28406  1.0000
  C   C28       1.0  0.8526  0.9092200000000005  0.3237400000000001  1.0000
  C   C29       1.0  0.57034  0.76347  0.1896  1.0000
  C   C30       1.0  0.8277  0.7025000000000001  0.18963000000000002  1.0000
  N   N1        1.0  0.029150000000000023  0.5315000000000001  0.6735600000000002  1.0000
  N   N2        1.0  0.21253  0.6037200000000001  0.8805400000000001  1.0000
  N   N3        1.0  0.49764999999999987  0.14211  0.46853  1.0000
  N   N4        1.0  0.6085299999999998  0.27670000000000006  0.39649000000000006  1.0000
  N   N5        1.0  0.3558299999999999  0.32660000000000017  0.8579200000000001  1.0000
  N   N6        1.0  0.3315599999999999  0.11945999999999998  0.72304  1.0000
  N   N7        1.0  0.9708499999999998  0.4685000000000001  0.32645  1.0000
  N   N8        1.0  0.78747  0.39628000000000013  0.11946000000000001  1.0000
  N   N9        1.0  0.50235  0.8578800000000001  0.53147  1.0000
  N   N10       1.0  0.39147  0.7233  0.60351  1.0000
  N   N11       1.0  0.64417  0.6734  0.14208  1.0000
  N   N12       1.0  0.66844  0.88054  0.27696  1.0000
  O   O1        1.0  0.7156499999999998  0.50552  0.94425  1.0000
  O   O2        1.0  0.56357  0.5151500000000002  0.77809  1.0000
  O   O3        1.0  0.2092200000000001  0.4384900000000002  0.4944400000000001  1.0000
  O   O4        1.0  0.04811  0.26264  0.48492  1.0000
  O   O5        1.0  0.7706699999999999  0.05589000000000004  0.5610600000000001  1.0000
  O   O6        1.0  0.7848699999999997  0.22192999999999993  0.73746  1.0000
  O   O7        1.0  0.28435  0.4944800000000001  0.055750000000000015  1.0000
  O   O8        1.0  0.43642999999999993  0.48485000000000006  0.22191  1.0000
  O   O9        1.0  0.7907799999999998  0.56151  0.50556  1.0000
  O   O10       1.0  0.9518899999999998  0.7373600000000002  0.5150800000000001  1.0000
  O   O11       1.0  0.2293300000000001  0.9441100000000002  0.43894  1.0000
  O   O12       1.0  0.21513000000000002  0.7780600000000001  0.26254000000000005  1.0000
