data_image0
_chemical_formula_structural       Co4H12C34O18
_chemical_formula_sum              "Co4 H12 C34 O18"
_cell_length_a       7.16259
_cell_length_b       12.12728
_cell_length_c       12.791199999999998
_cell_angle_alpha    115.06337
_cell_angle_beta     89.28543
_cell_angle_gamma    106.55058000000001

_symmetry_space_group_name_H-M    'P 1'
_symmetry_Int_Tables_number       1

loop_
  _symmetry_equiv_pos_as_xyz
  'x,y,z'

loop_
  _atom_site_type_symbol
  _atom_site_label
  _atom_site_symmetry_multiplicity
  _atom_site_fract_x
  _atom_site_fract_y
  _atom_site_fract_z
  _atom_site_occupancy
  Co  Co1       1.0  0.053169999999999995  0.91854  0.29357  1.0000
  Co  Co2       1.0  0.94726  0.08474999999999998  0.70774  1.0000
  Co  Co3       1.0  0.50011  0.0044300000000000095  0.5034  1.0000
  Co  Co4       1.0  0.00452  0.00202  0.00225  1.0000
  H   H1        1.0  0.78046  0.26729  0.43781  1.0000
  H   H2        1.0  0.019129999999999994  0.57121  0.31241  1.0000
  H   H3        1.0  0.63445  0.23719  0.04655  1.0000
  H   H4        1.0  0.7298600000000002  0.6211  0.36621  1.0000
  H   H5        1.0  0.96742  0.35724  0.15426  1.0000
  H   H6        1.0  0.48211000000000004  0.4451500000000001  0.39019000000000004  1.0000
  H   H7        1.0  0.22146000000000007  0.73989  0.56964  1.0000
  H   H8        1.0  0.98178  0.43121  0.69267  1.0000
  H   H9        1.0  0.38193  0.76127  0.9554  1.0000
  H   H10       1.0  0.27369000000000004  0.39169  0.64692  1.0000
  H   H11       1.0  0.04663999999999993  0.64323  0.8511700000000001  1.0000
  H   H12       1.0  0.52454  0.56658  0.62307  1.0000
  C   C1        1.0  0.89442  0.3248400000000001  0.30597  1.0000
  C   C2        1.0  0.23464  0.49493  0.35092  1.0000
  C   C3        1.0  0.74769  0.26212  0.35278000000000004  1.0000
  C   C4        1.0  0.17432000000000006  0.58052  0.32323  1.0000
  C   C5        1.0  0.5595900000000001  0.19209999999999997  0.29198  1.0000
  C   C6        1.0  0.31421000000000004  0.68422  0.31732  1.0000
  C   C7        1.0  0.51705  0.18537000000000003  0.18146000000000004  1.0000
  C   C8        1.0  0.5154399999999998  0.69864  0.33123  1.0000
  C   C9        1.0  0.6648300000000001  0.24621  0.1334  1.0000
  C   C10       1.0  0.57423  0.60895  0.35342000000000007  1.0000
  C   C11       1.0  0.8525000000000001  0.31445000000000006  0.19446000000000002  1.0000
  C   C12       1.0  0.43607  0.51061  0.36677000000000004  1.0000
  C   C13       1.0  0.4157  0.12393  0.34675  1.0000
  C   C14       1.0  0.2400599999999999  0.7805699999999999  0.30306  1.0000
  C   C15       1.0  0.31967  0.11322999999999998  0.11189  1.0000
  C   C16       1.0  0.66762  0.80924  0.32629  1.0000
  C   C17       1.0  0.09101  0.39618  0.37703000000000003  1.0000
  C   C18       1.0  0.11279000000000007  0.6794800000000001  0.7007100000000002  1.0000
  C   C19       1.0  0.76938  0.51227  0.65851  1.0000
  C   C20       1.0  0.2573000000000001  0.74323  0.65348  1.0000
  C   C21       1.0  0.82745  0.4246700000000001  0.6841700000000001  1.0000
  C   C22       1.0  0.4471  0.81204  0.7123300000000001  1.0000
  C   C23       1.0  0.68591  0.32227  0.69108  1.0000
  C   C24       1.0  0.49337  0.81646  0.82136  1.0000
  C   C25       1.0  0.48544999999999994  0.31061  0.67898  1.0000
  C   C26       1.0  0.34833  0.75409  0.86963  1.0000
  C   C27       1.0  0.42884999999999995  0.40187  0.65828  1.0000
  C   C28       1.0  0.15912  0.6872  0.81059  1.0000
  C   C29       1.0  0.56864  0.49957  0.6450500000000001  1.0000
  C   C30       1.0  0.58873  0.88104  0.65721  1.0000
  C   C31       1.0  0.75714  0.22374999999999998  0.7034900000000001  1.0000
  C   C32       1.0  0.69085  0.88864  0.89052  1.0000
  C   C33       1.0  0.33201  0.19951  0.68201  1.0000
  C   C34       1.0  0.91342  0.61085  0.63243  1.0000
  O   O1        1.0  0.47719  0.12546  0.43933  1.0000
  O   O2        1.0  0.17343  0.7660899999999999  0.20586  1.0000
  O   O3        1.0  0.23595  0.06805  0.29677  1.0000
  O   O4        1.0  0.22855  0.8784499999999998  0.39680000000000004  1.0000
  O   O5        1.0  0.26621999999999996  0.99136  0.052210000000000006  1.0000
  O   O6        1.0  0.64812  0.9198999999999998  0.36512  1.0000
  O   O7        1.0  0.20081  0.17303  0.1061  1.0000
  O   O8        1.0  0.8202600000000002  0.78353  0.28006  1.0000
  O   O9        1.0  0.13447  0.37712  0.4598  1.0000
  O   O10       1.0  0.52308  0.88375  0.56775  1.0000
  O   O11       1.0  0.81904  0.23443  0.7999200000000001  1.0000
  O   O12       1.0  0.771  0.9329  0.70327  1.0000
  O   O13       1.0  0.7713600000000003  0.12777  0.60848  1.0000
  O   O14       1.0  0.7451600000000003  0.010880000000000056  0.9480700000000001  1.0000
  O   O15       1.0  0.35149  0.08869  0.64109  1.0000
  O   O16       1.0  0.80804  0.829  0.8989700000000002  1.0000
  O   O17       1.0  0.17885999999999996  0.22398999999999997  0.7284700000000001  1.0000
  O   O18       1.0  0.86682  0.63283  0.5521  1.0000
