data_image0
_chemical_formula_structural       Co6H6C24N12O18
_chemical_formula_sum              "Co6 H6 C24 N12 O18"
_cell_length_a       6.97329
_cell_length_b       15.12766
_cell_length_c       15.11471
_cell_angle_alpha    117.68684
_cell_angle_beta     98.85615
_cell_angle_gamma    98.8317

_symmetry_space_group_name_H-M    'P 1'
_symmetry_Int_Tables_number       1

loop_
  _symmetry_equiv_pos_as_xyz
  'x,y,z'

loop_
  _atom_site_type_symbol
  _atom_site_label
  _atom_site_symmetry_multiplicity
  _atom_site_fract_x
  _atom_site_fract_y
  _atom_site_fract_z
  _atom_site_occupancy
  Co  Co1       1.0  0.7076700000000002  0.3222100000000001  0.73916  1.0000
  Co  Co2       1.0  0.9667000000000001  0.26076  0.58233  1.0000
  Co  Co3       1.0  0.3848700000000001  0.41719999999999996  0.67795  1.0000
  Co  Co4       1.0  0.29224000000000006  0.6779200000000002  0.26097  1.0000
  Co  Co5       1.0  0.03311000000000008  0.7391600000000003  0.41769  1.0000
  Co  Co6       1.0  0.6150799999999998  0.58267  0.322  1.0000
  H   H1        1.0  0.1330000000000001  0.9770600000000003  0.4505100000000001  1.0000
  H   H2        1.0  0.6832200000000003  0.5496300000000002  0.52733  1.0000
  H   H3        1.0  0.15542000000000009  0.47275000000000006  0.022120000000000004  1.0000
  H   H4        1.0  0.8671700000000001  0.02296999999999994  0.54968  1.0000
  H   H5        1.0  0.31670999999999994  0.45022  0.47255  1.0000
  H   H6        1.0  0.8446100000000003  0.5271800000000002  0.9778700000000002  1.0000
  C   C1        1.0  0.6308600000000001  0.10042999999999995  0.5655  1.0000
  C   C2        1.0  0.41899  0.08724  0.53719  1.0000
  C   C3        1.0  0.2941400000000002  0.9873900000000003  0.47282000000000013  1.0000
  C   C4        1.0  0.3245200000000001  0.17561  0.56721  1.0000
  C   C5        1.0  0.06535000000000002  0.43390000000000006  0.5343  1.0000
  C   C6        1.0  0.8822400000000004  0.4624700000000001  0.5499  1.0000
  C   C7        1.0  0.82191  0.52737  0.5151  1.0000
  C   C8        1.0  0.75811  0.4325600000000001  0.60833  1.0000
  C   C9        1.0  0.53127  0.4656100000000002  0.8995600000000001  1.0000
  C   C10       1.0  0.33251000000000003  0.45022  0.91255  1.0000
  C   C11       1.0  0.30661  0.48507  0.012310000000000003  1.0000
  C   C12       1.0  0.15018000000000004  0.39175  0.82404  1.0000
  C   C13       1.0  0.36921  0.8995999999999998  0.4347  1.0000
  C   C14       1.0  0.5810900000000002  0.9127800000000003  0.4629900000000001  1.0000
  C   C15       1.0  0.70599  0.012639999999999981  0.52736  1.0000
  C   C16       1.0  0.67554  0.82439  0.43286  1.0000
  C   C17       1.0  0.9346600000000003  0.56602  0.4656800000000001  1.0000
  C   C18       1.0  0.11778000000000013  0.5374600000000003  0.45009  1.0000
  C   C19       1.0  0.17808000000000007  0.4725300000000001  0.48485  1.0000
  C   C20       1.0  0.24190000000000011  0.5674100000000002  0.39169  1.0000
  C   C21       1.0  0.46876999999999996  0.53443  0.10050000000000003  1.0000
  C   C22       1.0  0.66754  0.54983  0.08750000000000002  1.0000
  C   C23       1.0  0.6934500000000001  0.5149400000000002  0.9877400000000002  1.0000
  C   C24       1.0  0.8498800000000004  0.60824  0.17597  1.0000
  N   N1        1.0  0.6174200000000001  0.25119  0.8137  1.0000
  N   N2        1.0  0.57823  0.21458  0.8609  1.0000
  N   N3        1.0  0.80329  0.18614000000000008  0.4368600000000001  1.0000
  N   N4        1.0  0.71632  0.1385600000000001  0.3530900000000001  1.0000
  N   N5        1.0  0.36595000000000016  0.5629200000000002  0.74876  1.0000
  N   N6        1.0  0.3629800000000003  0.6466500000000003  0.7855900000000002  1.0000
  N   N7        1.0  0.38246000000000013  0.74886  0.18638  1.0000
  N   N8        1.0  0.42176000000000025  0.7853600000000002  0.1391  1.0000
  N   N9        1.0  0.1965200000000001  0.8138300000000003  0.56332  1.0000
  N   N10       1.0  0.28368999999999994  0.8615299999999999  0.64704  1.0000
  N   N11       1.0  0.63417  0.4371200000000001  0.25122  1.0000
  N   N12       1.0  0.6368100000000002  0.3533400000000001  0.21435  1.0000
  O   O1        1.0  0.76352  0.19332000000000005  0.62729  1.0000
  O   O2        1.0  0.43908  0.26829  0.62095  1.0000
  O   O3        1.0  0.13476000000000002  0.1561500000000001  0.53618  1.0000
  O   O4        1.0  0.13624  0.37159000000000003  0.56464  1.0000
  O   O5        1.0  0.81919  0.3789800000000001  0.64745  1.0000
  O   O6        1.0  0.59959  0.46365000000000023  0.61998  1.0000
  O   O7        1.0  0.5718700000000003  0.4350700000000001  0.8068000000000002  1.0000
  O   O8        1.0  0.17163000000000017  0.35273000000000015  0.7312200000000002  1.0000
  O   O9        1.0  0.9802100000000001  0.3799200000000001  0.8436700000000003  1.0000
  O   O10       1.0  0.2365000000000001  0.8067200000000002  0.37298  1.0000
  O   O11       1.0  0.5609800000000001  0.7317200000000001  0.37907  1.0000
  O   O12       1.0  0.8653100000000004  0.8438500000000001  0.4638800000000001  1.0000
  O   O13       1.0  0.8636600000000001  0.6283600000000001  0.43541000000000013  1.0000
  O   O14       1.0  0.1808200000000001  0.6210200000000002  0.35261  1.0000
  O   O15       1.0  0.4004400000000002  0.5363200000000002  0.3800400000000001  1.0000
  O   O16       1.0  0.42814000000000013  0.56502  0.19326  1.0000
  O   O17       1.0  0.8283900000000002  0.6472700000000002  0.26878  1.0000
  O   O18       1.0  0.019849999999999996  0.6201  0.15634  1.0000
