data_image0
_chemical_formula_structural       Cd6H12C30N12O24
_chemical_formula_sum              "Cd6 H12 C30 N12 O24"
_cell_length_a       9.14926
_cell_length_b       12.325120000000002
_cell_length_c       12.70161
_cell_angle_alpha    89.70760999999999
_cell_angle_beta     90.00451
_cell_angle_gamma    99.2496

_symmetry_space_group_name_H-M    'P 1'
_symmetry_Int_Tables_number       1

loop_
  _symmetry_equiv_pos_as_xyz
  'x,y,z'

loop_
  _atom_site_type_symbol
  _atom_site_label
  _atom_site_symmetry_multiplicity
  _atom_site_fract_x
  _atom_site_fract_y
  _atom_site_fract_z
  _atom_site_occupancy
  Cd  Cd1       1.0  0.7672999999999999  0.61102  0.09148  1.0000
  Cd  Cd2       1.0  0.76741  0.96695  0.21167000000000005  1.0000
  Cd  Cd3       1.0  0.7551  0.6680399999999999  0.4402600000000001  1.0000
  Cd  Cd4       1.0  0.77291  0.11331  0.9100300000000002  1.0000
  Cd  Cd5       1.0  0.76653  0.46841  0.78896  1.0000
  Cd  Cd6       1.0  0.75507  0.16928  0.56204  1.0000
  H   H1        1.0  0.02542000000000002  0.84773  0.33091000000000004  1.0000
  H   H2        1.0  0.15098  0.57657  0.98017  1.0000
  H   H3        1.0  0.39752  0.01808  0.12117000000000003  1.0000
  H   H4        1.0  0.30389  0.62679  0.29432  1.0000
  H   H5        1.0  0.24182000000000003  0.80828  0.38325  1.0000
  H   H6        1.0  0.7944099999999998  0.9069899999999997  0.7770500000000002  1.0000
  H   H7        1.0  0.026589999999999996  0.34817  0.66883  1.0000
  H   H8        1.0  0.15558  0.07637  0.01956  1.0000
  H   H9        1.0  0.39637999999999995  0.51825  0.8784400000000002  1.0000
  H   H10       1.0  0.30547  0.12338999999999999  0.70386  1.0000
  H   H11       1.0  0.24033  0.30629  0.62018  1.0000
  H   H12       1.0  0.80361  0.40637  0.22418000000000005  1.0000
  C   C1        1.0  0.9734700000000001  0.64206  0.295  1.0000
  C   C2        1.0  0.08247  0.6213  0.21527  1.0000
  C   C3        1.0  0.23497999999999997  0.61785  0.22449000000000005  1.0000
  C   C4        1.0  0.28107  0.59816  0.12287  1.0000
  C   C5        1.0  0.43271999999999994  0.59278  0.08167000000000002  1.0000
  C   C6        1.0  0.5658399999999999  0.7935699999999999  0.35192  1.0000
  C   C7        1.0  0.4595099999999999  0.85707  0.30369000000000007  1.0000
  C   C8        1.0  0.30919  0.85618  0.32403  1.0000
  C   C9        1.0  0.26543999999999995  0.9272799999999999  0.24860000000000004  1.0000
  C   C10       1.0  0.12117999999999995  0.9583299999999998  0.22749  1.0000
  C   C11       1.0  0.78453  0.70373  0.64681  1.0000
  C   C12       1.0  0.79529  0.72776  0.7594800000000002  1.0000
  C   C13       1.0  0.79648  0.8270599999999999  0.81233  1.0000
  C   C14       1.0  0.7999799999999999  0.7973  0.9187800000000003  1.0000
  C   C15       1.0  0.79113  0.8598499999999999  0.01528  1.0000
  C   C16       1.0  0.9740999999999999  0.13895  0.70545  1.0000
  C   C17       1.0  0.0847  0.11789  0.78382  1.0000
  C   C18       1.0  0.23732  0.11498  0.77417  1.0000
  C   C19       1.0  0.28444  0.09735  0.87618  1.0000
  C   C20       1.0  0.43609999999999993  0.09439  0.91852  1.0000
  C   C21       1.0  0.5658  0.29525  0.6486900000000001  1.0000
  C   C22       1.0  0.45873  0.35727  0.6976700000000001  1.0000
  C   C23       1.0  0.30785  0.3550499999999999  0.67836  1.0000
  C   C24       1.0  0.26411  0.42608  0.75308  1.0000
  C   C25       1.0  0.12025999999999999  0.45804  0.77288  1.0000
  C   C26       1.0  0.78859  0.20238999999999996  0.35494  1.0000
  C   C27       1.0  0.8002000000000001  0.22663  0.24193000000000003  1.0000
  C   C28       1.0  0.80328  0.32655999999999996  0.18877  1.0000
  C   C29       1.0  0.80557  0.29757  0.08238000000000001  1.0000
  C   C30       1.0  0.79557  0.36069999999999997  0.9857000000000001  1.0000
  N   N1        1.0  0.03627  0.60362  0.11457  1.0000
  N   N2        1.0  0.15802  0.59116  0.05995000000000001  1.0000
  N   N3        1.0  0.505  0.9254399999999999  0.22218  1.0000
  N   N4        1.0  0.38753  0.9672199999999999  0.18937  1.0000
  N   N5        1.0  0.79818  0.64518  0.83092  1.0000
  N   N6        1.0  0.8023100000000001  0.68739  0.9274300000000002  1.0000
  N   N7        1.0  0.039549999999999995  0.10183999999999999  0.88509  1.0000
  N   N8        1.0  0.16183  0.09055  0.9395600000000002  1.0000
  N   N9        1.0  0.50426  0.42591999999999997  0.77827  1.0000
  N   N10       1.0  0.38645  0.4669499999999999  0.81126  1.0000
  N   N11       1.0  0.80078  0.14435  0.17067  1.0000
  N   N12       1.0  0.80571  0.18743  0.07401  1.0000
  O   O1        1.0  0.014720000000000016  0.69934  0.37603  1.0000
  O   O2        1.0  0.83582  0.60231  0.2794  1.0000
  O   O3        1.0  0.53398  0.59911  0.15228  1.0000
  O   O4        1.0  0.45156  0.58652  0.98359  1.0000
  O   O5        1.0  0.51849  0.70922  0.40715  1.0000
  O   O6        1.0  0.70404  0.8256999999999999  0.33326  1.0000
  O   O7        1.0  0.008150000000000008  0.91453  0.29138  1.0000
  O   O8        1.0  0.09607  0.022449999999999998  0.15784  1.0000
  O   O9        1.0  0.79329  0.78344  0.582  1.0000
  O   O10       1.0  0.76389  0.60217  0.61687  1.0000
  O   O11       1.0  0.76332  0.9576599999999997  0.01147  1.0000
  O   O12       1.0  0.80722  0.81401  0.10513  1.0000
  O   O13       1.0  0.01405999999999999  0.19596999999999998  0.62349  1.0000
  O   O14       1.0  0.8365499999999999  0.10061999999999999  0.72394  1.0000
  O   O15       1.0  0.54014  0.10639999999999998  0.84985  1.0000
  O   O16       1.0  0.45192  0.08442  0.01656  1.0000
  O   O17       1.0  0.51882  0.21163  0.59314  1.0000
  O   O18       1.0  0.70395  0.32797  0.6667900000000001  1.0000
  O   O19       1.0  0.0076399999999999975  0.41329999999999995  0.7094400000000001  1.0000
  O   O20       1.0  0.09574999999999997  0.52349  0.8408800000000002  1.0000
  O   O21       1.0  0.80044  0.28277  0.4185  1.0000
  O   O22       1.0  0.76376  0.10105  0.38626  1.0000
  O   O23       1.0  0.76351  0.45731  0.9890700000000002  1.0000
  O   O24       1.0  0.81429  0.31625  0.89606  1.0000
