data_image0
_chemical_formula_structural       Mg8P6H12C16O56
_chemical_formula_sum              "Mg8 P6 H12 C16 O56"
_cell_length_a       9.35891
_cell_length_b       9.84313
_cell_length_c       17.76481
_cell_angle_alpha    77.43364
_cell_angle_beta     75.52964000000001
_cell_angle_gamma    74.2318

_space_group_name_H-M_alt    "P 1"
_space_group_IT_number       1

loop_
  _space_group_symop_operation_xyz
  'x, y, z'

loop_
  _atom_site_type_symbol
  _atom_site_label
  _atom_site_symmetry_multiplicity
  _atom_site_fract_x
  _atom_site_fract_y
  _atom_site_fract_z
  _atom_site_occupancy
  Mg  Mg1       1.0  0.029390000000000003  0.96213  0.39728  1.0000
  Mg  Mg2       1.0  0.39253999999999994  0.34120000000000006  0.33479  1.0000
  Mg  Mg3       1.0  0.06269999999999999  0.98966  0.09015  1.0000
  Mg  Mg4       1.0  0.6301500000000002  0.63193  0.14672  1.0000
  Mg  Mg5       1.0  0.01286000000000003  0.044489999999999995  0.57361  1.0000
  Mg  Mg6       1.0  0.62997  0.69038  0.65895  1.0000
  Mg  Mg7       1.0  0.9554600000000001  0.9983199999999999  0.92507  1.0000
  Mg  Mg8       1.0  0.28801999999999994  0.39802  0.83619  1.0000
  P   P1        1.0  0.67112  0.08443  0.40654  1.0000
  P   P2        1.0  0.91699  0.3483300000000001  0.08233  1.0000
  P   P3        1.0  0.3376600000000002  0.90003  0.59083  1.0000
  P   P4        1.0  0.1020400000000001  0.6835699999999999  0.90386  1.0000
  P   P5        1.0  0.31016  0.62081  0.28167  1.0000
  P   P6        1.0  0.6371  0.36562999999999996  0.74449  1.0000
  H   H1        1.0  0.53244  0.9253200000000001  0.43634  1.0000
  H   H2        1.0  0.6585500000000001  0.17428000000000002  0.51121  1.0000
  H   H3        1.0  0.10975  0.72053  0.21814  1.0000
  H   H4        1.0  0.08139000000000002  0.48584000000000005  0.0549  1.0000
  H   H5        1.0  0.8173400000000001  0.36989000000000005  0.9804  1.0000
  H   H6        1.0  0.36191  0.82732  0.26135  1.0000
  H   H7        1.0  0.47591000000000006  0.06157000000000002  0.55948  1.0000
  H   H8        1.0  0.34871  0.8124400000000003  0.48578999999999994  1.0000
  H   H9        1.0  0.8049100000000001  0.26328  0.82061  1.0000
  H   H10       1.0  0.9280700000000001  0.55513  0.93791  1.0000
  H   H11       1.0  0.19218000000000002  0.69439  0.00948  1.0000
  H   H12       1.0  0.7284099999999998  0.17606999999999995  0.6834200000000002  1.0000
  C   C1        1.0  0.3427100000000002  0.5488900000000001  0.48166000000000003  1.0000
  C   C2        1.0  0.93155  0.6721  0.38641  1.0000
  C   C3        1.0  0.17887  0.17194000000000004  0.41586  1.0000
  C   C4        1.0  0.22887999999999994  0.14535000000000006  0.3292  1.0000
  C   C5        1.0  0.36602000000000007  0.7605100000000001  0.07314  1.0000
  C   C6        1.0  0.3607000000000001  0.8676  0.12678  1.0000
  C   C7        1.0  0.83189  0.8351  0.08144  1.0000
  C   C8        1.0  0.8629500000000001  0.78034  0.16552  1.0000
  C   C9        1.0  0.7072299999999999  0.42266000000000004  0.5259  1.0000
  C   C10       1.0  0.10202999999999997  0.32186  0.61126  1.0000
  C   C11       1.0  0.8537800000000001  0.8336300000000001  0.57062  1.0000
  C   C12       1.0  0.7746700000000001  0.9088099999999998  0.64409  1.0000
  C   C13       1.0  0.53807  0.33347  0.98089  1.0000
  C   C14       1.0  0.68328  0.88229  0.90421  1.0000
  C   C15       1.0  0.16150000000000006  0.17048  0.91731  1.0000
  C   C16       1.0  0.07370000000000002  0.24091999999999994  0.84977  1.0000
  O   O1        1.0  0.8371799999999999  0.07468  0.37505  1.0000
  O   O2        1.0  0.5665  0.21292000000000003  0.37111  1.0000
  O   O3        1.0  0.63673  0.93491  0.40813  1.0000
  O   O4        1.0  0.63603  0.08731000000000001  0.50332  1.0000
  O   O5        1.0  0.24413000000000004  0.52744  0.35597  1.0000
  O   O6        1.0  0.21344000000000007  0.65345  0.21598000000000003  1.0000
  O   O7        1.0  0.2650000000000002  0.6645399999999999  0.48554  1.0000
  O   O8        1.0  0.4225399999999999  0.43424000000000007  0.48092000000000007  1.0000
  O   O9        1.0  0.9843600000000001  0.7726500000000001  0.37457  1.0000
  O   O10       1.0  0.8788999999999998  0.57326  0.39756  1.0000
  O   O11       1.0  0.07947000000000001  0.10128999999999998  0.4588900000000001  1.0000
  O   O12       1.0  0.23541000000000004  0.25199  0.43896  1.0000
  O   O13       1.0  0.18092  0.048350000000000004  0.31343  1.0000
  O   O14       1.0  0.31523000000000007  0.22006000000000003  0.28341  1.0000
  O   O15       1.0  0.9358600000000001  0.18888  0.10687  1.0000
  O   O16       1.0  0.7777699999999999  0.44619000000000003  0.12217000000000001  1.0000
  O   O17       1.0  0.07207999999999998  0.38676000000000005  0.07968000000000001  1.0000
  O   O18       1.0  0.91277  0.38668  0.9855  1.0000
  O   O19       1.0  0.46968  0.53666  0.24758  1.0000
  O   O20       1.0  0.30851000000000006  0.76688  0.30759  1.0000
  O   O21       1.0  0.24913999999999997  0.7908600000000001  0.04186  1.0000
  O   O22       1.0  0.47735  0.65446  0.0682  1.0000
  O   O23       1.0  0.24947000000000014  0.97392  0.1328  1.0000
  O   O24       1.0  0.4651200000000001  0.8329799999999999  0.16691  1.0000
  O   O25       1.0  0.8997800000000001  0.93468  0.041  1.0000
  O   O26       1.0  0.74982  0.7803  0.05731  1.0000
  O   O27       1.0  0.9642000000000001  0.8298100000000002  0.18191  1.0000
  O   O28       1.0  0.79031  0.6919399999999999  0.20825  1.0000
  O   O29       1.0  0.17040999999999998  0.9131000000000001  0.62266  1.0000
  O   O30       1.0  0.4405799999999999  0.76814  0.6256900000000002  1.0000
  O   O31       1.0  0.37525  0.04660999999999999  0.59203  1.0000
  O   O32       1.0  0.37089  0.899  0.49488  1.0000
  O   O33       1.0  0.68388  0.50768  0.72006  1.0000
  O   O34       1.0  0.6929499999999998  0.2804899999999999  0.8223600000000002  1.0000
  O   O35       1.0  0.77156  0.31345  0.50378  1.0000
  O   O36       1.0  0.6427  0.53311  0.54556  1.0000
  O   O37       1.0  0.042310000000000014  0.23151  0.61001  1.0000
  O   O38       1.0  0.15711999999999998  0.41344  0.61357  1.0000
  O   O39       1.0  0.95793  0.8882000000000001  0.52233  1.0000
  O   O40       1.0  0.8075400000000001  0.7288100000000001  0.56453  1.0000
  O   O41       1.0  0.81901  0.018889999999999987  0.64769  1.0000
  O   O42       1.0  0.6718600000000001  0.8588  0.6928700000000001  1.0000
  O   O43       1.0  0.08608  0.8424300000000002  0.87488  1.0000
  O   O44       1.0  0.22832000000000002  0.59184  0.85196  1.0000
  O   O45       1.0  0.94143  0.65106  0.90842  1.0000
  O   O46       1.0  0.12293000000000004  0.64129  0.99344  1.0000
  O   O47       1.0  0.47084  0.36738  0.75743  1.0000
  O   O48       1.0  0.72873  0.27928000000000003  0.67387  1.0000
  O   O49       1.0  0.64898  0.26696  0.0034200000000000007  1.0000
  O   O50       1.0  0.42839000000000005  0.40034999999999993  0.9583  1.0000
  O   O51       1.0  0.7495699999999997  0.9726299999999999  0.8977900000000002  1.0000
  O   O52       1.0  0.6125000000000005  0.79974  0.90771  1.0000
  O   O53       1.0  0.11357000000000002  0.06780999999999998  0.96475  1.0000
  O   O54       1.0  0.2700099999999999  0.22081000000000006  0.91963  1.0000
  O   O55       1.0  0.9644400000000001  0.18621  0.84825  1.0000
  O   O56       1.0  0.11420000000000001  0.34546999999999994  0.80286  1.0000
