data_image0
_chemical_formula_structural       Zn5H16C48O24
_chemical_formula_sum              "Zn5 H16 C48 O24"
_cell_length_a       9.35943
_cell_length_b       10.85929
_cell_length_c       19.116240000000005
_cell_angle_alpha    105.29649
_cell_angle_beta     94.39449
_cell_angle_gamma    107.72823

_symmetry_space_group_name_H-M    'P 1'
_symmetry_Int_Tables_number       1

loop_
  _symmetry_equiv_pos_as_xyz
  'x,y,z'

loop_
  _atom_site_type_symbol
  _atom_site_label
  _atom_site_symmetry_multiplicity
  _atom_site_fract_x
  _atom_site_fract_y
  _atom_site_fract_z
  _atom_site_occupancy
  Zn  Zn1       1.0  0.32212  0.036560000000000016  0.14071  1.0000
  Zn  Zn2       1.0  0.1729  0.38935  0.74158  1.0000
  Zn  Zn3       1.0  0.67788  0.96344  0.85929  1.0000
  Zn  Zn4       1.0  0.8271  0.61065  0.25842  1.0000
  Zn  Zn5       1.0  0.0  0.0  0.0  1.0000
  H   H1        1.0  0.65261  0.27806  0.04334  1.0000
  H   H2        1.0  0.6439  0.48892  0.87994  1.0000
  H   H3        1.0  0.73403  0.0015000000000000002  0.15982  1.0000
  H   H4        1.0  0.22674  0.25337  0.93073  1.0000
  H   H5        1.0  0.09638000000000002  0.99785  0.31099  1.0000
  H   H6        1.0  0.8546900000000001  0.6391400000000002  0.96615  1.0000
  H   H7        1.0  0.6538600000000001  0.9691  0.37378  1.0000
  H   H8        1.0  0.13469999999999993  0.84568  0.52286  1.0000
  H   H9        1.0  0.34739000000000003  0.72194  0.95666  1.0000
  H   H10       1.0  0.3561  0.51108  0.12005  1.0000
  H   H11       1.0  0.26597000000000004  0.9985100000000001  0.84017  1.0000
  H   H12       1.0  0.77326  0.74663  0.06927  1.0000
  H   H13       1.0  0.90362  0.0021599999999999935  0.68901  1.0000
  H   H14       1.0  0.14531  0.36086  0.03385  1.0000
  H   H15       1.0  0.34613999999999984  0.030899999999999987  0.62622  1.0000
  H   H16       1.0  0.8653  0.15432  0.47713  1.0000
  C   C1        1.0  0.5913599999999999  0.30554  0.00253  1.0000
  C   C2        1.0  0.34865  0.17896  0.03818  1.0000
  C   C3        1.0  0.5868800000000001  0.4257600000000001  0.91216  1.0000
  C   C4        1.0  0.027839999999999997  0.017389999999999982  0.17372  1.0000
  C   C5        1.0  0.6712900000000002  0.3891500000000001  0.9627300000000001  1.0000
  C   C6        1.0  0.77508  0.99478  0.21298  1.0000
  C   C7        1.0  0.35031999999999996  0.2938  0.94087  1.0000
  C   C8        1.0  0.92496  0.9994600000000001  0.22966  1.0000
  C   C9        1.0  0.43274  0.26010999999999995  0.99256  1.0000
  C   C10       1.0  0.8385499999999999  0.44140999999999997  0.9773599999999999  1.0000
  C   C11       1.0  0.6784100000000001  0.9850900000000001  0.26536  1.0000
  C   C12       1.0  0.97851  0.9920100000000001  0.29846  1.0000
  C   C13       1.0  0.4276499999999999  0.3766100000000001  0.90099  1.0000
  C   C14       1.0  0.927  0.36512000000000006  0.9970000000000001  1.0000
  C   C15       1.0  0.9165999999999999  0.57523  0.9787  1.0000
  C   C16       1.0  0.86379  0.21284000000000003  0.97737  1.0000
  C   C17       1.0  0.33568  0.40456000000000003  0.84484  1.0000
  C   C18       1.0  0.52147  0.9876700000000002  0.24603  1.0000
  C   C19       1.0  0.73094  0.9783200000000001  0.3341  1.0000
  C   C20       1.0  0.8817699999999999  0.98238  0.35154  1.0000
  C   C21       1.0  0.9398200000000001  0.9875600000000001  0.42671  1.0000
  C   C22       1.0  0.07890000000000003  0.9154  0.51292  1.0000
  C   C23       1.0  0.018339999999999943  0.90105  0.44125  1.0000
  C   C24       1.0  0.019560000000000032  0.78495  0.37818  1.0000
  C   C25       1.0  0.40864000000000006  0.69446  0.99747  1.0000
  C   C26       1.0  0.65135  0.82104  0.96182  1.0000
  C   C27       1.0  0.41312  0.57424  0.08783  1.0000
  C   C28       1.0  0.9721599999999999  0.98261  0.82628  1.0000
  C   C29       1.0  0.32870999999999995  0.61085  0.03727  1.0000
  C   C30       1.0  0.22492  0.005220000000000013  0.78702  1.0000
  C   C31       1.0  0.64968  0.7062  0.05913  1.0000
  C   C32       1.0  0.07504  0.0005399999999999984  0.77034  1.0000
  C   C33       1.0  0.56726  0.73989  0.00744  1.0000
  C   C34       1.0  0.16145  0.55859  0.02264  1.0000
  C   C35       1.0  0.32159  0.014919999999999977  0.73464  1.0000
  C   C36       1.0  0.021490000000000013  0.007990000000000027  0.70154  1.0000
  C   C37       1.0  0.57235  0.62339  0.099  1.0000
  C   C38       1.0  0.07300000000000004  0.63488  0.003  1.0000
  C   C39       1.0  0.0834  0.42477  0.0213  1.0000
  C   C40       1.0  0.13620999999999994  0.78716  0.02263  1.0000
  C   C41       1.0  0.66432  0.59544  0.15516  1.0000
  C   C42       1.0  0.47853  0.012329999999999976  0.75396  1.0000
  C   C43       1.0  0.26906  0.02168  0.6659  1.0000
  C   C44       1.0  0.11822999999999999  0.01762000000000001  0.64845  1.0000
  C   C45       1.0  0.06018  0.012440000000000012  0.57328  1.0000
  C   C46       1.0  0.9211  0.08460000000000002  0.48708  1.0000
  C   C47       1.0  0.98167  0.09895  0.55875  1.0000
  C   C48       1.0  0.9804399999999999  0.21505000000000002  0.62182  1.0000
  O   O1        1.0  0.96481  0.9764600000000001  0.10677  1.0000
  O   O2        1.0  0.20888000000000004  0.16362000000000002  0.03798  1.0000
  O   O3        1.0  0.42813  0.13525  0.07662  1.0000
  O   O4        1.0  0.17036  0.07298  0.19971  1.0000
  O   O5        1.0  0.9063399999999999  0.15619  0.0209  1.0000
  O   O6        1.0  0.7773100000000001  0.1577300000000001  0.9148  1.0000
  O   O7        1.0  0.51181  0.050769999999999996  0.19791  1.0000
  O   O8        1.0  0.18817999999999993  0.36368  0.83986  1.0000
  O   O9        1.0  0.41400999999999993  0.93283  0.27451  1.0000
  O   O10       1.0  0.8849  0.68592  0.35909  1.0000
  O   O11       1.0  0.39543  0.46101  0.79833  1.0000
  O   O12       1.0  0.12953999999999993  0.78608  0.34702  1.0000
  O   O13       1.0  0.03518999999999999  0.023539999999999943  0.89323  1.0000
  O   O14       1.0  0.79112  0.8363800000000001  0.96202  1.0000
  O   O15       1.0  0.57187  0.86475  0.92338  1.0000
  O   O16       1.0  0.82964  0.92702  0.80029  1.0000
  O   O17       1.0  0.09366  0.84381  0.9790999999999999  1.0000
  O   O18       1.0  0.22267999999999996  0.84227  0.0852  1.0000
  O   O19       1.0  0.48818999999999996  0.94923  0.80209  1.0000
  O   O20       1.0  0.81182  0.63632  0.16013  1.0000
  O   O21       1.0  0.5859899999999999  0.06716999999999991  0.72549  1.0000
  O   O22       1.0  0.11510000000000001  0.3140800000000001  0.64091  1.0000
  O   O23       1.0  0.60457  0.53899  0.20167  1.0000
  O   O24       1.0  0.87046  0.21392000000000003  0.65298  1.0000
