data_image0
_chemical_formula_structural       Gd2H12C24O18
_chemical_formula_sum              "Gd2 H12 C24 O18"
_cell_length_a       10.63697
_cell_length_b       11.34396
_cell_length_c       13.05385
_cell_angle_alpha    108.58036
_cell_angle_beta     109.73535
_cell_angle_gamma    97.52524

_space_group_name_H-M_alt    "P 1"
_space_group_IT_number       1

loop_
  _space_group_symop_operation_xyz
  'x, y, z'

loop_
  _atom_site_type_symbol
  _atom_site_label
  _atom_site_symmetry_multiplicity
  _atom_site_fract_x
  _atom_site_fract_y
  _atom_site_fract_z
  _atom_site_occupancy
  Gd  Gd1       1.0  0.90056  0.9231200000000002  0.8364600000000002  1.0000
  Gd  Gd2       1.0  0.08060000000000002  0.06293000000000004  0.16297000000000003  1.0000
  H   H1        1.0  0.18002000000000004  0.5517100000000001  0.27468  1.0000
  H   H2        1.0  0.5904900000000002  0.9303500000000002  0.8504200000000001  1.0000
  H   H3        1.0  0.9026400000000001  0.2998  0.81125  1.0000
  H   H4        1.0  0.59202  0.08472  0.28051  1.0000
  H   H5        1.0  0.88152  0.60315  0.79938  1.0000
  H   H6        1.0  0.38534000000000007  0.04529  0.14535  1.0000
  H   H7        1.0  0.10763000000000002  0.6851900000000001  0.18612  1.0000
  H   H8        1.0  0.23251  0.90521  0.74834  1.0000
  H   H9        1.0  0.43927000000000005  0.6670400000000001  0.64046  1.0000
  H   H10       1.0  0.53671  0.31307  0.36465  1.0000
  H   H11       1.0  0.7957500000000001  0.6115000000000002  0.53506  1.0000
  H   H12       1.0  0.23853000000000005  0.52487  0.58866  1.0000
  C   C1        1.0  0.6168000000000001  0.5087700000000001  0.4920600000000001  1.0000
  C   C2        1.0  0.45888  0.58754  0.57991  1.0000
  C   C3        1.0  0.6887300000000002  0.73512  0.6422400000000001  1.0000
  C   C4        1.0  0.57182  0.02734  0.12043  1.0000
  C   C5        1.0  0.5467100000000004  0.9557800000000002  0.9158700000000001  1.0000
  C   C6        1.0  0.007920000000000047  0.23509000000000008  0.99292  1.0000
  C   C7        1.0  0.012890000000000006  0.3688700000000001  0.9991500000000001  1.0000
  C   C8        1.0  0.07483000000000002  0.47954000000000013  0.10734000000000002  1.0000
  C   C9        1.0  0.94873  0.3846000000000001  0.8933000000000001  1.0000
  C   C10       1.0  0.7820800000000001  0.00657  0.07123  1.0000
  C   C11       1.0  0.63188  0.99606  0.03611  1.0000
  C   C12       1.0  0.58624  0.60951  0.56914  1.0000
  C   C13       1.0  0.36082000000000014  0.46798000000000006  0.5167400000000001  1.0000
  C   C14       1.0  0.51658  0.39002  0.42666  1.0000
  C   C15       1.0  0.29017  0.23808000000000007  0.35995000000000005  1.0000
  C   C16       1.0  0.40464000000000006  0.9452800000000001  0.87601  1.0000
  C   C17       1.0  0.43058  0.01843  0.08087  1.0000
  C   C18       1.0  0.9889000000000001  0.74496  0.00211  1.0000
  C   C19       1.0  0.99773  0.6151000000000001  0.9982000000000001  1.0000
  C   C20       1.0  0.94038  0.5052700000000001  0.8898900000000002  1.0000
  C   C21       1.0  0.06420000000000003  0.5995800000000001  0.10444000000000003  1.0000
  C   C22       1.0  0.19738000000000008  0.9677500000000001  0.92371  1.0000
  C   C23       1.0  0.3458399999999999  0.97799  0.9605900000000002  1.0000
  C   C24       1.0  0.38994  0.36719000000000007  0.4374200000000001  1.0000
  O   O1        1.0  0.86418  0.04163000000000002  0.17827000000000004  1.0000
  O   O2        1.0  0.8310600000000005  0.9814  0.98963  1.0000
  O   O3        1.0  0.95622  0.1423100000000001  0.8901500000000002  1.0000
  O   O4        1.0  0.05177000000000001  0.2172300000000001  0.08904000000000001  1.0000
  O   O5        1.0  0.8123300000000001  0.75256  0.64204  1.0000
  O   O6        1.0  0.6626000000000001  0.8272500000000003  0.7126300000000001  1.0000
  O   O7        1.0  0.14326  0.46649  0.21104  1.0000
  O   O8        1.0  0.65149  0.06608000000000003  0.23799  1.0000
  O   O9        1.0  0.7377600000000001  0.5227  0.47844  1.0000
  O   O10       1.0  0.11762000000000002  0.92828  0.81316  1.0000
  O   O11       1.0  0.14319000000000004  0.9952000000000002  0.00019  1.0000
  O   O12       1.0  0.03750000000000001  0.8400400000000001  0.10168000000000002  1.0000
  O   O13       1.0  0.93104  0.7561  0.9018  1.0000
  O   O14       1.0  0.16968000000000005  0.20931000000000008  0.35995000000000005  1.0000
  O   O15       1.0  0.32282000000000005  0.15565000000000007  0.28487000000000007  1.0000
  O   O16       1.0  0.8765500000000003  0.5104500000000002  0.7829700000000002  1.0000
  O   O17       1.0  0.32932  0.9041900000000002  0.758  1.0000
  O   O18       1.0  0.23821000000000006  0.44648  0.52938  1.0000
