data_image0
_chemical_formula_structural       Cu4P4H16C20N4O12
_chemical_formula_sum              "Cu4 P4 H16 C20 N4 O12"
_cell_length_a       7.52027
_cell_length_b       9.17821
_cell_length_c       11.626480000000003
_cell_angle_alpha    100.25309
_cell_angle_beta     104.82243
_cell_angle_gamma    93.11883

_space_group_name_H-M_alt    "P 1"
_space_group_IT_number       1

loop_
  _space_group_symop_operation_xyz
  'x, y, z'

loop_
  _atom_site_type_symbol
  _atom_site_label
  _atom_site_symmetry_multiplicity
  _atom_site_fract_x
  _atom_site_fract_y
  _atom_site_fract_z
  _atom_site_occupancy
  Cu  Cu1       1.0  0.84371  0.8809  0.48786  1.0000
  Cu  Cu2       1.0  0.3501500000000001  0.9350599999999999  0.28326  1.0000
  Cu  Cu3       1.0  0.15630000000000005  0.11909999999999998  0.51214  1.0000
  Cu  Cu4       1.0  0.6498500000000003  0.06493999999999997  0.71675  1.0000
  P   P1        1.0  0.6479900000000001  0.16687999999999997  0.47517  1.0000
  P   P2        1.0  0.9678500000000003  0.91482  0.26021  1.0000
  P   P3        1.0  0.35201  0.8331199999999997  0.52483  1.0000
  P   P4        1.0  0.032150000000000005  0.08518  0.73979  1.0000
  H   H1        1.0  0.6721100000000002  0.4398699999999999  0.66041  1.0000
  H   H2        1.0  0.7501200000000002  0.71003  0.65709  1.0000
  H   H3        1.0  0.84983  0.6029899999999998  0.32104  1.0000
  H   H4        1.0  0.7760200000000003  0.32844999999999996  0.30962  1.0000
  H   H5        1.0  0.93878  0.19311  0.1704  1.0000
  H   H6        1.0  0.8081900000000002  0.24406999999999995  0.96217  1.0000
  H   H7        1.0  0.5785700000000003  0.80868  0.8286  1.0000
  H   H8        1.0  0.71065  0.73557  0.0289  1.0000
  H   H9        1.0  0.32789  0.56013  0.33959  1.0000
  H   H10       1.0  0.24988000000000005  0.28996999999999995  0.34291  1.0000
  H   H11       1.0  0.15018000000000012  0.3970099999999999  0.67896  1.0000
  H   H12       1.0  0.22398  0.67155  0.69038  1.0000
  H   H13       1.0  0.061219999999999955  0.80689  0.8296  1.0000
  H   H14       1.0  0.19181  0.75593  0.03783  1.0000
  H   H15       1.0  0.42143  0.19132  0.1714  1.0000
  H   H16       1.0  0.28935000000000005  0.26444  0.9711  1.0000
  C   C1        1.0  0.7146700000000002  0.3628699999999999  0.48381  1.0000
  C   C2        1.0  0.7106000000000002  0.47167  0.58356  1.0000
  C   C3        1.0  0.7543100000000001  0.6209099999999997  0.58284  1.0000
  C   C4        1.0  0.8098300000000003  0.56034  0.39330000000000004  1.0000
  C   C5        1.0  0.7675000000000002  0.40956999999999993  0.38799  1.0000
  C   C6        1.0  0.8407100000000001  0.9591999999999999  0.1166  1.0000
  C   C7        1.0  0.8597000000000001  0.10475  0.09694000000000001  1.0000
  C   C8        1.0  0.78557  0.13442  0.98222  1.0000
  C   C9        1.0  0.6599300000000002  0.88889  0.9076499999999998  1.0000
  C   C10       1.0  0.7331500000000002  0.85051  0.01939  1.0000
  C   C11       1.0  0.2853300000000001  0.6371299999999999  0.51619  1.0000
  C   C12       1.0  0.28941  0.52834  0.41644  1.0000
  C   C13       1.0  0.24569000000000005  0.37908999999999987  0.41717  1.0000
  C   C14       1.0  0.1901800000000001  0.43965999999999994  0.6067  1.0000
  C   C15       1.0  0.23250000000000015  0.59043  0.61201  1.0000
  C   C16       1.0  0.15928999999999996  0.04079999999999998  0.8833999999999999  1.0000
  C   C17       1.0  0.14031  0.89525  0.90306  1.0000
  C   C18       1.0  0.21443000000000006  0.86559  0.01778  1.0000
  C   C19       1.0  0.34007000000000004  0.11110999999999999  0.09235  1.0000
  C   C20       1.0  0.26685  0.14949000000000004  0.98061  1.0000
  N   N1        1.0  0.8016  0.66465  0.48912  1.0000
  N   N2        1.0  0.6899900000000002  0.027709999999999967  0.8878299999999999  1.0000
  N   N3        1.0  0.1984  0.3353599999999999  0.51089  1.0000
  N   N4        1.0  0.31002  0.9722999999999999  0.11217  1.0000
  O   O1        1.0  0.83174  0.09592  0.4925  1.0000
  O   O2        1.0  0.51695  0.11880999999999999  0.34625  1.0000
  O   O3        1.0  0.55035  0.15614  0.57561  1.0000
  O   O4        1.0  0.81939  0.84562  0.30954  1.0000
  O   O5        1.0  0.07545000000000002  0.06726999999999997  0.33144  1.0000
  O   O6        1.0  0.10683  0.8057099999999999  0.22862  1.0000
  O   O7        1.0  0.16827  0.9040799999999999  0.5075  1.0000
  O   O8        1.0  0.4830500000000001  0.8811899999999998  0.65375  1.0000
  O   O9        1.0  0.4496500000000001  0.84386  0.42439  1.0000
  O   O10       1.0  0.18061000000000005  0.15437999999999996  0.69046  1.0000
  O   O11       1.0  0.92455  0.9327399999999999  0.66856  1.0000
  O   O12       1.0  0.89317  0.19429  0.77138  1.0000
