data_image0
_chemical_formula_structural       Dy2H22C44O16
_chemical_formula_sum              "Dy2 H22 C44 O16"
_cell_length_a       10.55416
_cell_length_b       11.39405
_cell_length_c       11.92127
_cell_angle_alpha    104.68781
_cell_angle_beta     106.78402
_cell_angle_gamma    96.1327

_symmetry_space_group_name_H-M    'P 1'
_symmetry_Int_Tables_number       1

loop_
  _symmetry_equiv_pos_as_xyz
  'x,y,z'

loop_
  _atom_site_type_symbol
  _atom_site_label
  _atom_site_symmetry_multiplicity
  _atom_site_fract_x
  _atom_site_fract_y
  _atom_site_fract_z
  _atom_site_occupancy
  Dy  Dy1       1.0  0.10523999999999999  0.5571  0.38988000000000006  1.0000
  Dy  Dy2       1.0  0.8939600000000001  0.44173000000000007  0.6110300000000001  1.0000
  H   H1        1.0  0.7956199999999999  0.14085  0.50039  1.0000
  H   H2        1.0  0.6206400000000001  0.73874  0.09214  1.0000
  H   H3        1.0  0.7982799999999999  0.6663099999999998  0.22922  1.0000
  H   H4        1.0  0.49359  0.4833  0.33683  1.0000
  H   H5        1.0  0.26265999999999995  0.77053  0.18175  1.0000
  H   H6        1.0  0.12767999999999996  0.88658  0.061040000000000004  1.0000
  H   H7        1.0  0.29357999999999995  0.75538  0.7712000000000001  1.0000
  H   H8        1.0  0.43299  0.64539  0.8955400000000001  1.0000
  H   H9        1.0  0.19852000000000003  0.07092  0.99587  1.0000
  H   H10       1.0  0.08343000000000005  0.20906999999999998  0.8881400000000002  1.0000
  H   H11       1.0  0.92819  0.9025600000000001  0.5547000000000001  1.0000
  H   H12       1.0  0.20516999999999994  0.8598599999999998  0.49928000000000006  1.0000
  H   H13       1.0  0.37919  0.26104000000000005  0.9084000000000002  1.0000
  H   H14       1.0  0.20202  0.33369  0.77081  1.0000
  H   H15       1.0  0.50421  0.5159600000000001  0.6625700000000001  1.0000
  H   H16       1.0  0.73745  0.22945999999999994  0.81808  1.0000
  H   H17       1.0  0.87207  0.11357000000000006  0.9390600000000002  1.0000
  H   H18       1.0  0.7066099999999998  0.24497  0.22836000000000004  1.0000
  H   H19       1.0  0.56655  0.35443  0.10416000000000002  1.0000
  H   H20       1.0  0.8014099999999998  0.9306199999999999  0.005210000000000001  1.0000
  H   H21       1.0  0.9166699999999999  0.7926299999999997  0.11311000000000002  1.0000
  H   H22       1.0  0.07316999999999999  0.09876  0.44646  1.0000
  C   C1        1.0  0.2732999999999999  0.5271199999999999  0.18299  1.0000
  C   C2        1.0  0.42009  0.57597  0.20215000000000002  1.0000
  C   C3        1.0  0.45538999999999996  0.64713  0.12989  1.0000
  C   C4        1.0  0.59225  0.67868  0.14213  1.0000
  C   C5        1.0  0.6927600000000002  0.6408599999999999  0.22111000000000006  1.0000
  C   C6        1.0  0.6581  0.5690100000000001  0.29124000000000005  1.0000
  C   C7        1.0  0.5221599999999998  0.5388399999999999  0.2826000000000001  1.0000
  C   C8        1.0  0.7664699999999998  0.52975  0.37595000000000006  1.0000
  C   C9        1.0  0.35875  0.7000899999999999  0.04866  1.0000
  C   C10       1.0  0.26964999999999995  0.7675399999999998  0.09186000000000001  1.0000
  C   C11       1.0  0.19411  0.83378  0.023590000000000003  1.0000
  C   C12       1.0  0.20176  0.83143  0.9071  1.0000
  C   C13       1.0  0.28642000000000006  0.75966  0.8613800000000001  1.0000
  C   C14       1.0  0.36556  0.6973200000000002  0.9319300000000003  1.0000
  C   C15       1.0  0.13016  0.90886  0.83828  1.0000
  C   C16       1.0  0.13794  0.034269999999999995  0.89943  1.0000
  C   C17       1.0  0.07309999999999998  0.11181999999999993  0.83944  1.0000
  C   C18       1.0  0.99434  0.06431999999999996  0.7148  1.0000
  C   C19       1.0  0.9881499999999998  0.94046  0.65136  1.0000
  C   C20       1.0  0.056710000000000094  0.8644699999999998  0.7113400000000002  1.0000
  C   C21       1.0  0.04203  0.73264  0.63788  1.0000
  C   C22       1.0  0.92062  0.14399  0.65213  1.0000
  C   C23       1.0  0.72565  0.4742  0.8174300000000001  1.0000
  C   C24       1.0  0.579  0.42395  0.79761  1.0000
  C   C25       1.0  0.5441699999999999  0.3526999999999999  0.86994  1.0000
  C   C26       1.0  0.40726  0.32044  0.85735  1.0000
  C   C27       1.0  0.30702000000000007  0.35935000000000006  0.7790600000000001  1.0000
  C   C28       1.0  0.34124  0.4309499999999999  0.7084600000000001  1.0000
  C   C29       1.0  0.47692  0.4609099999999999  0.71736  1.0000
  C   C30       1.0  0.23443999999999998  0.4730699999999999  0.62521  1.0000
  C   C31       1.0  0.64088  0.30002  0.95097  1.0000
  C   C32       1.0  0.73013  0.23261999999999997  0.9078900000000001  1.0000
  C   C33       1.0  0.80578  0.16656  0.97635  1.0000
  C   C34       1.0  0.7986  0.16941  0.09305000000000001  1.0000
  C   C35       1.0  0.71363  0.24082999999999996  0.13830000000000003  1.0000
  C   C36       1.0  0.6341099999999997  0.30280999999999997  0.06763  1.0000
  C   C37       1.0  0.8710599999999998  0.09277999999999997  0.1625  1.0000
  C   C38       1.0  0.86273  0.96743  0.10147  1.0000
  C   C39       1.0  0.92701  0.8898299999999998  0.16167000000000004  1.0000
  C   C40       1.0  0.006260000000000004  0.9374099999999999  0.28607000000000005  1.0000
  C   C41       1.0  0.013050000000000029  0.061350000000000016  0.3497000000000001  1.0000
  C   C42       1.0  0.94437  0.13756  0.28951  1.0000
  C   C43       1.0  0.95757  0.26883999999999997  0.36271000000000003  1.0000
  C   C44       1.0  0.07918999999999994  0.857  0.34876  1.0000
  O   O1        1.0  0.24055  0.53767  0.28372  1.0000
  O   O2        1.0  0.19477  0.47787999999999997  0.07794  1.0000
  O   O3        1.0  0.9416299999999997  0.25945  0.69222  1.0000
  O   O4        1.0  0.8259899999999998  0.08078999999999997  0.54354  1.0000
  O   O5        1.0  0.10372999999999992  0.71416  0.55824  1.0000
  O   O6        1.0  0.9687799999999999  0.65153  0.65917  1.0000
  O   O7        1.0  0.8846999999999999  0.543  0.36627000000000004  1.0000
  O   O8        1.0  0.73865  0.48431999999999986  0.45593000000000006  1.0000
  O   O9        1.0  0.7583199999999999  0.46405  0.71668  1.0000
  O   O10       1.0  0.8037099999999999  0.52265  0.92287  1.0000
  O   O11       1.0  0.05692999999999996  0.7418399999999999  0.30955000000000005  1.0000
  O   O12       1.0  0.17490999999999998  0.92045  0.45669  1.0000
  O   O13       1.0  0.8977499999999999  0.28736  0.44379  1.0000
  O   O14       1.0  0.030829999999999986  0.34974  0.34142  1.0000
  O   O15       1.0  0.11635000000000004  0.46125999999999995  0.6350200000000001  1.0000
  O   O16       1.0  0.26326000000000005  0.51733  0.5448000000000001  1.0000
