data_image0
_chemical_formula_structural       Ba2V2H8C16N2O18
_chemical_formula_sum              "Ba2 V2 H8 C16 N2 O18"
_cell_length_a       7.54992
_cell_length_b       11.61299
_cell_length_c       11.22479
_cell_angle_alpha    118.59161
_cell_angle_beta     101.42004999999999
_cell_angle_gamma    95.36339

_space_group_name_H-M_alt    "P 1"
_space_group_IT_number       1

loop_
  _space_group_symop_operation_xyz
  'x, y, z'

loop_
  _atom_site_type_symbol
  _atom_site_label
  _atom_site_symmetry_multiplicity
  _atom_site_fract_x
  _atom_site_fract_y
  _atom_site_fract_z
  _atom_site_occupancy
  Ba  Ba1       1.0  0.5733399999999998  0.21734000000000006  0.65934  1.0000
  Ba  Ba2       1.0  0.42667  0.78266  0.34066  1.0000
  V   V1        1.0  0.8600499999999998  0.7494  0.17018  1.0000
  V   V2        1.0  0.13996  0.25061  0.82983  1.0000
  H   H1        1.0  0.5679499999999996  0.69239  0.68464  1.0000
  H   H2        1.0  0.7422899999999998  0.10502000000000002  0.028700000000000003  1.0000
  H   H3        1.0  0.14957999999999996  0.000969999999999986  0.42474999999999996  1.0000
  H   H4        1.0  0.19200999999999988  0.99536  0.5623  1.0000
  H   H5        1.0  0.43206999999999995  0.30761  0.31536  1.0000
  H   H6        1.0  0.25771999999999995  0.89498  0.9712900000000001  1.0000
  H   H7        1.0  0.85044  0.99903  0.57525  1.0000
  H   H8        1.0  0.80799  0.004649999999999977  0.4377  1.0000
  C   C1        1.0  0.6920299999999998  0.5876600000000001  0.8661000000000001  1.0000
  C   C2        1.0  0.6968199999999999  0.72723  0.89245  1.0000
  C   C3        1.0  0.6309899999999998  0.7663400000000001  0.79573  1.0000
  C   C4        1.0  0.6458499999999999  0.9040400000000003  0.8449300000000001  1.0000
  C   C5        1.0  0.5702899999999997  0.9493700000000002  0.74162  1.0000
  C   C6        1.0  0.72965  0.9978400000000001  0.9883700000000001  1.0000
  C   C7        1.0  0.7934699999999996  0.95051  0.07839  1.0000
  C   C8        1.0  0.88401  0.03192  0.23434  1.0000
  C   C9        1.0  0.3079899999999999  0.41235000000000005  0.13391  1.0000
  C   C10       1.0  0.3031799999999999  0.27277000000000007  0.10755  1.0000
  C   C11       1.0  0.36902  0.23366000000000003  0.20426  1.0000
  C   C12       1.0  0.35416  0.09596  0.15507  1.0000
  C   C13       1.0  0.4297199999999998  0.050639999999999984  0.25838  1.0000
  C   C14       1.0  0.27035  0.00217  0.01162  1.0000
  C   C15       1.0  0.20652999999999994  0.049489999999999985  0.9216  1.0000
  C   C16       1.0  0.11601000000000002  0.9681200000000002  0.76568  1.0000
  N   N1        1.0  0.775  0.81865  0.0293  1.0000
  N   N2        1.0  0.22501999999999994  0.18134999999999993  0.9706899999999999  1.0000
  O   O1        1.0  0.63118  0.48739999999999994  0.74617  1.0000
  O   O2        1.0  0.7572499999999998  0.5852600000000001  0.9820200000000001  1.0000
  O   O3        1.0  0.9224799999999997  0.95256  0.28823  1.0000
  O   O4        1.0  0.9173899999999998  0.15445  0.30317  1.0000
  O   O5        1.0  0.51952  0.8584400000000002  0.61257  1.0000
  O   O6        1.0  0.5657699999999999  0.07281000000000008  0.79463  1.0000
  O   O7        1.0  0.7311  0.7209100000000002  0.25819  1.0000
  O   O8        1.0  0.06647999999999997  0.72586  0.21583999999999998  1.0000
  O   O9        1.0  0.2507599999999999  0.9964300000000001  0.4918699999999999  1.0000
  O   O10       1.0  0.3688299999999999  0.5126  0.25383  1.0000
  O   O11       1.0  0.24275999999999995  0.41475  0.01799  1.0000
  O   O12       1.0  0.07753  0.04744000000000001  0.71177  1.0000
  O   O13       1.0  0.08262  0.84552  0.6968  1.0000
  O   O14       1.0  0.48048999999999986  0.14156  0.38743  1.0000
  O   O15       1.0  0.43424000000000007  0.9271900000000002  0.20536  1.0000
  O   O16       1.0  0.26890999999999987  0.2791  0.74181  1.0000
  O   O17       1.0  0.9335299999999997  0.27414999999999995  0.78417  1.0000
  O   O18       1.0  0.74925  0.0035699999999999916  0.50812  1.0000
