data_image0
_chemical_formula_structural       Gd4H12C36O24
_chemical_formula_sum              "Gd4 H12 C36 O24"
_cell_length_a       10.42723
_cell_length_b       10.404179999999998
_cell_length_c       13.85567
_cell_angle_alpha    90.0
_cell_angle_beta     90.0
_cell_angle_gamma    89.89768

_space_group_name_H-M_alt    "P 1"
_space_group_IT_number       1

loop_
  _space_group_symop_operation_xyz
  'x, y, z'

loop_
  _atom_site_type_symbol
  _atom_site_label
  _atom_site_symmetry_multiplicity
  _atom_site_fract_x
  _atom_site_fract_y
  _atom_site_fract_z
  _atom_site_occupancy
  Gd  Gd1       1.0  0.88514  0.8782099999999999  0.81602  1.0000
  Gd  Gd2       1.0  0.11486  0.12178  0.31602  1.0000
  Gd  Gd3       1.0  0.12105  0.8846900000000001  0.06877  1.0000
  Gd  Gd4       1.0  0.8789499999999999  0.11531000000000001  0.56877  1.0000
  H   H1        1.0  0.11748999999999998  0.99896  0.6943200000000003  1.0000
  H   H2        1.0  0.47533  0.91651  0.83701  1.0000
  H   H3        1.0  0.47396  0.04665  0.5417  1.0000
  H   H4        1.0  0.88251  0.00103  0.19432  1.0000
  H   H5        1.0  0.52468  0.08349  0.33701  1.0000
  H   H6        1.0  0.52604  0.9533500000000001  0.04169  1.0000
  H   H7        1.0  0.99992  0.11724  0.94434  1.0000
  H   H8        1.0  0.08536  0.4751  0.08647000000000003  1.0000
  H   H9        1.0  0.95345  0.47486  0.79172  1.0000
  H   H10       1.0  7.999999999999964e-05  0.8827600000000001  0.4443400000000001  1.0000
  H   H11       1.0  0.91464  0.5249  0.58648  1.0000
  H   H12       1.0  0.04655  0.52514  0.2917200000000001  1.0000
  C   C1        1.0  0.21199  0.06054  0.52021  1.0000
  C   C2        1.0  0.28676  0.02387  0.60773  1.0000
  C   C3        1.0  0.22135  0.993  0.6928200000000002  1.0000
  C   C4        1.0  0.28802  0.95544  0.77571  1.0000
  C   C5        1.0  0.4222  0.94655  0.77324  1.0000
  C   C6        1.0  0.48835999999999996  0.98  0.6890500000000003  1.0000
  C   C7        1.0  0.4213  0.01964  0.6064  1.0000
  C   C8        1.0  0.21781999999999999  0.93081  0.8672400000000002  1.0000
  C   C9        1.0  0.63175  0.97814  0.68985  1.0000
  C   C10       1.0  0.78801  0.9394599999999999  0.0202  1.0000
  C   C11       1.0  0.71324  0.9761300000000002  0.10773  1.0000
  C   C12       1.0  0.77865  0.007  0.19282000000000002  1.0000
  C   C13       1.0  0.71198  0.04456  0.2757  1.0000
  C   C14       1.0  0.5778  0.053450000000000004  0.27324  1.0000
  C   C15       1.0  0.51165  0.01999  0.18905  1.0000
  C   C16       1.0  0.5787  0.98035  0.1064  1.0000
  C   C17       1.0  0.7821799999999999  0.06918  0.3672400000000001  1.0000
  C   C18       1.0  0.36825  0.02186  0.18984  1.0000
  C   C19       1.0  0.93892  0.21454  0.76986  1.0000
  C   C20       1.0  0.97639  0.28747  0.85789  1.0000
  C   C21       1.0  0.006999999999999998  0.22126000000000004  0.94282  1.0000
  C   C22       1.0  0.04524  0.2883  0.025370000000000004  1.0000
  C   C23       1.0  0.05492  0.42249  0.02264  1.0000
  C   C24       1.0  0.02099  0.48921  0.93889  1.0000
  C   C25       1.0  0.9807699999999999  0.42229  0.8565000000000003  1.0000
  C   C26       1.0  0.0693  0.22038  0.11775000000000001  1.0000
  C   C27       1.0  0.0215  0.63269  0.94091  1.0000
  C   C28       1.0  0.06108  0.7854600000000002  0.26986  1.0000
  C   C29       1.0  0.02361  0.71252  0.35789  1.0000
  C   C30       1.0  0.993  0.7787300000000001  0.44282  1.0000
  C   C31       1.0  0.9547599999999999  0.7117  0.52537  1.0000
  C   C32       1.0  0.9450799999999999  0.57751  0.52264  1.0000
  C   C33       1.0  0.97901  0.51079  0.4388900000000001  1.0000
  C   C34       1.0  0.01923  0.5777  0.35649  1.0000
  C   C35       1.0  0.9307  0.7796199999999999  0.61775  1.0000
  C   C36       1.0  0.9785  0.36731  0.44091  1.0000
  O   O1        1.0  0.2669  0.0657  0.43838  1.0000
  O   O2        1.0  0.09132  0.08437  0.52874  1.0000
  O   O3        1.0  0.09432000000000001  0.92209  0.86652  1.0000
  O   O4        1.0  0.27933  0.92205  0.9459500000000002  1.0000
  O   O5        1.0  0.68791  0.89061  0.73843  1.0000
  O   O6        1.0  0.68829  0.06676  0.6428300000000001  1.0000
  O   O7        1.0  0.7331  0.93429  0.9383800000000001  1.0000
  O   O8        1.0  0.90868  0.91563  0.02874  1.0000
  O   O9        1.0  0.90568  0.0779  0.36652  1.0000
  O   O10       1.0  0.72067  0.07795  0.44595000000000007  1.0000
  O   O11       1.0  0.31209  0.10939  0.23843  1.0000
  O   O12       1.0  0.31171  0.9332300000000001  0.14283  1.0000
  O   O13       1.0  0.93245  0.27241  0.6892000000000003  1.0000
  O   O14       1.0  0.91547  0.09316  0.77593  1.0000
  O   O15       1.0  0.07767  0.09649000000000002  0.11934  1.0000
  O   O16       1.0  0.07809  0.2846  0.19534000000000007  1.0000
  O   O17       1.0  0.10844999999999999  0.68813  0.99025  1.0000
  O   O18       1.0  0.93207  0.68931  0.8947500000000003  1.0000
  O   O19       1.0  0.06755  0.72759  0.1892  1.0000
  O   O20       1.0  0.08452999999999998  0.90684  0.27593  1.0000
  O   O21       1.0  0.9223299999999999  0.9035  0.6193400000000001  1.0000
  O   O22       1.0  0.92191  0.7154  0.69534  1.0000
  O   O23       1.0  0.89155  0.31186  0.49025  1.0000
  O   O24       1.0  0.06793  0.31068  0.39475000000000005  1.0000
