data_image0
_chemical_formula_structural       Ce2H6C18N6O12
_chemical_formula_sum              "Ce2 H6 C18 N6 O12"
_cell_length_a       5.55612
_cell_length_b       11.23884
_cell_length_c       13.5834
_cell_angle_alpha    69.51744
_cell_angle_beta     87.52876999999998
_cell_angle_gamma    90.30738000000001

_symmetry_space_group_name_H-M    'P 1'
_symmetry_Int_Tables_number       1

loop_
  _symmetry_equiv_pos_as_xyz
  'x,y,z'

loop_
  _atom_site_type_symbol
  _atom_site_label
  _atom_site_symmetry_multiplicity
  _atom_site_fract_x
  _atom_site_fract_y
  _atom_site_fract_z
  _atom_site_occupancy
  Ce  Ce1       1.0  0.75276  0.32452  0.29342999999999997  1.0000
  Ce  Ce2       1.0  0.24751  0.6754600000000001  0.7093399999999999  1.0000
  H   H1        1.0  0.1918  0.07584000000000007  0.3232299999999999  1.0000
  H   H2        1.0  0.32917  0.5647100000000002  0.14115999999999998  1.0000
  H   H3        1.0  0.60579  0.39375  0.54761  1.0000
  H   H4        1.0  0.80829  0.92307  0.67717  1.0000
  H   H5        1.0  0.6726899999999999  0.43368000000000023  0.8598899999999998  1.0000
  H   H6        1.0  0.3987  0.6063700000000001  0.4531399999999999  1.0000
  C   C1        1.0  0.57441  0.13146999999999998  0.53311  1.0000
  C   C2        1.0  0.108  0.041740000000000006  0.40248  1.0000
  C   C3        1.0  0.80164  0.06188000000000002  0.5177699999999998  1.0000
  C   C4        1.0  0.66681  0.4091  0.02608999999999999  1.0000
  C   C5        1.0  0.8664200000000001  0.3138100000000001  0.057489999999999986  1.0000
  C   C6        1.0  0.40422000000000013  0.5368900000000001  0.07766999999999999  1.0000
  C   C7        1.0  0.26478  0.4560100000000002  0.3355199999999999  1.0000
  C   C8        1.0  0.12625  0.48749  0.41906  1.0000
  C   C9        1.0  0.7803799999999999  0.4423700000000002  0.52501  1.0000
  C   C10       1.0  0.4265  0.86875  0.4677699999999999  1.0000
  C   C11       1.0  0.89274  0.9578600000000003  0.59799  1.0000
  C   C12       1.0  0.19955999999999996  0.9383000000000002  0.4827499999999999  1.0000
  C   C13       1.0  0.3344599999999999  0.59137  0.9739199999999998  1.0000
  C   C14       1.0  0.13612  0.6867100000000003  0.94336  1.0000
  C   C15       1.0  0.59666  0.4634400000000001  0.9222599999999999  1.0000
  C   C16       1.0  0.7352000000000001  0.5429000000000002  0.6656699999999999  1.0000
  C   C17       1.0  0.8768400000000001  0.5131900000000001  0.58136  1.0000
  C   C18       1.0  0.2226  0.5586400000000001  0.47524999999999995  1.0000
  N   N1        1.0  0.56885  0.4459  0.10296999999999998  1.0000
  N   N2        1.0  0.9124999999999999  0.10258000000000005  0.4209599999999999  1.0000
  N   N3        1.0  0.90658  0.4310900000000001  0.4425499999999999  1.0000
  N   N4        1.0  0.43188000000000004  0.5546800000000001  0.8967399999999998  1.0000
  N   N5        1.0  0.08827  0.89699  0.5796  1.0000
  N   N6        1.0  0.09553  0.5707300000000002  0.55738  1.0000
  O   O1        1.0  0.51671  0.22443000000000013  0.44816  1.0000
  O   O2        1.0  0.46478  0.09788  0.61974  1.0000
  O   O3        1.0  0.86621  0.25204000000000004  0.15903999999999993  1.0000
  O   O4        1.0  0.012050000000000003  0.30474  0.98906  1.0000
  O   O5        1.0  0.48509  0.48775  0.31798  1.0000
  O   O6        1.0  0.15422  0.39361  0.28796  1.0000
  O   O7        1.0  0.4847800000000001  0.7774800000000001  0.5538999999999998  1.0000
  O   O8        1.0  0.53596  0.90047  0.38115  1.0000
  O   O9        1.0  0.13910000000000003  0.7508200000000002  0.84202  1.0000
  O   O10       1.0  0.98987  0.69386  0.01199  1.0000
  O   O11       1.0  0.5159100000000001  0.5094600000000001  0.6827199999999998  1.0000
  O   O12       1.0  0.84497  0.60414  0.7144  1.0000
