data_image0
_chemical_formula_structural       Ca4H32C24O16
_chemical_formula_sum              "Ca4 H32 C24 O16"
_cell_length_a       7.46566
_cell_length_b       15.383160000000002
_cell_length_c       15.96089
_cell_angle_alpha    89.84478999999999
_cell_angle_beta     90.29042
_cell_angle_gamma    104.58804

_space_group_name_H-M_alt    "P 1"
_space_group_IT_number       1

loop_
  _space_group_symop_operation_xyz
  'x, y, z'

loop_
  _atom_site_type_symbol
  _atom_site_label
  _atom_site_symmetry_multiplicity
  _atom_site_fract_x
  _atom_site_fract_y
  _atom_site_fract_z
  _atom_site_occupancy
  Ca  Ca1       1.0  0.55314  0.22776  0.75271  1.0000
  Ca  Ca2       1.0  0.9483799999999999  0.7751699999999999  0.25129  1.0000
  Ca  Ca3       1.0  0.4468499999999999  0.77224  0.24729  1.0000
  Ca  Ca4       1.0  0.05160999999999999  0.22481999999999996  0.74871  1.0000
  H   H1        1.0  0.80781  0.04585  0.94773  1.0000
  H   H2        1.0  0.81008  0.14939  0.99342  1.0000
  H   H3        1.0  0.53809  0.90951  0.97737  1.0000
  H   H4        1.0  0.3934999999999999  0.96342  0.92006  1.0000
  H   H5        1.0  0.24290999999999993  0.38929  0.93698  1.0000
  H   H6        1.0  0.3930799999999999  0.34255  0.99754  1.0000
  H   H7        1.0  0.50294  0.52453  0.90648  1.0000
  H   H8        1.0  0.66171  0.4736599999999999  0.95519  1.0000
  H   H9        1.0  0.6931799999999998  0.95591  0.44713  1.0000
  H   H10       1.0  0.6905299999999999  0.8507799999999998  0.48965  1.0000
  H   H11       1.0  0.9589499999999997  0.09096  0.48127  1.0000
  H   H12       1.0  0.1031  0.04048  0.42091  1.0000
  H   H13       1.0  0.25618  0.61031  0.43663  1.0000
  H   H14       1.0  0.10911999999999997  0.65724  0.49785  1.0000
  H   H15       1.0  0.99477  0.4759  0.4064299999999999  1.0000
  H   H16       1.0  0.8376  0.52692  0.45529  1.0000
  H   H17       1.0  0.19218  0.95415  0.05227  1.0000
  H   H18       1.0  0.18990999999999988  0.8506  0.00658  1.0000
  H   H19       1.0  0.46189999999999987  0.09048  0.02263  1.0000
  H   H20       1.0  0.60649  0.03658  0.07993  1.0000
  H   H21       1.0  0.7570799999999998  0.61071  0.06301999999999998  1.0000
  H   H22       1.0  0.6069099999999997  0.65745  0.00246  1.0000
  H   H23       1.0  0.49705  0.47546  0.09352  1.0000
  H   H24       1.0  0.33828  0.52633  0.04481  1.0000
  H   H25       1.0  0.30681  0.04409  0.5528599999999998  1.0000
  H   H26       1.0  0.30945999999999996  0.14922  0.51035  1.0000
  H   H27       1.0  0.041039999999999924  0.9090299999999998  0.51873  1.0000
  H   H28       1.0  0.8968899999999996  0.9595099999999998  0.57909  1.0000
  H   H29       1.0  0.74381  0.38968  0.56337  1.0000
  H   H30       1.0  0.8908699999999998  0.34276  0.50215  1.0000
  H   H31       1.0  0.005220000000000014  0.52409  0.59357  1.0000
  H   H32       1.0  0.16239  0.47308  0.54471  1.0000
  C   C1        1.0  0.6668899999999998  0.1266  0.87851  1.0000
  C   C2        1.0  0.71904  0.09136999999999998  0.96142  1.0000
  C   C3        1.0  0.55497  0.04573999999999999  0.01683  1.0000
  C   C4        1.0  0.4399799999999999  0.33854  0.86818  1.0000
  C   C5        1.0  0.38782  0.38652  0.9433  1.0000
  C   C6        1.0  0.5183  0.47955  0.95822  1.0000
  C   C7        1.0  0.8330199999999999  0.8767999999999998  0.3750799999999999  1.0000
  C   C8        1.0  0.7817199999999997  0.90964  0.45902  1.0000
  C   C9        1.0  0.9465599999999997  0.95336  0.51532  1.0000
  C   C10       1.0  0.059249999999999914  0.6630299999999999  0.36848  1.0000
  C   C11       1.0  0.11182999999999994  0.61371  0.44328  1.0000
  C   C12       1.0  0.98091  0.52075  0.45821  1.0000
  C   C13       1.0  0.3331  0.87339  0.12149  1.0000
  C   C14       1.0  0.28094999999999987  0.90863  0.03858  1.0000
  C   C15       1.0  0.44502  0.95425  0.98317  1.0000
  C   C16       1.0  0.5600099999999999  0.66145  0.13182  1.0000
  C   C17       1.0  0.61217  0.61348  0.05669  1.0000
  C   C18       1.0  0.4816899999999999  0.52044  0.04178  1.0000
  C   C19       1.0  0.16696999999999995  0.1232  0.62492  1.0000
  C   C20       1.0  0.21827999999999997  0.09035  0.5409799999999998  1.0000
  C   C21       1.0  0.05342999999999999  0.04663  0.48468  1.0000
  C   C22       1.0  0.9407500000000001  0.33697  0.63152  1.0000
  C   C23       1.0  0.88816  0.38628999999999997  0.55672  1.0000
  C   C24       1.0  0.019080000000000014  0.47925  0.54179  1.0000
  O   O1        1.0  0.7991099999999999  0.16895  0.82947  1.0000
  O   O2        1.0  0.4992  0.11731  0.85855  1.0000
  O   O3        1.0  0.6082099999999998  0.34742  0.84997  1.0000
  O   O4        1.0  0.30930999999999986  0.28562  0.82498  1.0000
  O   O5        1.0  0.7005599999999998  0.8345999999999999  0.32586  1.0000
  O   O6        1.0  0.0005199999999999731  0.88748  0.35457  1.0000
  O   O7        1.0  0.8913000000000001  0.65647  0.35061  1.0000
  O   O8        1.0  0.19070999999999994  0.71467  0.32502  1.0000
  O   O9        1.0  0.20087999999999992  0.8310499999999998  0.17051999999999995  1.0000
  O   O10       1.0  0.5008  0.88269  0.14144  1.0000
  O   O11       1.0  0.39178  0.65258  0.15002999999999994  1.0000
  O   O12       1.0  0.6906799999999997  0.71438  0.17501  1.0000
  O   O13       1.0  0.29943  0.16539  0.6741399999999997  1.0000
  O   O14       1.0  0.9994699999999999  0.11251999999999997  0.64543  1.0000
  O   O15       1.0  0.10868999999999991  0.3435199999999999  0.64939  1.0000
  O   O16       1.0  0.80928  0.28533  0.67497  1.0000
