data_image0
_chemical_formula_structural       Cu9H39C24N18O6
_chemical_formula_sum              "Cu9 H39 C24 N18 O6"
_cell_length_a       11.31862
_cell_length_b       14.69206
_cell_length_c       14.69223
_cell_angle_alpha    113.75854
_cell_angle_beta     104.82554999999999
_cell_angle_gamma    104.82479

_symmetry_space_group_name_H-M    'P 1'
_symmetry_Int_Tables_number       1

loop_
  _symmetry_equiv_pos_as_xyz
  'x,y,z'

loop_
  _atom_site_type_symbol
  _atom_site_label
  _atom_site_symmetry_multiplicity
  _atom_site_fract_x
  _atom_site_fract_y
  _atom_site_fract_z
  _atom_site_occupancy
  Cu  Cu1       1.0  0.55285  0.11147  0.52171  1.0000
  Cu  Cu2       1.0  0.44133000000000017  0.4109700000000001  0.8903300000000002  1.0000
  Cu  Cu3       1.0  0.03162000000000003  0.48169  0.59182  1.0000
  Cu  Cu4       1.0  0.03162000000000003  0.5918199999999998  0.48170000000000013  1.0000
  Cu  Cu5       1.0  0.55284  0.52169  0.11148  1.0000
  Cu  Cu6       1.0  0.44133  0.8903299999999997  0.41099000000000013  1.0000
  Cu  Cu7       1.0  0.71971  0.0010900000000000003  0.4002200000000001  1.0000
  Cu  Cu8       1.0  0.7197200000000001  0.40021999999999996  0.00109  1.0000
  Cu  Cu9       1.0  0.3210999999999999  0.6030199999999998  0.60303  1.0000
  H   H1        1.0  0.99836  0.12641  0.4318  1.0000
  H   H2        1.0  0.11238  0.26628  0.52085  1.0000
  H   H3        1.0  0.002080000000000062  0.22347000000000006  0.3877000000000001  1.0000
  H   H4        1.0  0.63296  0.36144  0.58635  1.0000
  H   H5        1.0  0.76824  0.45668999999999993  0.58462  1.0000
  H   H6        1.0  0.7887699999999999  0.44045  0.70132  1.0000
  H   H7        1.0  0.87226  0.3070000000000001  0.8750000000000002  1.0000
  H   H8        1.0  0.84718  0.25648999999999994  0.73525  1.0000
  H   H9        1.0  0.7791000000000001  0.16565000000000013  0.7773400000000003  1.0000
  H   H10       1.0  0.27307999999999993  0.22724999999999992  0.64111  1.0000
  H   H11       1.0  0.31348  0.12993999999999997  0.5461  1.0000
  H   H12       1.0  0.34981  0.26263  0.5618  1.0000
  H   H13       1.0  0.5665500000000002  0.56877  0.6945300000000002  1.0000
  H   H14       1.0  0.5908900000000001  0.4793000000000001  0.7447100000000002  1.0000
  H   H15       1.0  0.61427  0.61272  0.83575  1.0000
  H   H16       1.0  0.04694000000000001  0.41442999999999997  0.77487  1.0000
  H   H17       1.0  0.18406999999999998  0.41630999999999996  0.87159  1.0000
  H   H18       1.0  0.08788  0.29948  0.73865  1.0000
  H   H19       1.0  0.56656  0.69452  0.56876  1.0000
  H   H20       1.0  0.59088  0.7446999999999999  0.47930000000000006  1.0000
  H   H21       1.0  0.6142499999999999  0.8357399999999999  0.61271  1.0000
  H   H22       1.0  0.04693000000000006  0.7748699999999998  0.4144200000000001  1.0000
  H   H23       1.0  0.18407000000000007  0.8715800000000001  0.4163100000000001  1.0000
  H   H24       1.0  0.08788000000000001  0.73865  0.29947  1.0000
  H   H25       1.0  0.9983500000000002  0.4318000000000001  0.12642000000000003  1.0000
  H   H26       1.0  0.11239  0.52085  0.26628  1.0000
  H   H27       1.0  0.002079999999999974  0.3877  0.22348  1.0000
  H   H28       1.0  0.6329599999999999  0.58635  0.36144  1.0000
  H   H29       1.0  0.76824  0.58462  0.45669000000000004  1.0000
  H   H30       1.0  0.7887599999999999  0.70132  0.44045000000000006  1.0000
  H   H31       1.0  0.87225  0.875  0.30699000000000004  1.0000
  H   H32       1.0  0.8471700000000001  0.73525  0.25649  1.0000
  H   H33       1.0  0.7791  0.77734  0.16565  1.0000
  H   H34       1.0  0.27307  0.64112  0.22725  1.0000
  H   H35       1.0  0.31346000000000007  0.54609  0.12994000000000003  1.0000
  H   H36       1.0  0.34981000000000007  0.5618  0.26263000000000003  1.0000
  H   H37       1.0  0.4443600000000001  0.0010300000000000435  0.31560000000000005  1.0000
  H   H38       1.0  0.44438  0.3156  0.00103  1.0000
  H   H39       1.0  0.12986  0.6875  0.6874900000000002  1.0000
  C   C1        1.0  0.90797  0.23258  0.49766  1.0000
  C   C2        1.0  0.011390000000000011  0.21093  0.4577  1.0000
  C   C3        1.0  0.7888200000000001  0.3118100000000001  0.5630800000000001  1.0000
  C   C4        1.0  0.7413200000000002  0.39758999999999994  0.6118900000000002  1.0000
  C   C5        1.0  0.67652  0.26706999999999986  0.76928  1.0000
  C   C6        1.0  0.8012700000000001  0.24845000000000003  0.7904300000000002  1.0000
  C   C7        1.0  0.4784900000000001  0.25341999999999987  0.6904  1.0000
  C   C8        1.0  0.34543000000000007  0.21642999999999996  0.6049100000000001  1.0000
  C   C9        1.0  0.41032  0.50343  0.73485  1.0000
  C   C10       1.0  0.55352  0.5428899999999998  0.75299  1.0000
  C   C11       1.0  0.22587  0.4376599999999999  0.7482  1.0000
  C   C12       1.0  0.1299  0.38889999999999997  0.7851800000000001  1.0000
  C   C13       1.0  0.41032000000000013  0.73483  0.5034200000000001  1.0000
  C   C14       1.0  0.55352  0.7529799999999999  0.54288  1.0000
  C   C15       1.0  0.22586999999999993  0.7481799999999998  0.43765000000000004  1.0000
  C   C16       1.0  0.1298900000000001  0.7851799999999999  0.38890000000000013  1.0000
  C   C17       1.0  0.90797  0.49767  0.23259000000000005  1.0000
  C   C18       1.0  0.011400000000000002  0.4576999999999999  0.21094000000000004  1.0000
  C   C19       1.0  0.78882  0.5630899999999999  0.31182000000000004  1.0000
  C   C20       1.0  0.7413200000000001  0.6118899999999999  0.39759  1.0000
  C   C21       1.0  0.67651  0.76927  0.26706  1.0000
  C   C22       1.0  0.8012600000000001  0.79043  0.24845000000000003  1.0000
  C   C23       1.0  0.47848000000000007  0.69039  0.25341  1.0000
  C   C24       1.0  0.34542  0.60491  0.21642  1.0000
  N   N1        1.0  0.7991100000000001  0.15459999999999996  0.48177  1.0000
  N   N2        1.0  0.72314  0.20562  0.5244700000000001  1.0000
  N   N3        1.0  0.9052399999999997  0.33176999999999995  0.5491200000000002  1.0000
  N   N4        1.0  0.64552  0.32903999999999994  0.84758  1.0000
  N   N5        1.0  0.5187399999999999  0.32074  0.79663  1.0000
  N   N6        1.0  0.57509  0.21961999999999998  0.67027  1.0000
  N   N7        1.0  0.31752000000000014  0.5199  0.6732300000000002  1.0000
  N   N8        1.0  0.19893000000000005  0.47705000000000003  0.6814000000000002  1.0000
  N   N9        1.0  0.35616000000000003  0.45144  0.7819000000000003  1.0000
  N   N10       1.0  0.3175100000000001  0.67322  0.5199  1.0000
  N   N11       1.0  0.19892  0.6813999999999998  0.4770500000000001  1.0000
  N   N12       1.0  0.35615000000000013  0.7818800000000001  0.4514200000000001  1.0000
  N   N13       1.0  0.79912  0.4817799999999999  0.15460000000000002  1.0000
  N   N14       1.0  0.72314  0.52447  0.20563000000000006  1.0000
  N   N15       1.0  0.90524  0.54913  0.33177  1.0000
  N   N16       1.0  0.6455099999999999  0.8475799999999998  0.32902  1.0000
  N   N17       1.0  0.5187199999999998  0.7966199999999999  0.32072000000000006  1.0000
  N   N18       1.0  0.57508  0.67026  0.21961  1.0000
  O   O1        1.0  0.5159800000000001  0.0007700000000000019  0.36866  1.0000
  O   O2        1.0  0.4095  0.0013199999999999855  0.50709  1.0000
  O   O3        1.0  0.51601  0.36865  0.0007800000000000001  1.0000
  O   O4        1.0  0.40941  0.50699  0.00133  1.0000
  O   O5        1.0  0.14968000000000004  0.6347599999999999  0.6347600000000001  1.0000
  O   O6        1.0  0.9033600000000002  0.49982  0.4998200000000001  1.0000
