data_image0
_chemical_formula_structural       La2P8H16Ru4C8O28
_chemical_formula_sum              "La2 P8 H16 Ru4 C8 O28"
_cell_length_a       9.38358
_cell_length_b       9.42729
_cell_length_c       17.37458
_cell_angle_alpha    92.16826
_cell_angle_beta     92.24765
_cell_angle_gamma    105.75570999999998

_symmetry_space_group_name_H-M    'P 1'
_symmetry_Int_Tables_number       1

loop_
  _symmetry_equiv_pos_as_xyz
  'x,y,z'

loop_
  _atom_site_type_symbol
  _atom_site_label
  _atom_site_symmetry_multiplicity
  _atom_site_fract_x
  _atom_site_fract_y
  _atom_site_fract_z
  _atom_site_occupancy
  La  La1       1.0  0.003340000000000044  0.98943  0.25202  1.0000
  La  La2       1.0  0.98903  0.005230000000000005  0.7468  1.0000
  P   P1        1.0  0.9898299999999999  0.6580199999999999  0.36842  1.0000
  P   P2        1.0  0.012939999999999998  0.34574  0.361  1.0000
  P   P3        1.0  0.33884  0.01334  0.13375  1.0000
  P   P4        1.0  0.65184  0.98591  0.13943  1.0000
  P   P5        1.0  0.028729999999999985  0.34885  0.63214  1.0000
  P   P6        1.0  0.99187  0.65632  0.64008  1.0000
  P   P7        1.0  0.6571499999999999  0.98837  0.8667100000000001  1.0000
  P   P8        1.0  0.3430099999999999  0.01052000000000001  0.8566600000000001  1.0000
  H   H1        1.0  0.8635799999999999  0.54933  0.20757  1.0000
  H   H2        1.0  0.86077  0.35949  0.21014  1.0000
  H   H3        1.0  0.75935  0.43637  0.27704  1.0000
  H   H4        1.0  0.21185999999999994  0.58308  0.29482  1.0000
  H   H5        1.0  0.4500499999999999  0.13005  0.29475  1.0000
  H   H6        1.0  0.6403399999999999  0.13278999999999996  0.29162  1.0000
  H   H7        1.0  0.56247  0.23581  0.22569  1.0000
  H   H8        1.0  0.42263  0.78534  0.20471  1.0000
  H   H9        1.0  0.12991  0.45082999999999995  0.79622  1.0000
  H   H10       1.0  0.12983999999999998  0.6396099999999999  0.79414  1.0000
  H   H11       1.0  0.23966999999999997  0.56727  0.72955  1.0000
  H   H12       1.0  0.7886999999999998  0.42405999999999994  0.6991800000000001  1.0000
  H   H13       1.0  0.5560899999999999  0.8682099999999998  0.7057  1.0000
  H   H14       1.0  0.36445000000000005  0.86208  0.70536  1.0000
  H   H15       1.0  0.44108  0.76278  0.77389  1.0000
  H   H16       1.0  0.58251  0.21275  0.79264  1.0000
  Ru  Ru1       1.0  0.86639  0.45133999999999996  0.49776  1.0000
  Ru  Ru2       1.0  0.55603  0.16822  0.00359  1.0000
  Ru  Ru3       1.0  0.16600999999999994  0.56109  0.50356  1.0000
  Ru  Ru4       1.0  0.43288  0.8309999999999997  0.9945399999999999  1.0000
  C   C1        1.0  0.99701  0.5021699999999999  0.30184  1.0000
  C   C2        1.0  0.8615499999999999  0.4585600000000001  0.24566000000000002  1.0000
  C   C3        1.0  0.4955399999999999  0.9999499999999999  0.19916000000000003  1.0000
  C   C4        1.0  0.5408199999999999  0.13318  0.25631  1.0000
  C   C5        1.0  0.004739999999999979  0.49851  0.69868  1.0000
  C   C6        1.0  0.13454999999999998  0.5425799999999998  0.75842  1.0000
  C   C7        1.0  0.5027900000000001  0.9987700000000002  0.79896  1.0000
  C   C8        1.0  0.46263  0.8644  0.74244  1.0000
  O   O1        1.0  0.85685  0.60018  0.42213  1.0000
  O   O2        1.0  0.14027  0.7067299999999999  0.41463  1.0000
  O   O3        1.0  0.9578599999999999  0.7804799999999997  0.32049  1.0000
  O   O4        1.0  0.8718599999999999  0.30677  0.4105  1.0000
  O   O5        1.0  0.15983  0.39766  0.40987  1.0000
  O   O6        1.0  0.007870000000000005  0.21339  0.30531  1.0000
  O   O7        1.0  0.12712999999999997  0.54993  0.25792  1.0000
  O   O8        1.0  0.39405  0.15128  0.08564  1.0000
  O   O9        1.0  0.2929099999999999  0.8687999999999998  0.08187  1.0000
  O   O10       1.0  0.21209  0.02813  0.18425  1.0000
  O   O11       1.0  0.69929  0.12773  0.09343  1.0000
  O   O12       1.0  0.59248  0.84388  0.08613  1.0000
  O   O13       1.0  0.77856  0.97026  0.19456  1.0000
  O   O14       1.0  0.4489799999999999  0.86914  0.24209  1.0000
  O   O15       1.0  0.17217999999999992  0.40708  0.58967  1.0000
  O   O16       1.0  0.88704  0.30726  0.57434  1.0000
  O   O17       1.0  0.028280000000000013  0.21444  0.67939  1.0000
  O   O18       1.0  0.13555  0.71338  0.59764  1.0000
  O   O19       1.0  0.8496799999999999  0.59109  0.58488  1.0000
  O   O20       1.0  0.95789  0.7733499999999998  0.69505  1.0000
  O   O21       1.0  0.87031  0.44744999999999996  0.73832  1.0000
  O   O22       1.0  0.6003799999999999  0.85011  0.9140700000000002  1.0000
  O   O23       1.0  0.69967  0.13388  0.91807  1.0000
  O   O24       1.0  0.78702  0.97729  0.81752  1.0000
  O   O25       1.0  0.29531999999999997  0.8687999999999998  0.90286  1.0000
  O   O26       1.0  0.3978599999999999  0.15217  0.91038  1.0000
  O   O27       1.0  0.21577  0.02182  0.80069  1.0000
  O   O28       1.0  0.5493099999999999  0.12901  0.75554  1.0000
