data_image0
_chemical_formula_structural       Mn4H16C36O28
_chemical_formula_sum              "Mn4 H16 C36 O28"
_cell_length_a       10.62605
_cell_length_b       10.634289999999998
_cell_length_c       18.80046
_cell_angle_alpha    69.16603999999998
_cell_angle_beta     68.8773
_cell_angle_gamma    35.823449999999994

_space_group_name_H-M_alt    "P 1"
_space_group_IT_number       1

loop_
  _space_group_symop_operation_xyz
  'x, y, z'

loop_
  _atom_site_type_symbol
  _atom_site_label
  _atom_site_symmetry_multiplicity
  _atom_site_fract_x
  _atom_site_fract_y
  _atom_site_fract_z
  _atom_site_occupancy
  Mn  Mn1       1.0  0.97399  0.3411399999999999  0.57154  1.0000
  Mn  Mn2       1.0  0.6734299999999999  0.03200000000000006  0.9275099999999998  1.0000
  Mn  Mn3       1.0  0.05159000000000006  0.6526799999999999  0.42853  1.0000
  Mn  Mn4       1.0  0.3568200000000001  0.95778  0.07224  1.0000
  H   H1        1.0  0.75111  0.4219999999999999  0.0038899999999999994  1.0000
  H   H2        1.0  0.1030600000000001  0.2681199999999999  0.43413  1.0000
  H   H3        1.0  0.8564299999999998  0.6803  0.79213  1.0000
  H   H4        1.0  0.8153999999999999  0.31426  0.78631  1.0000
  H   H5        1.0  0.5855400000000001  0.26257  0.4961  1.0000
  H   H6        1.0  0.7430399999999998  0.9079799999999999  0.06443  1.0000
  H   H7        1.0  0.32621  0.15661000000000005  0.7076899999999999  1.0000
  H   H8        1.0  0.70081  0.18766  0.71361  1.0000
  H   H9        1.0  0.28058000000000016  0.5677099999999999  0.9960299999999999  1.0000
  H   H10       1.0  0.9243900000000002  0.7225199999999998  0.56618  1.0000
  H   H11       1.0  0.17744000000000007  0.30710999999999994  0.20751999999999998  1.0000
  H   H12       1.0  0.20953000000000008  0.68057  0.21369999999999995  1.0000
  H   H13       1.0  0.44221999999999995  0.7298199999999999  0.50373  1.0000
  H   H14       1.0  0.28859000000000007  0.08010000000000005  0.9350599999999999  1.0000
  H   H15       1.0  0.7022599999999999  0.834  0.29173  1.0000
  H   H16       1.0  0.3266300000000001  0.8035499999999999  0.28668  1.0000
  C   C1        1.0  0.7980800000000002  0.5649700000000001  0.9027299999999998  1.0000
  C   C2        1.0  0.7889099999999998  0.34733  0.89915  1.0000
  C   C3        1.0  0.8402000000000001  0.49997  0.7801599999999997  1.0000
  C   C4        1.0  0.7771900000000003  0.44183  0.94151  1.0000
  C   C5        1.0  0.86914  0.53233  0.69416  1.0000
  C   C6        1.0  0.7586299999999999  0.68924  0.94595  1.0000
  C   C7        1.0  0.8361800000000001  0.58834  0.82226  1.0000
  C   C8        1.0  0.76473  0.21641999999999995  0.93557  1.0000
  C   C9        1.0  0.8152600000000003  0.38075  0.8187899999999998  1.0000
  C   C10       1.0  0.4421300000000002  0.21538999999999997  0.59728  1.0000
  C   C11       1.0  0.6631599999999997  0.22042  0.60073  1.0000
  C   C12       1.0  0.5114500000000002  0.16722  0.7197599999999997  1.0000
  C   C13       1.0  0.56658  0.23498999999999998  0.55842  1.0000
  C   C14       1.0  0.4815800000000001  0.13577000000000003  0.8057799999999998  1.0000
  C   C15       1.0  0.31694  0.25697000000000003  0.55399  1.0000
  C   C16       1.0  0.4196099999999998  0.17552000000000004  0.67769  1.0000
  C   C17       1.0  0.7935300000000001  0.24531000000000003  0.5642299999999998  1.0000
  C   C18       1.0  0.6319400000000001  0.19099999999999995  0.68104  1.0000
  C   C19       1.0  0.2339  0.42427  0.09709  1.0000
  C   C20       1.0  0.24026000000000003  0.64391  0.10088  1.0000
  C   C21       1.0  0.18900000000000008  0.49126999999999993  0.21981  1.0000
  C   C22       1.0  0.25377  0.54818  0.0584  1.0000
  C   C23       1.0  0.15889000000000003  0.46010999999999996  0.30582  1.0000
  C   C24       1.0  0.27384000000000003  0.3000399999999999  0.053699999999999984  1.0000
  C   C25       1.0  0.1957500000000001  0.40072999999999986  0.17758  1.0000
  C   C26       1.0  0.26474999999999993  0.77433  0.06444  1.0000
  C   C27       1.0  0.21218000000000012  0.6119299999999999  0.18121999999999996  1.0000
  C   C28       1.0  0.5856500000000001  0.7768  0.4023799999999999  1.0000
  C   C29       1.0  0.36443  0.77151  0.39928  1.0000
  C   C30       1.0  0.5172100000000001  0.823  0.28009  1.0000
  C   C31       1.0  0.4614499999999999  0.7568699999999999  0.4414  1.0000
  C   C32       1.0  0.54834  0.8530499999999998  0.1941  1.0000
  C   C33       1.0  0.7097500000000002  0.73776  0.44523  1.0000
  C   C34       1.0  0.60865  0.8155  0.32197  1.0000
  C   C35       1.0  0.2324100000000001  0.7483099999999998  0.43577  1.0000
  C   C36       1.0  0.39590000000000025  0.8002999999999998  0.3189599999999999  1.0000
  O   O1        1.0  0.7379999999999999  0.17605  0.88966  1.0000
  O   O2        1.0  0.8249300000000003  0.7598799999999999  0.9109099999999998  1.0000
  O   O3        1.0  0.8440699999999999  0.46005  0.66437  1.0000
  O   O4        1.0  0.9140100000000002  0.61792  0.65761  1.0000
  O   O5        1.0  0.65677  0.7285199999999998  0.013529999999999997  1.0000
  O   O6        1.0  0.76811  0.15743  0.0073  1.0000
  O   O7        1.0  0.11215000000000007  0.19154  0.4865499999999999  1.0000
  O   O8        1.0  0.8309900000000002  0.27537  0.60997  1.0000
  O   O9        1.0  0.24343999999999993  0.19360999999999998  0.58882  1.0000
  O   O10       1.0  0.5580899999999999  0.15689  0.83509  1.0000
  O   O11       1.0  0.3940700000000001  0.09290000000000002  0.8427299999999998  1.0000
  O   O12       1.0  0.28068999999999994  0.35679999999999995  0.48652  1.0000
  O   O13       1.0  0.8548400000000003  0.23951  0.49248  1.0000
  O   O14       1.0  0.82027  0.8986799999999999  0.01194  1.0000
  O   O15       1.0  0.2909900000000002  0.8152899999999997  0.1103  1.0000
  O   O16       1.0  0.20868  0.22833999999999996  0.08889  1.0000
  O   O17       1.0  0.1816500000000001  0.53476  0.3354799999999999  1.0000
  O   O18       1.0  0.1151900000000001  0.3733799999999999  0.34241  1.0000
  O   O19       1.0  0.3744  0.26259  0.98592  1.0000
  O   O20       1.0  0.2625100000000001  0.8319999999999996  0.99264  1.0000
  O   O21       1.0  0.9143800000000003  0.8002599999999997  0.51391  1.0000
  O   O22       1.0  0.18980999999999998  0.7241  0.3898  1.0000
  O   O23       1.0  0.7798199999999997  0.8046099999999999  0.41058  1.0000
  O   O24       1.0  0.47142999999999996  0.83218  0.16485999999999995  1.0000
  O   O25       1.0  0.6369299999999999  0.89467  0.15722  1.0000
  O   O26       1.0  0.7487700000000002  0.6362599999999998  0.51241  1.0000
  O   O27       1.0  0.1749799999999999  0.7494700000000001  0.50777  1.0000
  O   O28       1.0  0.21062000000000003  0.09049999999999998  0.9875499999999999  1.0000
