data_image0
_chemical_formula_structural       K4Cu2H34C34N2O18
_chemical_formula_sum              "K4 Cu2 H34 C34 N2 O18"
_cell_length_a       8.65555
_cell_length_b       11.20316
_cell_length_c       12.51398
_cell_angle_alpha    84.60037999999999
_cell_angle_beta     82.44349000000001
_cell_angle_gamma    72.59834000000001

_space_group_name_H-M_alt    "P 1"
_space_group_IT_number       1

loop_
  _space_group_symop_operation_xyz
  'x, y, z'

loop_
  _atom_site_type_symbol
  _atom_site_label
  _atom_site_symmetry_multiplicity
  _atom_site_fract_x
  _atom_site_fract_y
  _atom_site_fract_z
  _atom_site_occupancy
  K   K1        1.0  0.32621  0.6401200000000001  0.95772  1.0000
  K   K2        1.0  0.9581699999999997  0.57483  0.15196  1.0000
  K   K3        1.0  0.6737999999999996  0.3598700000000001  0.04228  1.0000
  K   K4        1.0  0.04183000000000001  0.42517  0.84804  1.0000
  Cu  Cu1       1.0  0.6814400000000002  0.97545  0.96817  1.0000
  Cu  Cu2       1.0  0.31857  0.024550000000000006  0.03183  1.0000
  H   H1        1.0  0.19276999999999997  0.12313000000000009  0.83566  1.0000
  H   H2        1.0  0.15751999999999994  0.22731000000000004  0.65303  1.0000
  H   H3        1.0  0.27707  0.28664  0.47329999999999994  1.0000
  H   H4        1.0  0.78512  0.13022000000000003  0.37534  1.0000
  H   H5        1.0  0.8196  0.00030999999999999984  0.54498  1.0000
  H   H6        1.0  0.8222399999999999  0.8836100000000002  0.67067  1.0000
  H   H7        1.0  0.7089499999999999  0.82432  0.77887  1.0000
  H   H8        1.0  0.04413  0.8050000000000002  0.7788799999999999  1.0000
  H   H9        1.0  0.04477000000000001  0.8847800000000001  0.89468  1.0000
  H   H10       1.0  0.9844400000000001  0.050990000000000014  0.74142  1.0000
  H   H11       1.0  0.77276  0.12473000000000005  0.73753  1.0000
  H   H12       1.0  0.3491699999999999  0.39339  0.15957  1.0000
  H   H13       1.0  0.30546999999999996  0.35790000000000005  0.04956  1.0000
  H   H14       1.0  0.64337  0.46308000000000005  0.23749  1.0000
  H   H15       1.0  0.47906  0.67468  0.30269  1.0000
  H   H16       1.0  0.40212000000000003  0.60367  0.20784  1.0000
  H   H17       1.0  0.5068  0.7183800000000001  0.16248  1.0000
  H   H18       1.0  0.80724  0.8768700000000001  0.16434  1.0000
  H   H19       1.0  0.8424899999999997  0.77269  0.34697  1.0000
  H   H20       1.0  0.7229399999999999  0.71336  0.5267  1.0000
  H   H21       1.0  0.21489  0.86978  0.62466  1.0000
  H   H22       1.0  0.18040999999999993  0.9996900000000001  0.45502  1.0000
  H   H23       1.0  0.17776  0.11639  0.32933  1.0000
  H   H24       1.0  0.29105999999999993  0.17568000000000009  0.22113  1.0000
  H   H25       1.0  0.95588  0.19500000000000003  0.22112  1.0000
  H   H26       1.0  0.95524  0.11522000000000003  0.10532  1.0000
  H   H27       1.0  0.015569999999999952  0.9490100000000001  0.25859  1.0000
  H   H28       1.0  0.22724999999999984  0.8752600000000003  0.26248  1.0000
  H   H29       1.0  0.65084  0.60661  0.8404299999999998  1.0000
  H   H30       1.0  0.6945399999999999  0.6421000000000001  0.95044  1.0000
  H   H31       1.0  0.35664  0.53691  0.76251  1.0000
  H   H32       1.0  0.52095  0.32532  0.69731  1.0000
  H   H33       1.0  0.5978899999999998  0.3963200000000002  0.7921599999999999  1.0000
  H   H34       1.0  0.49321000000000004  0.28162  0.8375199999999999  1.0000
  C   C1        1.0  0.45034999999999986  0.031710000000000016  0.79884  1.0000
  C   C2        1.0  0.2954300000000001  0.10951000000000001  0.77324  1.0000
  C   C3        1.0  0.27697  0.16855000000000003  0.67235  1.0000
  C   C4        1.0  0.41157  0.15595000000000003  0.5916  1.0000
  C   C5        1.0  0.3952  0.22409  0.49067  1.0000
  C   C6        1.0  0.52774  0.21677  0.41375  1.0000
  C   C7        1.0  0.68169  0.13536  0.43621999999999994  1.0000
  C   C8        1.0  0.70019  0.06372  0.53213  1.0000
  C   C9        1.0  0.56743  0.07249000000000001  0.61457  1.0000
  C   C10       1.0  0.5830599999999999  0.006739999999999996  0.71804  1.0000
  C   C11       1.0  0.7374700000000001  0.90983  0.7437299999999999  1.0000
  C   C12       1.0  0.9685099999999999  0.84693  0.8514  1.0000
  C   C13       1.0  0.9192899999999998  0.7466600000000002  0.9275999999999999  1.0000
  C   C14       1.0  0.86456  0.06769  0.78908  1.0000
  C   C15       1.0  0.8557399999999998  0.1449  0.88488  1.0000
  C   C16       1.0  0.50939  0.29690000000000005  0.31046  1.0000
  C   C17       1.0  0.50289  0.6396500000000002  0.22109999999999994  1.0000
  C   C18       1.0  0.5496599999999999  0.9682900000000001  0.20115999999999998  1.0000
  C   C19       1.0  0.70458  0.89049  0.22677  1.0000
  C   C20       1.0  0.7230399999999999  0.8314500000000002  0.32766  1.0000
  C   C21       1.0  0.58844  0.8440500000000001  0.4084  1.0000
  C   C22       1.0  0.6048100000000001  0.77591  0.50934  1.0000
  C   C23       1.0  0.47227  0.7832300000000001  0.58625  1.0000
  C   C24       1.0  0.3183199999999999  0.8646300000000001  0.56378  1.0000
  C   C25       1.0  0.29982  0.93628  0.46787  1.0000
  C   C26       1.0  0.43257  0.9275  0.38542999999999994  1.0000
  C   C27       1.0  0.41694999999999993  0.99325  0.28197  1.0000
  C   C28       1.0  0.26252999999999993  0.09017  0.25627  1.0000
  C   C29       1.0  0.03148999999999998  0.15307000000000004  0.14861  1.0000
  C   C30       1.0  0.08072000000000001  0.25334  0.07241  1.0000
  C   C31       1.0  0.13544999999999996  0.9323000000000001  0.21092  1.0000
  C   C32       1.0  0.14427  0.8551000000000001  0.11512  1.0000
  C   C33       1.0  0.4906199999999999  0.7031000000000002  0.68954  1.0000
  C   C34       1.0  0.4971199999999999  0.3603500000000001  0.7789  1.0000
  N   N1        1.0  0.8237699999999999  0.9499700000000001  0.82403  1.0000
  N   N2        1.0  0.17624  0.05003  0.17596999999999996  1.0000
  O   O1        1.0  0.46951999999999955  0.9814800000000001  0.89995  1.0000
  O   O2        1.0  0.7816800000000002  0.7808600000000001  0.98703  1.0000
  O   O3        1.0  0.015730000000000008  0.63779  0.9309999999999999  1.0000
  O   O4        1.0  0.78181  0.11493000000000003  0.9756299999999999  1.0000
  O   O5        1.0  0.91309  0.23602000000000004  0.8714  1.0000
  O   O6        1.0  0.36658999999999986  0.3425300000000001  0.28117  1.0000
  O   O7        1.0  0.6395999999999998  0.31505000000000005  0.25927  1.0000
  O   O8        1.0  0.3349599999999998  0.42406  0.08081  1.0000
  O   O9        1.0  0.65707  0.54546  0.2061  1.0000
  O   O10       1.0  0.53049  0.01851  0.10005  1.0000
  O   O11       1.0  0.21832  0.21914000000000003  0.01298  1.0000
  O   O12       1.0  0.98428  0.36221000000000003  0.069  1.0000
  O   O13       1.0  0.21818999999999994  0.8850700000000001  0.02437  1.0000
  O   O14       1.0  0.08691999999999996  0.7639800000000001  0.1286  1.0000
  O   O15       1.0  0.63342  0.6574700000000001  0.7188399999999999  1.0000
  O   O16       1.0  0.36040999999999995  0.6849499999999998  0.74073  1.0000
  O   O17       1.0  0.66505  0.57594  0.91919  1.0000
  O   O18       1.0  0.34292999999999985  0.45454  0.79391  1.0000
