data_image0
_chemical_formula_structural       Zn4P8H28C12O24
_chemical_formula_sum              "Zn4 P8 H28 C12 O24"
_cell_length_a       8.84263
_cell_length_b       9.94427
_cell_length_c       13.51254
_cell_angle_alpha    90.0
_cell_angle_beta     90.0
_cell_angle_gamma    98.13508

_symmetry_space_group_name_H-M    'P 1'
_symmetry_Int_Tables_number       1

loop_
  _symmetry_equiv_pos_as_xyz
  'x,y,z'

loop_
  _atom_site_type_symbol
  _atom_site_label
  _atom_site_symmetry_multiplicity
  _atom_site_fract_x
  _atom_site_fract_y
  _atom_site_fract_z
  _atom_site_occupancy
  Zn  Zn1       1.0  0.36934000000000006  0.42378000000000005  0.64499  1.0000
  Zn  Zn2       1.0  0.63066  0.07622  0.14499  1.0000
  Zn  Zn3       1.0  0.36934  0.9237800000000002  0.85501  1.0000
  Zn  Zn4       1.0  0.63066  0.57621  0.35501000000000005  1.0000
  P   P1        1.0  0.28987  0.50556  0.42295  1.0000
  P   P2        1.0  0.71012  0.99443  0.92295  1.0000
  P   P3        1.0  0.71013  0.49443  0.57705  1.0000
  P   P4        1.0  0.28987  0.00556  0.07705  1.0000
  P   P5        1.0  0.77338  0.31727  0.28323  1.0000
  P   P6        1.0  0.22662  0.6827200000000001  0.71677  1.0000
  P   P7        1.0  0.77338  0.81727  0.21677  1.0000
  P   P8        1.0  0.22662  0.18273  0.78323  1.0000
  H   H1        1.0  0.86709  0.9625600000000001  0.78582  1.0000
  H   H2        1.0  0.97606  0.00356  0.89437  1.0000
  H   H3        1.0  0.06301  0.25382  0.38104  1.0000
  H   H4        1.0  0.98514  0.85397  0.32705  1.0000
  H   H5        1.0  0.19465  0.2922  0.28317  1.0000
  H   H6        1.0  0.06300999999999997  0.75382  0.11896  1.0000
  H   H7        1.0  0.01486  0.64603  0.82704  1.0000
  H   H8        1.0  0.9369899999999999  0.74618  0.61896  1.0000
  H   H9        1.0  0.13291  0.03744  0.21418  1.0000
  H   H10       1.0  0.023930000000000007  0.99644  0.10563  1.0000
  H   H11       1.0  0.02394  0.49643999999999994  0.39437  1.0000
  H   H12       1.0  0.70816  0.30438  0.47716  1.0000
  H   H13       1.0  0.05039  0.31568  0.7162800000000001  1.0000
  H   H14       1.0  0.98514  0.35397  0.17295  1.0000
  H   H15       1.0  0.9369899999999999  0.24618  0.88104  1.0000
  H   H16       1.0  0.9496099999999998  0.18432  0.21628  1.0000
  H   H17       1.0  0.97606  0.50356  0.60563  1.0000
  H   H18       1.0  0.86709  0.46256  0.7141700000000001  1.0000
  H   H19       1.0  0.29184  0.69562  0.52283  1.0000
  H   H20       1.0  0.19465  0.7922  0.21683  1.0000
  H   H21       1.0  0.80535  0.20779  0.78317  1.0000
  H   H22       1.0  0.70816  0.80438  0.02284  1.0000
  H   H23       1.0  0.13291  0.53743  0.28582  1.0000
  H   H24       1.0  0.9496099999999998  0.68432  0.28372  1.0000
  H   H25       1.0  0.80535  0.70779  0.71682  1.0000
  H   H26       1.0  0.05039  0.8156799999999998  0.78371  1.0000
  H   H27       1.0  0.01486  0.14603  0.67295  1.0000
  H   H28       1.0  0.29184  0.19562  0.9771600000000001  1.0000
  C   C1        1.0  0.88113  0.53145  0.65012  1.0000
  C   C2        1.0  0.9106299999999999  0.18025  0.81635  1.0000
  C   C3        1.0  0.039050000000000015  0.7089600000000001  0.76046  1.0000
  C   C4        1.0  0.96094  0.79104  0.26046  1.0000
  C   C5        1.0  0.9106299999999999  0.68025  0.6836400000000001  1.0000
  C   C6        1.0  0.11886999999999999  0.96855  0.15012  1.0000
  C   C7        1.0  0.96094  0.29104  0.23953  1.0000
  C   C8        1.0  0.88113  0.03145  0.84988  1.0000
  C   C9        1.0  0.11886999999999999  0.46855  0.34988  1.0000
  C   C10       1.0  0.08937  0.31975  0.31636  1.0000
  C   C11       1.0  0.03905  0.20896  0.7395300000000001  1.0000
  C   C12       1.0  0.08936999999999999  0.8197499999999999  0.18364  1.0000
  O   O1        1.0  0.72807  0.08709  0.01453  1.0000
  O   O2        1.0  0.57583  0.01952  0.85557  1.0000
  O   O3        1.0  0.31077  0.66059  0.44986  1.0000
  O   O4        1.0  0.7432600000000001  0.7523200000000001  0.11435999999999999  1.0000
  O   O5        1.0  0.34903  0.24697  0.70857  1.0000
  O   O6        1.0  0.68923  0.83941  0.94986  1.0000
  O   O7        1.0  0.65096  0.75303  0.29143  1.0000
  O   O8        1.0  0.25674  0.74767  0.61436  1.0000
  O   O9        1.0  0.34903  0.74697  0.79143  1.0000
  O   O10       1.0  0.57583  0.51952  0.64443  1.0000
  O   O11       1.0  0.42417  0.48048  0.35557  1.0000
  O   O12       1.0  0.42417  0.9804800000000001  0.14443  1.0000
  O   O13       1.0  0.25674  0.24767  0.88564  1.0000
  O   O14       1.0  0.27193  0.91291  0.98546  1.0000
  O   O15       1.0  0.31077  0.16059  0.05014  1.0000
  O   O16       1.0  0.68923  0.33941  0.55014  1.0000
  O   O17       1.0  0.77212  0.47332  0.28467  1.0000
  O   O18       1.0  0.22787000000000002  0.026680000000000002  0.78466  1.0000
  O   O19       1.0  0.27193  0.41291  0.51453  1.0000
  O   O20       1.0  0.7721199999999999  0.97332  0.21533  1.0000
  O   O21       1.0  0.65097  0.25303  0.20857  1.0000
  O   O22       1.0  0.22787000000000002  0.52668  0.71533  1.0000
  O   O23       1.0  0.72807  0.58709  0.48546  1.0000
  O   O24       1.0  0.74326  0.25232  0.38564  1.0000
