data_image0
_chemical_formula_structural       Ni2H28C24N12O4
_chemical_formula_sum              "Ni2 H28 C24 N12 O4"
_cell_length_a       7.20602
_cell_length_b       11.769320000000002
_cell_length_c       11.97194
_cell_angle_alpha    84.02776
_cell_angle_beta     71.2913
_cell_angle_gamma    71.12752

_space_group_name_H-M_alt    "P 1"
_space_group_IT_number       1

loop_
  _space_group_symop_operation_xyz
  'x, y, z'

loop_
  _atom_site_type_symbol
  _atom_site_label
  _atom_site_symmetry_multiplicity
  _atom_site_fract_x
  _atom_site_fract_y
  _atom_site_fract_z
  _atom_site_occupancy
  Ni  Ni1       1.0  0.041089999999999995  0.49400000000000005  0.4969399999999999  1.0000
  Ni  Ni2       1.0  0.2911699999999997  0.9972000000000001  0.99758  1.0000
  H   H1        1.0  0.34365999999999997  0.79119  0.14068999999999998  1.0000
  H   H2        1.0  0.91221  0.12758  0.17795  1.0000
  H   H3        1.0  0.68603  0.06925  0.3667  1.0000
  H   H4        1.0  0.8004800000000001  0.86005  0.44774  1.0000
  H   H5        1.0  0.39217999999999986  0.6279600000000001  0.19448999999999997  1.0000
  H   H6        1.0  0.58534  0.49682  0.31822  1.0000
  H   H7        1.0  0.43683999999999995  0.43012  0.28565999999999997  1.0000
  H   H8        1.0  0.27780000000000005  0.20242000000000002  0.8529199999999999  1.0000
  H   H9        1.0  0.20961000000000005  0.8718900000000002  0.8275199999999998  1.0000
  H   H10       1.0  0.12464000000000007  0.92859  0.6381599999999998  1.0000
  H   H11       1.0  0.11988999999999995  0.13411  0.55145  1.0000
  H   H12       1.0  0.21355000000000002  0.36683000000000004  0.7955799999999998  1.0000
  H   H13       1.0  0.4161100000000001  0.4911900000000001  0.67197  1.0000
  H   H14       1.0  0.16470999999999997  0.5578500000000001  0.6934399999999998  1.0000
  H   H15       1.0  0.23480999999999996  0.28863  0.35359999999999997  1.0000
  H   H16       1.0  0.8347200000000001  0.62491  0.32404999999999995  1.0000
  H   H17       1.0  0.8084199999999998  0.57  0.13438  1.0000
  H   H18       1.0  0.00860000000000002  0.36195  0.050399999999999986  1.0000
  H   H19       1.0  0.3362299999999999  0.12574  0.29742  1.0000
  H   H20       1.0  0.66339  0.99784  0.17693  1.0000
  H   H21       1.0  0.48219999999999996  0.9312100000000001  0.19770999999999997  1.0000
  H   H22       1.0  0.88725  0.69865  0.64023  1.0000
  H   H23       1.0  0.78842  0.36818000000000006  0.67554  1.0000
  H   H24       1.0  0.5048399999999997  0.42880000000000007  0.86564  1.0000
  H   H25       1.0  0.4130499999999999  0.63537  0.94805  1.0000
  H   H26       1.0  0.76816  0.8655  0.69628  1.0000
  H   H27       1.0  0.8311299999999999  0.9926000000000001  0.82536  1.0000
  H   H28       1.0  0.61306  0.05734  0.79154  1.0000
  C   C1        1.0  0.16344  0.68956  0.35192999999999997  1.0000
  C   C2        1.0  0.08470999999999981  0.8081000000000003  0.3024  1.0000
  C   C3        1.0  0.19693999999999995  0.84793  0.19548999999999997  1.0000
  C   C4        1.0  0.95382  0.03744  0.21394999999999995  1.0000
  C   C5        1.0  0.83052  0.00382  0.31972  1.0000
  C   C6        1.0  0.8930099999999999  0.8888200000000003  0.36565  1.0000
  C   C7        1.0  0.22166000000000008  0.30027  0.6397399999999999  1.0000
  C   C8        1.0  0.20414000000000004  0.18507  0.6931899999999999  1.0000
  C   C9        1.0  0.24271000000000006  0.14643  0.80079  1.0000
  C   C10       1.0  0.20121000000000014  0.96046  0.7888099999999998  1.0000
  C   C11       1.0  0.15634  0.9931300000000001  0.6826399999999999  1.0000
  C   C12       1.0  0.15548  0.10591000000000002  0.63351  1.0000
  C   C13       1.0  0.27297  0.19043  0.14155999999999996  1.0000
  C   C14       1.0  0.1422  0.30795  0.19361  1.0000
  C   C15       1.0  0.14326999999999998  0.34598  0.3005999999999999  1.0000
  C   C16       1.0  0.91596  0.53554  0.28624  1.0000
  C   C17       1.0  0.9039099999999997  0.50378  0.18019999999999994  1.0000
  C   C18       1.0  0.015840000000000014  0.38975000000000004  0.13224  1.0000
  C   C19       1.0  0.6090399999999996  0.8002600000000001  0.85314  1.0000
  C   C20       1.0  0.64533  0.6844  0.8023499999999998  1.0000
  C   C21       1.0  0.7966399999999999  0.64368  0.6946799999999999  1.0000
  C   C22       1.0  0.74045  0.45762000000000014  0.7121199999999999  1.0000
  C   C23       1.0  0.5839999999999999  0.4925  0.8185499999999999  1.0000
  C   C24       1.0  0.5334099999999999  0.60607  0.86527  1.0000
  N   N1        1.0  0.13589000000000007  0.95948  0.14961999999999998  1.0000
  N   N2        1.0  0.33794  0.60902  0.2815  1.0000
  N   N3        1.0  0.43645  0.50105  0.32822  1.0000
  N   N4        1.0  0.24113999999999994  0.037200000000000004  0.84983  1.0000
  N   N5        1.0  0.24914000000000006  0.3789200000000001  0.7067099999999998  1.0000
  N   N6        1.0  0.28726  0.48518  0.65702  1.0000
  N   N7        1.0  0.033009999999999984  0.45671000000000006  0.3482799999999999  1.0000
  N   N8        1.0  0.37845  0.10996  0.20943  1.0000
  N   N9        1.0  0.52908  0.00346  0.16094999999999998  1.0000
  N   N10       1.0  0.8457799999999996  0.53326  0.6484  1.0000
  N   N11       1.0  0.7101499999999998  0.87777  0.7851699999999999  1.0000
  N   N12       1.0  0.68888  0.98625  0.83341  1.0000
  O   O1        1.0  0.07263  0.66291  0.45559999999999995  1.0000
  O   O2        1.0  0.21163  0.32566  0.53612  1.0000
  O   O3        1.0  0.28649999999999987  0.16545  0.03847  1.0000
  O   O4        1.0  0.49067  0.8274100000000002  0.95701  1.0000
