data_image0
_chemical_formula_structural       Ho4H12C36O24
_chemical_formula_sum              "Ho4 H12 C36 O24"
_cell_length_a       10.2882
_cell_length_b       10.282289999999998
_cell_length_c       14.36494
_cell_angle_alpha    90.04144000000001
_cell_angle_beta     90.01002999999999
_cell_angle_gamma    90.27428

_symmetry_space_group_name_H-M    'P 1'
_symmetry_Int_Tables_number       1

loop_
  _symmetry_equiv_pos_as_xyz
  'x,y,z'

loop_
  _atom_site_type_symbol
  _atom_site_label
  _atom_site_symmetry_multiplicity
  _atom_site_fract_x
  _atom_site_fract_y
  _atom_site_fract_z
  _atom_site_occupancy
  Ho  Ho1       1.0  0.85424  0.85764  0.70585  1.0000
  Ho  Ho2       1.0  0.14574  0.14182  0.20595  1.0000
  Ho  Ho3       1.0  0.142  0.85428  0.45594  1.0000
  Ho  Ho4       1.0  0.85799  0.13941  0.95602  1.0000
  H   H1        1.0  0.08056  0.45345  0.44244  1.0000
  H   H2        1.0  0.92339  0.45385  0.72067  1.0000
  H   H3        1.0  0.9957899999999998  0.09154  0.5801999999999999  1.0000
  H   H4        1.0  0.91896  0.5426  0.94197  1.0000
  H   H5        1.0  0.07587  0.54411  0.22051  1.0000
  H   H6        1.0  0.004739999999999999  0.9052799999999999  0.07904  1.0000
  H   H7        1.0  0.54661  0.08116  0.19243  1.0000
  H   H8        1.0  0.54537  0.9234199999999999  0.47046  1.0000
  H   H9        1.0  0.90776  0.99572  0.32998  1.0000
  H   H10       1.0  0.4528  0.918  0.6916699999999999  1.0000
  H   H11       1.0  0.4554  0.07511  0.97008  1.0000
  H   H12       1.0  0.09237  0.00446  0.82999  1.0000
  C   C1        1.0  0.91001  0.1902  0.74191  1.0000
  C   C2        1.0  0.04567  0.40036  0.503  1.0000
  C   C3        1.0  0.08519  0.18954  0.41858  1.0000
  C   C4        1.0  0.95653  0.4007200000000001  0.65967  1.0000
  C   C5        1.0  0.00149  0.46833  0.58137  1.0000
  C   C6        1.0  0.95512  0.26472  0.65921  1.0000
  C   C7        1.0  0.04329  0.26417  0.50234  1.0000
  C   C8        1.0  0.00181  0.61331  0.58147  1.0000
  C   C9        1.0  0.9978300000000001  0.19705  0.5805  1.0000
  C   C10       1.0  0.08982  0.8072100000000001  0.2414  1.0000
  C   C11       1.0  0.9540100000000001  0.59573  0.00255  1.0000
  C   C12       1.0  0.91514  0.8064099999999998  0.91786  1.0000
  C   C13       1.0  0.04291  0.59638  0.15916  1.0000
  C   C14       1.0  0.9978499999999999  0.52795  0.08109  1.0000
  C   C15       1.0  0.0448  0.73248  0.15851  1.0000
  C   C16       1.0  0.9568699999999999  0.73194  0.00165  1.0000
  C   C17       1.0  0.9974999999999999  0.38271  0.08129  1.0000
  C   C18       1.0  0.00241  0.79973  0.07965  1.0000
  C   C19       1.0  0.80817  0.90969  0.49169  1.0000
  C   C20       1.0  0.59924  0.0462  0.25305  1.0000
  C   C21       1.0  0.8096100000000002  0.08497  0.16849000000000003  1.0000
  C   C22       1.0  0.59851  0.9567099999999998  0.40947  1.0000
  C   C23       1.0  0.53109  0.00213  0.33141  1.0000
  C   C24       1.0  0.73441  0.95504  0.40895  1.0000
  C   C25       1.0  0.73523  0.04354  0.25241  1.0000
  C   C26       1.0  0.38625  0.00253  0.3315  1.0000
  C   C27       1.0  0.8023200000000001  0.9978899999999999  0.33036  1.0000
  C   C28       1.0  0.19229  0.0895  0.99166  1.0000
  C   C29       1.0  0.40027  0.9529299999999999  0.75238  1.0000
  C   C30       1.0  0.18893  0.91498  0.66831  1.0000
  C   C31       1.0  0.40185  0.04222  0.90909  1.0000
  C   C32       1.0  0.46873  0.99617  0.83092  1.0000
  C   C33       1.0  0.266  0.04465  0.90869  1.0000
  C   C34       1.0  0.26424  0.95649  0.75186  1.0000
  C   C35       1.0  0.61352  0.9942499999999999  0.83146  1.0000
  C   C36       1.0  0.19777999999999998  0.00215  0.8300899999999999  1.0000
  O   O1        1.0  0.9197799999999999  0.66977  0.63414  1.0000
  O   O2        1.0  0.09812  0.25099  0.3417  1.0000
  O   O3        1.0  0.08481  0.66905  0.52835  1.0000
  O   O4        1.0  0.10371  0.06745  0.4262  1.0000
  O   O5        1.0  0.90205  0.24838  0.8203  1.0000
  O   O6        1.0  0.88304  0.07009  0.73155  1.0000
  O   O7        1.0  0.07989  0.32657  0.13404  1.0000
  O   O8        1.0  0.90229  0.74622  0.84057  1.0000
  O   O9        1.0  0.9148999999999999  0.32614  0.02843  1.0000
  O   O10       1.0  0.8963299999999998  0.9285  0.92603  1.0000
  O   O11       1.0  0.09817  0.74739  0.31931  1.0000
  O   O12       1.0  0.11601  0.92765  0.23165  1.0000
  O   O13       1.0  0.32936  0.92051  0.38434  1.0000
  O   O14       1.0  0.74771  0.09759  0.0917  1.0000
  O   O15       1.0  0.33091  0.08514  0.27833  1.0000
  O   O16       1.0  0.93179  0.10314  0.17583  1.0000
  O   O17       1.0  0.74799  0.9012299999999999  0.56953  1.0000
  O   O18       1.0  0.92818  0.88335  0.48189  1.0000
  O   O19       1.0  0.67054  0.07723  0.88367  1.0000
  O   O20       1.0  0.24974  0.9021  0.59124  1.0000
  O   O21       1.0  0.66868  0.90971  0.7796200000000001  1.0000
  O   O22       1.0  0.06684  0.89649  0.6761400000000001  1.0000
  O   O23       1.0  0.25239  0.09837  0.0695  1.0000
  O   O24       1.0  0.07208  0.11483999999999998  0.98198  1.0000
