data_image0
_chemical_formula_structural       Tb2Cu2H16C32N10O16
_chemical_formula_sum              "Tb2 Cu2 H16 C32 N10 O16"
_cell_length_a       10.86661
_cell_length_b       10.81417
_cell_length_c       12.01647
_cell_angle_alpha    69.94472
_cell_angle_beta     77.02919
_cell_angle_gamma    59.56754

_symmetry_space_group_name_H-M    'P 1'
_symmetry_Int_Tables_number       1

loop_
  _symmetry_equiv_pos_as_xyz
  'x,y,z'

loop_
  _atom_site_type_symbol
  _atom_site_label
  _atom_site_symmetry_multiplicity
  _atom_site_fract_x
  _atom_site_fract_y
  _atom_site_fract_z
  _atom_site_occupancy
  Tb  Tb1       1.0  0.54226  0.98694  0.1627  1.0000
  Tb  Tb2       1.0  0.45718999999999993  0.00976999999999998  0.83771  1.0000
  Cu  Cu1       1.0  0.0006300000000000875  0.99979  0.99968  1.0000
  Cu  Cu2       1.0  0.0006699999999999869  0.0004100000000000284  0.49957999999999997  1.0000
  H   H1        1.0  0.028689999999999986  0.25799000000000005  0.52008  1.0000
  H   H2        1.0  0.91663  0.53804  0.42681  1.0000
  H   H3        1.0  0.6694100000000001  0.49095999999999995  0.2254  1.0000
  H   H4        1.0  0.7803400000000001  0.21555000000000002  0.33411  1.0000
  H   H5        1.0  0.9799699999999998  0.73366  0.18306  1.0000
  H   H6        1.0  0.12896000000000002  0.4526  0.23055  1.0000
  H   H7        1.0  0.4168699999999999  0.5158  0.93228  1.0000
  H   H8        1.0  0.2530199999999998  0.79215  0.89106  1.0000
  H   H9        1.0  0.9699400000000001  0.7446299999999999  0.47915  1.0000
  H   H10       1.0  0.08140000000000001  0.46455  0.57176  1.0000
  H   H11       1.0  0.32981999999999995  0.5091900000000001  0.77389  1.0000
  H   H12       1.0  0.2195400000000001  0.785  0.66594  1.0000
  H   H13       1.0  0.02088000000000006  0.2643699999999999  0.81783  1.0000
  H   H14       1.0  0.8726100000000002  0.54556  0.76867  1.0000
  H   H15       1.0  0.58275  0.48599  0.06624  1.0000
  H   H16       1.0  0.7463499999999998  0.20943  0.10947  1.0000
  C   C1        1.0  0.1794899999999999  0.9743700000000001  0.28035  1.0000
  C   C2        1.0  0.17621000000000006  0.9842199999999999  0.16153  1.0000
  C   C3        1.0  0.2810299999999999  0.9596699999999998  0.35672000000000004  1.0000
  C   C4        1.0  0.26563  0.0008400000000000019  0.05133  1.0000
  C   C5        1.0  0.94766  0.31533  0.45535999999999993  1.0000
  C   C6        1.0  0.8872500000000001  0.4684  0.40273  1.0000
  C   C7        1.0  0.78752  0.53242  0.3172  1.0000
  C   C8        1.0  0.7476899999999997  0.4415700000000001  0.29101  1.0000
  C   C9        1.0  0.80916  0.29085  0.3495  1.0000
  C   C10       1.0  0.7212499999999998  0.69598  0.2514  1.0000
  C   C11       1.0  0.07645  0.6799  0.12936  1.0000
  C   C12       1.0  0.15872  0.52609  0.15557  1.0000
  C   C13       1.0  0.28436  0.4647200000000001  0.08504  1.0000
  C   C14       1.0  0.31945000000000007  0.5606099999999999  0.98765  1.0000
  C   C15       1.0  0.2302200000000001  0.71287  0.9650899999999999  1.0000
  C   C16       1.0  0.38094  0.30004  0.11513  1.0000
  C   C17       1.0  0.8223500000000001  0.02655000000000005  0.7178599999999999  1.0000
  C   C18       1.0  0.8257  0.015829999999999976  0.83684  1.0000
  C   C19       1.0  0.7196500000000002  0.04224000000000001  0.64185  1.0000
  C   C20       1.0  0.73691  0.9977499999999999  0.9456699999999999  1.0000
  C   C21       1.0  0.051410000000000004  0.68689  0.54362  1.0000
  C   C22       1.0  0.11127000000000002  0.5336  0.59603  1.0000
  C   C23       1.0  0.21128999999999995  0.46863000000000005  0.68153  1.0000
  C   C24       1.0  0.25144999999999995  0.5589600000000001  0.7082  1.0000
  C   C25       1.0  0.1906200000000001  0.7099299999999998  0.64997  1.0000
  C   C26       1.0  0.2783399999999999  0.30548000000000003  0.7464499999999998  1.0000
  C   C27       1.0  0.9240600000000002  0.31893  0.87088  1.0000
  C   C28       1.0  0.84221  0.47289  0.84384  1.0000
  C   C29       1.0  0.7157800000000001  0.53502  0.91294  1.0000
  C   C30       1.0  0.6803500000000001  0.44069  0.01122  1.0000
  C   C31       1.0  0.76943  0.2879  0.03477  1.0000
  C   C32       1.0  0.6202100000000002  0.7003  0.8797  1.0000
  N   N1        1.0  0.05515000000000007  0.9750899999999999  0.33458  1.0000
  N   N2        1.0  0.9775299999999998  0.98306  0.25789  1.0000
  N   N3        1.0  0.05082000000000006  0.98862  0.15322  1.0000
  N   N4        1.0  0.90926  0.22860000000000003  0.42841  1.0000
  N   N5        1.0  0.1122  0.77155  0.03554  1.0000
  N   N6        1.0  0.9464  0.026240000000000006  0.66414  1.0000
  N   N7        1.0  0.023960000000000013  0.01771  0.7414  1.0000
  N   N8        1.0  0.95095  0.011169999999999992  0.84583  1.0000
  N   N9        1.0  0.09039000000000004  0.7729799999999999  0.57091  1.0000
  N   N10       1.0  0.8874599999999999  0.22830000000000003  0.96487  1.0000
  O   O1        1.0  0.23312999999999995  0.97975  0.45666  1.0000
  O   O2        1.0  0.4132200000000001  0.9206399999999999  0.31452  1.0000
  O   O3        1.0  0.38203  0.00473  0.05109  1.0000
  O   O4        1.0  0.22512  0.013399999999999997  0.95502  1.0000
  O   O5        1.0  0.7326100000000001  0.7865099999999999  0.28855  1.0000
  O   O6        1.0  0.6537299999999999  0.73619  0.16042  1.0000
  O   O7        1.0  0.50555  0.24880000000000002  0.06373  1.0000
  O   O8        1.0  0.33731  0.21376000000000003  0.19453999999999996  1.0000
  O   O9        1.0  0.7678600000000001  0.021180000000000004  0.54139  1.0000
  O   O10       1.0  0.58946  0.08216  0.68314  1.0000
  O   O11       1.0  0.6197200000000002  0.9952299999999998  0.9455199999999999  1.0000
  O   O12       1.0  0.7747300000000001  0.9828100000000001  0.04447  1.0000
  O   O13       1.0  0.26686  0.21358999999999997  0.71045  1.0000
  O   O14       1.0  0.34917  0.2640000000000001  0.8355899999999999  1.0000
  O   O15       1.0  0.49435000000000007  0.75419  0.9293099999999999  1.0000
  O   O16       1.0  0.66549  0.78384  0.79981  1.0000
