data_image0
_chemical_formula_structural       Cd2B2H28C32N16O6
_chemical_formula_sum              "Cd2 B2 H28 C32 N16 O6"
_cell_length_a       8.55225
_cell_length_b       9.11403
_cell_length_c       16.691649999999996
_cell_angle_alpha    81.49152
_cell_angle_beta     88.12245000000001
_cell_angle_gamma    75.99578

_symmetry_space_group_name_H-M    'P 1'
_symmetry_Int_Tables_number       1

loop_
  _symmetry_equiv_pos_as_xyz
  'x,y,z'

loop_
  _atom_site_type_symbol
  _atom_site_label
  _atom_site_symmetry_multiplicity
  _atom_site_fract_x
  _atom_site_fract_y
  _atom_site_fract_z
  _atom_site_occupancy
  Cd  Cd1       1.0  0.76231  0.34567  0.21495  1.0000
  Cd  Cd2       1.0  0.23769000000000004  0.6543199999999999  0.7850500000000002  1.0000
  B   B1        1.0  0.16769999999999996  0.76842  0.12148000000000002  1.0000
  B   B2        1.0  0.83231  0.23157  0.8785200000000002  1.0000
  H   H1        1.0  0.046269999999999985  0.52644  0.21582  1.0000
  H   H2        1.0  0.2011  0.71339  0.2986000000000001  1.0000
  H   H3        1.0  0.15560000000000002  0.6183799999999999  0.9826200000000002  1.0000
  H   H4        1.0  0.34870000000000007  0.9351199999999998  0.20278  1.0000
  H   H5        1.0  0.9000000000000001  0.84925  0.00589  1.0000
  H   H6        1.0  0.46462000000000003  0.4823200000000001  0.35326  1.0000
  H   H7        1.0  0.44942  0.52842  0.09839  1.0000
  H   H8        1.0  0.39448  0.9413200000000002  0.04395  1.0000
  H   H9        1.0  0.16071  0.20234  0.25063000000000013  1.0000
  H   H10       1.0  0.8651199999999999  0.9948  0.1307  1.0000
  H   H11       1.0  0.50074  0.85975  0.8936300000000003  1.0000
  H   H12       1.0  0.68338  0.666  0.037010000000000015  1.0000
  H   H13       1.0  0.68201  0.38467  0.47782  1.0000
  H   H14       1.0  0.8481499999999998  0.5497  0.62633  1.0000
  H   H15       1.0  0.9537400000000001  0.47356000000000004  0.78418  1.0000
  H   H16       1.0  0.79891  0.28661  0.7014  1.0000
  H   H17       1.0  0.8444000000000003  0.38162  0.01738  1.0000
  H   H18       1.0  0.65131  0.06488  0.79722  1.0000
  H   H19       1.0  0.10001000000000002  0.15075000000000002  0.99411  1.0000
  H   H20       1.0  0.5353899999999999  0.5176700000000001  0.64675  1.0000
  H   H21       1.0  0.55059  0.47157999999999994  0.9016100000000002  1.0000
  H   H22       1.0  0.60553  0.05866999999999994  0.9560600000000002  1.0000
  H   H23       1.0  0.8393  0.79766  0.7493700000000001  1.0000
  H   H24       1.0  0.13488  0.005200000000000029  0.8693  1.0000
  H   H25       1.0  0.49927000000000016  0.14025  0.10637000000000002  1.0000
  H   H26       1.0  0.31662  0.33399  0.96299  1.0000
  H   H27       1.0  0.31799000000000005  0.6153299999999999  0.5221900000000003  1.0000
  H   H28       1.0  0.15186  0.4503  0.37367  1.0000
  C   C1        1.0  0.9784400000000001  0.5872  0.16234000000000007  1.0000
  C   C2        1.0  0.2909500000000001  0.64128  0.2652  1.0000
  C   C3        1.0  0.23617000000000005  0.69409  0.9781900000000001  1.0000
  C   C4        1.0  0.22266000000000002  0.9903599999999999  0.19246  1.0000
  C   C5        1.0  0.8969700000000002  0.75618  0.05390000000000001  1.0000
  C   C6        1.0  0.42163  0.52564  0.29203  1.0000
  C   C7        1.0  0.41852  0.54704  0.16002  1.0000
  C   C8        1.0  0.36084  0.86333  0.00871  1.0000
  C   C9        1.0  0.12889  0.12143  0.21651  1.0000
  C   C10       1.0  0.97056  0.017519999999999987  0.15580000000000005  1.0000
  C   C11       1.0  0.4126600000000001  0.82158  0.93441  1.0000
  C   C12       1.0  0.79173  0.6627899999999999  0.06966000000000003  1.0000
  C   C13       1.0  0.8642000000000002  0.38028999999999996  0.37523  1.0000
  C   C14       1.0  0.93551  0.43745  0.4406200000000001  1.0000
  C   C15       1.0  0.91402  0.52712  0.57099  1.0000
  C   C16       1.0  0.8479799999999998  0.46373000000000003  0.51304  1.0000
  C   C17       1.0  0.021560000000000006  0.4128  0.83766  1.0000
  C   C18       1.0  0.70906  0.35872  0.73481  1.0000
  C   C19       1.0  0.76383  0.30591  0.02181  1.0000
  C   C20       1.0  0.7773500000000001  0.009639999999999961  0.8075400000000003  1.0000
  C   C21       1.0  0.10303999999999996  0.24382000000000004  0.94611  1.0000
  C   C22       1.0  0.57837  0.47436  0.70797  1.0000
  C   C23       1.0  0.58149  0.4529499999999999  0.83998  1.0000
  C   C24       1.0  0.63916  0.13667000000000004  0.9912899999999999  1.0000
  C   C25       1.0  0.8711199999999999  0.8785700000000001  0.78349  1.0000
  C   C26       1.0  0.029439999999999963  0.9824800000000001  0.8442000000000002  1.0000
  C   C27       1.0  0.58735  0.17842  0.06559  1.0000
  C   C28       1.0  0.20827  0.33719999999999994  0.93034  1.0000
  C   C29       1.0  0.13580000000000003  0.61971  0.62477  1.0000
  C   C30       1.0  0.06450000000000003  0.56255  0.55939  1.0000
  C   C31       1.0  0.08597999999999999  0.47287  0.42901  1.0000
  C   C32       1.0  0.15203000000000003  0.53627  0.48696000000000006  1.0000
  N   N1        1.0  0.50055  0.46743000000000007  0.22553  1.0000
  N   N2        1.0  0.12124000000000001  0.9237899999999999  0.15389  1.0000
  N   N3        1.0  0.016439999999999996  0.707  0.11328000000000003  1.0000
  N   N4        1.0  0.97107  0.13734  0.19293  1.0000
  N   N5        1.0  0.24682  0.78231  0.03629  1.0000
  N   N6        1.0  0.84419  0.55702  0.13781  1.0000
  N   N7        1.0  0.33339  0.7151200000000001  0.9158  1.0000
  N   N8        1.0  0.28987999999999997  0.65534  0.18084  1.0000
  N   N9        1.0  0.49946  0.53257  0.77447  1.0000
  N   N10       1.0  0.87876  0.07619999999999999  0.8461100000000001  1.0000
  N   N11       1.0  0.98357  0.2929900000000001  0.88672  1.0000
  N   N12       1.0  0.02893  0.86265  0.80707  1.0000
  N   N13       1.0  0.75319  0.21768999999999997  0.96372  1.0000
  N   N14       1.0  0.15581999999999996  0.4429699999999999  0.86219  1.0000
  N   N15       1.0  0.66662  0.28487999999999997  0.08420000000000002  1.0000
  N   N16       1.0  0.71013  0.3446600000000001  0.81916  1.0000
  O   O1        1.0  0.73126  0.34054  0.3878  1.0000
  O   O2        1.0  0.70247  0.42907999999999996  0.52749  1.0000
  O   O3        1.0  0.93755  0.37777999999999995  0.30651  1.0000
  O   O4        1.0  0.26875  0.65946  0.6122  1.0000
  O   O5        1.0  0.2975400000000001  0.57092  0.4725100000000001  1.0000
  O   O6        1.0  0.06246  0.62222  0.69349  1.0000
