data_image0
_chemical_formula_structural       Gd2H12C24O12
_chemical_formula_sum              "Gd2 H12 C24 O12"
_cell_length_a       9.2469
_cell_length_b       10.21794
_cell_length_c       11.63095
_cell_angle_alpha    75.78401
_cell_angle_beta     82.53017
_cell_angle_gamma    70.74799

_space_group_name_H-M_alt    "P 1"
_space_group_IT_number       1

loop_
  _space_group_symop_operation_xyz
  'x, y, z'

loop_
  _atom_site_type_symbol
  _atom_site_label
  _atom_site_symmetry_multiplicity
  _atom_site_fract_x
  _atom_site_fract_y
  _atom_site_fract_z
  _atom_site_occupancy
  Gd  Gd1       1.0  0.97467  0.18746999999999994  0.7854900000000001  1.0000
  Gd  Gd2       1.0  0.025330000000000057  0.8125299999999998  0.21452000000000002  1.0000
  H   H1        1.0  0.6698600000000001  0.8099399999999999  0.14571  1.0000
  H   H2        1.0  0.6122199999999999  0.13330000000000003  0.82244  1.0000
  H   H3        1.0  0.43368000000000007  0.41891  0.7143900000000001  1.0000
  H   H4        1.0  0.77033  0.4907  0.43465  1.0000
  H   H5        1.0  0.28918999999999995  0.8917  0.52598  1.0000
  H   H6        1.0  0.46526000000000006  0.20591  0.5902  1.0000
  H   H7        1.0  0.33014000000000004  0.19005999999999992  0.8543000000000001  1.0000
  H   H8        1.0  0.38778  0.86671  0.17756  1.0000
  H   H9        1.0  0.56631  0.5811  0.28561  1.0000
  H   H10       1.0  0.22967000000000007  0.50931  0.56535  1.0000
  H   H11       1.0  0.71081  0.10829999999999998  0.47402000000000005  1.0000
  H   H12       1.0  0.53474  0.7940899999999999  0.4098  1.0000
  C   C1        1.0  0.65982  0.9665899999999998  0.98132  1.0000
  C   C2        1.0  0.5953600000000001  0.8924799999999999  0.08186  1.0000
  C   C3        1.0  0.56312  0.07413999999999997  0.89929  1.0000
  C   C4        1.0  0.82965  0.9349899999999999  0.9637100000000001  1.0000
  C   C5        1.0  0.61302  0.4495800000000001  0.58232  1.0000
  C   C6        1.0  0.4610299999999999  0.4551000000000001  0.62058  1.0000
  C   C7        1.0  0.65202  0.49477  0.46167  1.0000
  C   C8        1.0  0.7365699999999998  0.38726999999999995  0.66787  1.0000
  C   C9        1.0  0.3644  0.05409  0.56445  1.0000
  C   C10       1.0  0.3819699999999999  0.9380200000000001  0.51374  1.0000
  C   C11       1.0  0.4824899999999999  0.11572  0.5506  1.0000
  C   C12       1.0  0.22204  0.11021999999999998  0.63577  1.0000
  C   C13       1.0  0.34018  0.03341  0.01868  1.0000
  C   C14       1.0  0.40464000000000006  0.10752999999999996  0.91814  1.0000
  C   C15       1.0  0.43688  0.92586  0.10071  1.0000
  C   C16       1.0  0.17035  0.06502  0.0363  1.0000
  C   C17       1.0  0.38698000000000005  0.55042  0.41768000000000005  1.0000
  C   C18       1.0  0.53897  0.5449099999999999  0.37942  1.0000
  C   C19       1.0  0.34798  0.5052399999999999  0.53833  1.0000
  C   C20       1.0  0.26343  0.61273  0.33213  1.0000
  C   C21       1.0  0.6355999999999999  0.9459199999999999  0.43555  1.0000
  C   C22       1.0  0.6180199999999999  0.06198  0.48627  1.0000
  C   C23       1.0  0.5175099999999998  0.88429  0.4494  1.0000
  C   C24       1.0  0.7779599999999999  0.88979  0.36423000000000005  1.0000
  O   O1        1.0  0.8859199999999999  0.00020999999999999098  0.87016  1.0000
  O   O2        1.0  0.9149300000000001  0.84291  0.04426  1.0000
  O   O3        1.0  0.87367  0.38879  0.63342  1.0000
  O   O4        1.0  0.7090000000000001  0.32178999999999996  0.77418  1.0000
  O   O5        1.0  0.20742000000000002  0.21397999999999998  0.68496  1.0000
  O   O6        1.0  0.11447000000000002  0.05168999999999996  0.6512900000000001  1.0000
  O   O7        1.0  0.11408000000000004  0.9997999999999999  0.12984  1.0000
  O   O8        1.0  0.08506999999999999  0.15708999999999995  0.9557400000000001  1.0000
  O   O9        1.0  0.12633  0.61122  0.36658  1.0000
  O   O10       1.0  0.29099  0.67822  0.22582  1.0000
  O   O11       1.0  0.79258  0.7860200000000002  0.31504  1.0000
  O   O12       1.0  0.8855299999999999  0.94831  0.34871  1.0000
