data_image0
_chemical_formula_structural       Cd3H20C36O20
_chemical_formula_sum              "Cd3 H20 C36 O20"
_cell_length_a       10.00383
_cell_length_b       10.5766
_cell_length_c       14.85528
_cell_angle_alpha    106.79291000000002
_cell_angle_beta     109.14058
_cell_angle_gamma    90.82747

_symmetry_space_group_name_H-M    'P 1'
_symmetry_Int_Tables_number       1

loop_
  _symmetry_equiv_pos_as_xyz
  'x,y,z'

loop_
  _atom_site_type_symbol
  _atom_site_label
  _atom_site_symmetry_multiplicity
  _atom_site_fract_x
  _atom_site_fract_y
  _atom_site_fract_z
  _atom_site_occupancy
  Cd  Cd1       1.0  0.11232  0.30255  0.20563  1.0000
  Cd  Cd2       1.0  0.8876899999999998  0.6974399999999998  0.7943699999999999  1.0000
  Cd  Cd3       1.0  0.0  0.0  0.0  1.0000
  H   H1        1.0  0.58659  0.2564699999999999  0.17859  1.0000
  H   H2        1.0  0.6968599999999999  0.11543999999999995  0.9131599999999999  1.0000
  H   H3        1.0  0.25247  0.10133999999999999  0.89101  1.0000
  H   H4        1.0  0.0938  0.75452  0.1888  1.0000
  H   H5        1.0  0.29851999999999995  0.70803  0.47841  1.0000
  H   H6        1.0  0.58587  0.92825  0.78156  1.0000
  H   H7        1.0  0.57948  0.06921  0.7366  1.0000
  H   H8        1.0  0.27607  0.10306000000000001  0.44595  1.0000
  H   H9        1.0  0.50141  0.8303299999999998  0.6078599999999998  1.0000
  H   H10       1.0  0.34325  0.83441  0.63976  1.0000
  H   H11       1.0  0.41340999999999994  0.74352  0.8214  1.0000
  H   H12       1.0  0.30313999999999997  0.8845599999999998  0.08684  1.0000
  H   H13       1.0  0.74753  0.89866  0.10897999999999998  1.0000
  H   H14       1.0  0.9062  0.2454799999999999  0.8112  1.0000
  H   H15       1.0  0.7014799999999998  0.29197  0.52158  1.0000
  H   H16       1.0  0.41412999999999994  0.07174  0.21843  1.0000
  H   H17       1.0  0.42051999999999995  0.93078  0.2634  1.0000
  H   H18       1.0  0.72393  0.89693  0.55404  1.0000
  H   H19       1.0  0.49859  0.16966999999999996  0.39213999999999993  1.0000
  H   H20       1.0  0.65676  0.16558999999999996  0.36024  1.0000
  C   C1        1.0  0.80969  0.22885  0.11637999999999997  1.0000
  C   C2        1.0  0.4067  0.18188999999999997  0.03982  1.0000
  C   C3        1.0  0.55228  0.21200999999999998  0.09771  1.0000
  C   C4        1.0  0.6153  0.13243999999999997  0.94758  1.0000
  C   C5        1.0  0.6558999999999998  0.18801999999999996  0.05137  1.0000
  C   C6        1.0  0.36496999999999996  0.12596999999999994  0.93637  1.0000
  C   C7        1.0  0.16291999999999998  0.5704699999999999  0.28689  1.0000
  C   C8        1.0  0.46886999999999995  0.09900999999999999  0.89013  1.0000
  C   C9        1.0  0.1404  0.024660000000000005  0.24329  1.0000
  C   C10       1.0  0.29471  0.20922999999999997  0.08758  1.0000
  C   C11       1.0  0.15041999999999997  0.7992199999999999  0.26876  1.0000
  C   C12       1.0  0.19287999999999994  0.7182899999999999  0.33053999999999994  1.0000
  C   C13       1.0  0.26725999999999994  0.77429  0.43324  1.0000
  C   C14       1.0  0.18094999999999994  0.9382899999999998  0.3107  1.0000
  C   C15       1.0  0.5152999999999999  0.9867899999999997  0.74011  1.0000
  C   C16       1.0  0.25316999999999995  0.9955  0.41331  1.0000
  C   C17       1.0  0.29863999999999996  0.91314  0.47443  1.0000
  C   C18       1.0  0.43052  0.89586  0.6368899999999998  1.0000
  C   C19       1.0  0.19031  0.77114  0.8836199999999999  1.0000
  C   C20       1.0  0.5933099999999999  0.81811  0.96017  1.0000
  C   C21       1.0  0.44771999999999984  0.78798  0.9022899999999998  1.0000
  C   C22       1.0  0.3847  0.8675499999999999  0.05240999999999999  1.0000
  C   C23       1.0  0.34409999999999985  0.81197  0.94862  1.0000
  C   C24       1.0  0.6350299999999999  0.87402  0.06362  1.0000
  C   C25       1.0  0.8370799999999998  0.42952999999999997  0.7131099999999999  1.0000
  C   C26       1.0  0.53113  0.9009899999999998  0.10986  1.0000
  C   C27       1.0  0.8596099999999998  0.97534  0.7567099999999999  1.0000
  C   C28       1.0  0.7052999999999998  0.7907599999999999  0.91241  1.0000
  C   C29       1.0  0.8495799999999998  0.20076999999999995  0.7312299999999999  1.0000
  C   C30       1.0  0.80713  0.28169999999999995  0.66945  1.0000
  C   C31       1.0  0.73274  0.22569999999999996  0.56676  1.0000
  C   C32       1.0  0.8190599999999998  0.06170999999999999  0.6893  1.0000
  C   C33       1.0  0.4847  0.013210000000000006  0.25988  1.0000
  C   C34       1.0  0.74683  0.004500000000000015  0.58669  1.0000
  C   C35       1.0  0.7013699999999999  0.08686  0.52556  1.0000
  C   C36       1.0  0.56948  0.10412999999999994  0.3631099999999999  1.0000
  O   O1        1.0  0.90611  0.1869  0.07747  1.0000
  O   O2        1.0  0.4158399999999999  0.03843999999999996  0.7898399999999999  1.0000
  O   O3        1.0  0.84066  0.30495  0.20412  1.0000
  O   O4        1.0  0.19468999999999995  0.49905999999999995  0.34518  1.0000
  O   O5        1.0  0.33358999999999994  0.26724999999999993  0.18158  1.0000
  O   O6        1.0  0.1071  0.51834  0.19174  1.0000
  O   O7        1.0  0.16507  0.17413999999999996  0.02995  1.0000
  O   O8        1.0  0.10839000000000004  0.96449  0.14992  1.0000
  O   O9        1.0  0.3737599999999998  0.9769399999999999  0.57295  1.0000
  O   O10       1.0  0.14646  0.14847999999999997  0.28635  1.0000
  O   O11       1.0  0.09389000000000006  0.8130999999999999  0.92253  1.0000
  O   O12       1.0  0.58417  0.96155  0.21016  1.0000
  O   O13       1.0  0.15934  0.6950499999999998  0.79587  1.0000
  O   O14       1.0  0.8053099999999999  0.5009299999999999  0.65482  1.0000
  O   O15       1.0  0.66642  0.7327499999999999  0.81842  1.0000
  O   O16       1.0  0.8929099999999999  0.48165  0.80825  1.0000
  O   O17       1.0  0.83493  0.82586  0.97005  1.0000
  O   O18       1.0  0.8916199999999999  0.03550999999999999  0.85007  1.0000
  O   O19       1.0  0.6262499999999998  0.023049999999999987  0.4270399999999999  1.0000
  O   O20       1.0  0.85355  0.85152  0.71365  1.0000
