data_image0
_chemical_formula_structural       Cr2H8C16O10
_chemical_formula_sum              "Cr2 H8 C16 O10"
_cell_length_a       6.89626
_cell_length_b       11.24546
_cell_length_c       11.24546
_cell_angle_alpha    74.85291
_cell_angle_beta     72.27056
_cell_angle_gamma    72.27056

_space_group_name_H-M_alt    "P 1"
_space_group_IT_number       1

loop_
  _space_group_symop_operation_xyz
  'x, y, z'

loop_
  _atom_site_type_symbol
  _atom_site_label
  _atom_site_symmetry_multiplicity
  _atom_site_fract_x
  _atom_site_fract_y
  _atom_site_fract_z
  _atom_site_occupancy
  Cr  Cr1       1.0  0.9871100000000004  0.9990500000000001  0.50104  1.0000
  Cr  Cr2       1.0  0.5129000000000001  0.99896  0.50095  1.0000
  H   H1        1.0  0.3704700000000001  0.9969399999999999  0.8833299999999998  1.0000
  H   H2        1.0  0.12954  0.61667  0.5030699999999999  1.0000
  H   H3        1.0  0.24983000000000002  0.38291  0.49689999999999995  1.0000
  H   H4        1.0  0.25018  0.0031100000000000047  0.11708999999999999  1.0000
  H   H5        1.0  0.63  0.0029300000000000086  0.11611999999999997  1.0000
  H   H6        1.0  0.87001  0.38388  0.49706999999999996  1.0000
  H   H7        1.0  0.7499700000000005  0.61765  0.5032299999999998  1.0000
  H   H8        1.0  0.7500500000000001  0.9967699999999999  0.88235  1.0000
  C   C1        1.0  0.20947000000000005  0.99831  0.93533  1.0000
  C   C2        1.0  0.2905500000000001  0.56467  0.5016999999999999  1.0000
  C   C3        1.0  0.35698000000000024  0.43543  0.4983499999999999  1.0000
  C   C4        1.0  0.14302  0.0016499999999999998  0.06457  1.0000
  C   C5        1.0  0.79093  0.0015500000000000004  0.06399  1.0000
  C   C6        1.0  0.7090799999999999  0.43600999999999995  0.49845  1.0000
  C   C7        1.0  0.6426  0.56525  0.50179  1.0000
  C   C8        1.0  0.8574100000000001  0.99821  0.9347599999999999  1.0000
  C   C9        1.0  0.06688000000000001  0.9966900000000001  0.8699199999999998  1.0000
  C   C10       1.0  0.13793  0.99388  0.73031  1.0000
  C   C11       1.0  0.43313000000000007  0.63009  0.50331  1.0000
  C   C12       1.0  0.3620800000000001  0.7696999999999999  0.50612  1.0000
  C   C13       1.0  0.5665600000000002  0.37070999999999993  0.49650999999999995  1.0000
  C   C14       1.0  0.6375600000000002  0.23185000000000006  0.49313999999999997  1.0000
  C   C15       1.0  0.9334500000000002  0.0034900000000000044  0.12928999999999996  1.0000
  C   C16       1.0  0.86246  0.006859999999999995  0.26815  1.0000
  O   O1        1.0  0.9971000000000001  0.99491  0.6779299999999999  1.0000
  O   O2        1.0  0.5029199999999999  0.82207  0.5051  1.0000
  O   O3        1.0  0.8314100000000001  0.17922999999999997  0.4890099999999999  1.0000
  O   O4        1.0  0.6686000000000002  0.010990000000000015  0.32076999999999994  1.0000
  O   O5        1.0  0.0024099999999999816  0.005699999999999998  0.32156  1.0000
  O   O6        1.0  0.49759999999999993  0.17844  0.4943  1.0000
  O   O7        1.0  0.1683800000000001  0.8214399999999998  0.51023  1.0000
  O   O8        1.0  0.33164000000000005  0.98977  0.67856  1.0000
  O   O9        1.0  0.25  0.050040000000000015  0.44997  1.0000
  O   O10       1.0  0.7500099999999998  0.94282  0.5571799999999999  1.0000
