data_image0
_chemical_formula_structural       Zn6H20C46O26
_chemical_formula_sum              "Zn6 H20 C46 O26"
_cell_length_a       11.98431
_cell_length_b       15.48733
_cell_length_c       16.47465
_cell_angle_alpha    90.0
_cell_angle_beta     90.0
_cell_angle_gamma    90.07507

_symmetry_space_group_name_H-M    'P 1'
_symmetry_Int_Tables_number       1

loop_
  _symmetry_equiv_pos_as_xyz
  'x,y,z'

loop_
  _atom_site_type_symbol
  _atom_site_label
  _atom_site_symmetry_multiplicity
  _atom_site_fract_x
  _atom_site_fract_y
  _atom_site_fract_z
  _atom_site_occupancy
  Zn  Zn1       1.0  0.6089100000000001  0.17102000000000006  0.10815000000000002  1.0000
  Zn  Zn2       1.0  0.38996000000000003  0.67248  0.39129  1.0000
  Zn  Zn3       1.0  0.38996000000000003  0.67248  0.60871  1.0000
  Zn  Zn4       1.0  0.6089100000000001  0.17102000000000006  0.89185  1.0000
  Zn  Zn5       1.0  0.39223  0.1491  0.0  1.0000
  Zn  Zn6       1.0  0.60702  0.65099  0.5  1.0000
  H   H1        1.0  0.4676100000000001  0.38586  0.23186  1.0000
  H   H2        1.0  0.16657  0.53747  0.2388  1.0000
  H   H3        1.0  0.17527000000000004  0.30204  0.09976  1.0000
  H   H4        1.0  0.8745900000000002  0.33642  0.1311  1.0000
  H   H5        1.0  0.5318900000000001  0.8875100000000002  0.26826  1.0000
  H   H6        1.0  0.8335800000000002  0.03876  0.26040000000000013  1.0000
  H   H7        1.0  0.8241900000000002  0.80389  0.40032  1.0000
  H   H8        1.0  0.12309000000000002  0.8368300000000002  0.36884  1.0000
  H   H9        1.0  0.5318900000000001  0.8875100000000002  0.73175  1.0000
  H   H10       1.0  0.8335800000000002  0.03876  0.7396000000000003  1.0000
  H   H11       1.0  0.8241900000000002  0.80389  0.59968  1.0000
  H   H12       1.0  0.12309000000000002  0.8368300000000002  0.63116  1.0000
  H   H13       1.0  0.4676100000000001  0.38586  0.76814  1.0000
  H   H14       1.0  0.16657  0.53747  0.7612  1.0000
  H   H15       1.0  0.17527000000000004  0.30204  0.90024  1.0000
  H   H16       1.0  0.8745900000000002  0.33642  0.8689  1.0000
  H   H17       1.0  0.55608  0.05048  0.0  1.0000
  H   H18       1.0  0.13086  0.47423  0.0  1.0000
  H   H19       1.0  0.44316  0.55272  0.5  1.0000
  H   H20       1.0  0.8694600000000002  0.97682  0.5  1.0000
  C   C1        1.0  0.32725000000000004  0.33603  0.1632  1.0000
  C   C2        1.0  0.38115000000000004  0.39555  0.21412000000000006  1.0000
  C   C3        1.0  0.32218  0.4677  0.24212  1.0000
  C   C4        1.0  0.21142  0.4808900000000001  0.21766  1.0000
  C   C5        1.0  0.1593  0.42174  0.16606  1.0000
  C   C6        1.0  0.21586000000000002  0.34865  0.13922  1.0000
  C   C7        1.0  0.38759000000000005  0.25989  0.13058000000000006  1.0000
  C   C8        1.0  0.3762700000000001  0.53175  0.29855  1.0000
  C   C9        1.0  0.0075200000000000015  0.40741  0.07291  1.0000
  C   C10       1.0  0.9117000000000002  0.35632  0.07392000000000003  1.0000
  C   C11       1.0  0.67226  0.83758  0.33684  1.0000
  C   C12       1.0  0.6184900000000001  0.89685  0.28584  1.0000
  C   C13       1.0  0.6775800000000002  0.96885  0.2577200000000001  1.0000
  C   C14       1.0  0.7884600000000002  0.98237  0.28196  1.0000
  C   C15       1.0  0.8404000000000001  0.92347  0.3337700000000001  1.0000
  C   C16       1.0  0.78369  0.85037  0.36076000000000014  1.0000
  C   C17       1.0  0.61176  0.76155  0.36952  1.0000
  C   C18       1.0  0.6234600000000001  0.032590000000000015  0.20143000000000005  1.0000
  C   C19       1.0  0.9917000000000001  0.90908  0.4270700000000001  1.0000
  C   C20       1.0  0.08632  0.85686  0.4260800000000001  1.0000
  C   C21       1.0  0.67226  0.83758  0.66317  1.0000
  C   C22       1.0  0.6184900000000001  0.89685  0.71416  1.0000
  C   C23       1.0  0.6775800000000002  0.96885  0.7422800000000003  1.0000
  C   C24       1.0  0.7884600000000002  0.98237  0.71805  1.0000
  C   C25       1.0  0.8404000000000001  0.92347  0.6662300000000002  1.0000
  C   C26       1.0  0.78369  0.85037  0.63924  1.0000
  C   C27       1.0  0.61176  0.76155  0.63048  1.0000
  C   C28       1.0  0.6234600000000001  0.032590000000000015  0.79858  1.0000
  C   C29       1.0  0.9917000000000001  0.90908  0.5729400000000002  1.0000
  C   C30       1.0  0.08632  0.85686  0.57393  1.0000
  C   C31       1.0  0.32725000000000004  0.33603  0.8368  1.0000
  C   C32       1.0  0.38115000000000004  0.39555  0.7858900000000002  1.0000
  C   C33       1.0  0.32218  0.4677  0.75788  1.0000
  C   C34       1.0  0.21142  0.4808900000000001  0.78235  1.0000
  C   C35       1.0  0.1593  0.42174  0.8339500000000002  1.0000
  C   C36       1.0  0.21586000000000002  0.34865  0.8607800000000002  1.0000
  C   C37       1.0  0.38759000000000005  0.25989  0.8694200000000002  1.0000
  C   C38       1.0  0.3762700000000001  0.53175  0.7014500000000001  1.0000
  C   C39       1.0  0.0075200000000000015  0.40741  0.92709  1.0000
  C   C40       1.0  0.9117000000000002  0.35632  0.9260800000000002  1.0000
  C   C41       1.0  0.05686000000000001  0.43351  0.0  1.0000
  C   C42       1.0  0.8637300000000002  0.33096  0.0  1.0000
  C   C43       1.0  0.7624800000000002  0.27397  0.0  1.0000
  C   C44       1.0  0.9429600000000001  0.9357200000000001  0.5  1.0000
  C   C45       1.0  0.13366  0.83079  0.5  1.0000
  C   C46       1.0  0.23378  0.77269  0.5  1.0000
  O   O1        1.0  0.3273800000000001  0.20337000000000005  0.09203  1.0000
  O   O2        1.0  0.49283000000000005  0.25574  0.13907  1.0000
  O   O3        1.0  0.47431  0.52318  0.32242  1.0000
  O   O4        1.0  0.31111000000000005  0.59578  0.3204100000000001  1.0000
  O   O5        1.0  0.048490000000000005  0.43741  0.14693  1.0000
  O   O6        1.0  0.72378  0.25186  0.06903  1.0000
  O   O7        1.0  0.6721000000000003  0.7053  0.40809  1.0000
  O   O8        1.0  0.5064  0.7575100000000002  0.3611200000000001  1.0000
  O   O9        1.0  0.5251300000000001  0.0247  0.17766  1.0000
  O   O10       1.0  0.6893200000000002  0.09599  0.17926  1.0000
  O   O11       1.0  0.9511500000000002  0.93945  0.35304  1.0000
  O   O12       1.0  0.27192000000000005  0.75013  0.43095  1.0000
  O   O13       1.0  0.6721000000000003  0.7053  0.59191  1.0000
  O   O14       1.0  0.5064  0.7575100000000002  0.63888  1.0000
  O   O15       1.0  0.5251300000000001  0.0247  0.82235  1.0000
  O   O16       1.0  0.6893200000000002  0.09599  0.82074  1.0000
  O   O17       1.0  0.9511500000000002  0.93945  0.64696  1.0000
  O   O18       1.0  0.27192000000000005  0.75013  0.56905  1.0000
  O   O19       1.0  0.3273800000000001  0.20337000000000005  0.90797  1.0000
  O   O20       1.0  0.49283000000000005  0.25574  0.86093  1.0000
  O   O21       1.0  0.47431  0.52318  0.67758  1.0000
  O   O22       1.0  0.31111000000000005  0.59578  0.67959  1.0000
  O   O23       1.0  0.048490000000000005  0.43741  0.8530700000000002  1.0000
  O   O24       1.0  0.72378  0.25186  0.9309800000000003  1.0000
  O   O25       1.0  0.5459200000000001  0.113  0.0  1.0000
  O   O26       1.0  0.453  0.6153  0.5  1.0000
