data_image0
_chemical_formula_structural       Co4H20C40N4O16
_chemical_formula_sum              "Co4 H20 C40 N4 O16"
_cell_length_a       10.23613
_cell_length_b       10.879490000000002
_cell_length_c       13.383050000000003
_cell_angle_alpha    89.82577
_cell_angle_beta     90.15117
_cell_angle_gamma    113.23813999999999

_symmetry_space_group_name_H-M    'P 1'
_symmetry_Int_Tables_number       1

loop_
  _symmetry_equiv_pos_as_xyz
  'x,y,z'

loop_
  _atom_site_type_symbol
  _atom_site_label
  _atom_site_symmetry_multiplicity
  _atom_site_fract_x
  _atom_site_fract_y
  _atom_site_fract_z
  _atom_site_occupancy
  Co  Co1       1.0  0.26258000000000004  0.5157300000000001  0.15637  1.0000
  Co  Co2       1.0  0.23748  0.98386  0.65422  1.0000
  Co  Co3       1.0  0.7374299999999999  0.48427  0.84363  1.0000
  Co  Co4       1.0  0.76252  0.01614  0.34578  1.0000
  H   H1        1.0  0.15083999999999995  0.7056  0.4090900000000001  1.0000
  H   H2        1.0  0.97261  0.32245000000000007  0.12984  1.0000
  H   H3        1.0  0.8447  0.09776000000000001  0.0592  1.0000
  H   H4        1.0  0.25385  0.08793  0.99203  1.0000
  H   H5        1.0  0.36497  0.31435  0.06141  1.0000
  H   H6        1.0  0.34596000000000005  0.7929500000000002  0.91252  1.0000
  H   H7        1.0  0.52672  0.17666  0.63035  1.0000
  H   H8        1.0  0.65518  0.40190000000000003  0.56012  1.0000
  H   H9        1.0  0.24636000000000005  0.4128200000000001  0.49153  1.0000
  H   H10       1.0  0.13468  0.18612  0.5611  1.0000
  H   H11       1.0  0.84916  0.2944  0.59091  1.0000
  H   H12       1.0  0.02738000000000007  0.6775500000000001  0.87016  1.0000
  H   H13       1.0  0.15529000000000004  0.90224  0.9408000000000002  1.0000
  H   H14       1.0  0.74615  0.91207  0.00797  1.0000
  H   H15       1.0  0.63503  0.6856500000000001  0.9385900000000001  1.0000
  H   H16       1.0  0.65404  0.20705  0.08748  1.0000
  H   H17       1.0  0.47328000000000003  0.8233400000000001  0.36965  1.0000
  H   H18       1.0  0.34482  0.59809  0.43988  1.0000
  H   H19       1.0  0.7536299999999999  0.58718  0.50847  1.0000
  H   H20       1.0  0.86532  0.81388  0.4389  1.0000
  C   C1        1.0  0.11831000000000004  0.48816  0.30507000000000006  1.0000
  C   C2        1.0  0.04745000000000002  0.49019000000000007  0.40246  1.0000
  C   C3        1.0  0.9616399999999999  0.37373  0.45483  1.0000
  C   C4        1.0  0.9061500000000002  0.2388  0.40786  1.0000
  C   C5        1.0  0.08355999999999995  0.61481  0.44811000000000006  1.0000
  C   C6        1.0  0.03054999999999998  0.26776  0.09681  1.0000
  C   C7        1.0  0.95978  0.14057000000000003  0.05762  1.0000
  C   C8        1.0  0.0365  0.06877  0.01976  1.0000
  C   C9        1.0  0.18573  0.13424  0.02163  1.0000
  C   C10       1.0  0.24968  0.26259  0.06028  1.0000
  C   C11       1.0  0.37883  0.010290000000000004  0.80497  1.0000
  C   C12       1.0  0.44972  0.00847  0.90275  1.0000
  C   C13       1.0  0.5374999999999999  0.12543  0.95341  1.0000
  C   C14       1.0  0.59244  0.25956  0.90463  1.0000
  C   C15       1.0  0.41435  0.88458  0.94988  1.0000
  C   C16       1.0  0.46909  0.23185  0.59715  1.0000
  C   C17       1.0  0.54009  0.35924  0.55812  1.0000
  C   C18       1.0  0.46346  0.43126  0.51985  1.0000
  C   C19       1.0  0.31423  0.36618  0.52147  1.0000
  C   C20       1.0  0.24999  0.23773  0.56015  1.0000
  C   C21       1.0  0.8817  0.51184  0.69493  1.0000
  C   C22       1.0  0.9525499999999999  0.50981  0.59754  1.0000
  C   C23       1.0  0.03836000000000005  0.6262700000000001  0.54517  1.0000
  C   C24       1.0  0.09384999999999999  0.7612  0.59214  1.0000
  C   C25       1.0  0.91644  0.38519  0.55189  1.0000
  C   C26       1.0  0.9694499999999999  0.73224  0.90319  1.0000
  C   C27       1.0  0.04021000000000008  0.8594300000000001  0.94239  1.0000
  C   C28       1.0  0.9635  0.9312300000000001  0.98024  1.0000
  C   C29       1.0  0.8142699999999999  0.86576  0.97837  1.0000
  C   C30       1.0  0.75032  0.73741  0.93972  1.0000
  C   C31       1.0  0.62117  0.98971  0.19503000000000004  1.0000
  C   C32       1.0  0.55028  0.9915300000000001  0.09725  1.0000
  C   C33       1.0  0.4625000000000001  0.8745700000000001  0.04659  1.0000
  C   C34       1.0  0.40758  0.74044  0.09537  1.0000
  C   C35       1.0  0.58565  0.11542  0.05012  1.0000
  C   C36       1.0  0.53091  0.76815  0.40285  1.0000
  C   C37       1.0  0.4598999999999999  0.64076  0.44188  1.0000
  C   C38       1.0  0.53654  0.56874  0.4801500000000001  1.0000
  C   C39       1.0  0.6857699999999999  0.63382  0.47853  1.0000
  C   C40       1.0  0.7500100000000001  0.7622600000000002  0.43986000000000003  1.0000
  N   N1        1.0  0.17405000000000004  0.32933000000000007  0.0984  1.0000
  N   N2        1.0  0.32558  0.17066  0.59837  1.0000
  N   N3        1.0  0.82595  0.67066  0.9016  1.0000
  N   N4        1.0  0.67441  0.8293400000000001  0.40163  1.0000
  O   O1        1.0  0.21466000000000005  0.44083000000000006  0.30381  1.0000
  O   O2        1.0  0.09527999999999996  0.54483  0.22729  1.0000
  O   O3        1.0  0.90249  0.22477000000000003  0.31344000000000005  1.0000
  O   O4        1.0  0.85153  0.13442  0.46471  1.0000
  O   O5        1.0  0.28059  0.055170000000000004  0.80325  1.0000
  O   O6        1.0  0.40535000000000004  0.9567000000000001  0.72711  1.0000
  O   O7        1.0  0.5952  0.27241  0.81027  1.0000
  O   O8        1.0  0.64773  0.36464  0.96053  1.0000
  O   O9        1.0  0.78534  0.55917  0.6962  1.0000
  O   O10       1.0  0.9047399999999999  0.45517  0.77271  1.0000
  O   O11       1.0  0.09750999999999999  0.77523  0.68656  1.0000
  O   O12       1.0  0.14847000000000002  0.8655800000000001  0.5353  1.0000
  O   O13       1.0  0.71941  0.94484  0.19675000000000004  1.0000
  O   O14       1.0  0.59465  0.04329  0.2729  1.0000
  O   O15       1.0  0.40486999999999995  0.7275900000000001  0.18973000000000007  1.0000
  O   O16       1.0  0.35226  0.63536  0.039470000000000005  1.0000
