data_image0
_chemical_formula_structural       Mn2H20C30N2O12
_chemical_formula_sum              "Mn2 H20 C30 N2 O12"
_cell_length_a       9.46196
_cell_length_b       9.66364
_cell_length_c       12.712230000000002
_cell_angle_alpha    87.25389999999999
_cell_angle_beta     84.35297000000001
_cell_angle_gamma    60.53873

_symmetry_space_group_name_H-M    'P 1'
_symmetry_Int_Tables_number       1

loop_
  _symmetry_equiv_pos_as_xyz
  'x,y,z'

loop_
  _atom_site_type_symbol
  _atom_site_label
  _atom_site_symmetry_multiplicity
  _atom_site_fract_x
  _atom_site_fract_y
  _atom_site_fract_z
  _atom_site_occupancy
  Mn  Mn1       1.0  0.6530299999999998  0.69302  0.99851  1.0000
  Mn  Mn2       1.0  0.34585  0.30896  0.00153  1.0000
  H   H1        1.0  0.41869000000000006  0.25768  0.42596  1.0000
  H   H2        1.0  0.553  0.2457  0.24664  1.0000
  H   H3        1.0  0.07204000000000003  0.74248  0.1416  1.0000
  H   H4        1.0  0.33407  0.74545  0.13562  1.0000
  H   H5        1.0  0.67807  0.10432  0.09746  1.0000
  H   H6        1.0  0.32332000000000005  0.25792  0.57454  1.0000
  H   H7        1.0  0.20096999999999995  0.24613999999999997  0.7539  1.0000
  H   H8        1.0  0.1869299999999999  0.74385  0.8580100000000002  1.0000
  H   H9        1.0  0.9225499999999998  0.74574  0.86352  1.0000
  H   H10       1.0  0.21712000000000006  0.10505999999999997  0.90267  1.0000
  H   H11       1.0  0.5794900000000001  0.7409299999999998  0.57292  1.0000
  H   H12       1.0  0.4459800000000001  0.75237  0.75238  1.0000
  H   H13       1.0  0.9292700000000002  0.2573  0.85793  1.0000
  H   H14       1.0  0.66669  0.25532  0.86399  1.0000
  H   H15       1.0  0.3221900000000001  0.89351  0.9024900000000001  1.0000
  H   H16       1.0  0.67955  0.74069  0.42665  1.0000
  H   H17       1.0  0.8018  0.7519199999999998  0.2472  1.0000
  H   H18       1.0  0.81236  0.25605  0.14245  1.0000
  H   H19       1.0  0.07624000000000006  0.2549599999999999  0.13663  1.0000
  H   H20       1.0  0.78499  0.89273  0.09756  1.0000
  C   C1        1.0  0.50484  0.14195  0.39221  1.0000
  C   C2        1.0  0.5785  0.13932999999999995  0.29284  1.0000
  C   C3        1.0  0.07182000000000001  0.85534  0.14109  1.0000
  C   C4        1.0  0.2190900000000001  0.85609  0.13665  1.0000
  C   C5        1.0  0.46442000000000033  0.53538  0.94695  1.0000
  C   C6        1.0  0.35296  0.14223999999999995  0.60807  1.0000
  C   C7        1.0  0.28189  0.13979  0.70746  1.0000
  C   C8        1.0  0.07347  0.85642  0.8586  1.0000
  C   C9        1.0  0.92585  0.8566  0.86282  1.0000
  C   C10       1.0  0.9997900000000002  0.53639  0.05277  1.0000
  C   C11       1.0  0.4944099999999999  0.85653  0.6072  1.0000
  C   C12       1.0  0.42100000000000004  0.85887  0.7065  1.0000
  C   C13       1.0  0.92897  0.14467  0.85859  1.0000
  C   C14       1.0  0.78146  0.14454  0.86304  1.0000
  C   C15       1.0  0.53552  0.4651199999999999  0.05308  1.0000
  C   C16       1.0  0.6490400000000001  0.85624  0.3926  1.0000
  C   C17       1.0  0.7203  0.85842  0.29333  1.0000
  C   C18       1.0  0.92598  0.14357  0.14164  1.0000
  C   C19       1.0  0.07326999999999999  0.14397  0.13731  1.0000
  C   C20       1.0  0.9997  0.4646999999999999  0.94714  1.0000
  C   C21       1.0  0.5381300000000001  0.9993899999999999  0.44735  1.0000
  C   C22       1.0  0.76568  0.9986999999999999  0.1377  1.0000
  C   C23       1.0  0.9244599999999998  0.99921  0.14139  1.0000
  C   C24       1.0  0.22142  0.0004  0.13212  1.0000
  C   C25       1.0  0.37840000000000007  0.002439999999999999  0.11481000000000001  1.0000
  C   C26       1.0  0.46225999999999995  0.99955  0.5527  1.0000
  C   C27       1.0  0.23526000000000002  0.99958  0.86237  1.0000
  C   C28       1.0  0.07579  0.0004499999999999999  0.85862  1.0000
  C   C29       1.0  0.7782299999999999  0.00067  0.86777  1.0000
  C   C30       1.0  0.62011  0.00087  0.88516  1.0000
  N   N1        1.0  0.68661  0.9986999999999999  0.24452  1.0000
  N   N2        1.0  0.3144300000000001  0.9992699999999999  0.7555500000000002  1.0000
  O   O1        1.0  0.51215  0.8702799999999999  0.10602  1.0000
  O   O2        1.0  0.4981500000000002  0.6385099999999998  0.90482  1.0000
  O   O3        1.0  0.37809  0.48524000000000006  0.90977  1.0000
  O   O4        1.0  0.62129  0.86761  0.88931  1.0000
  O   O5        1.0  0.8626700000000002  0.64006  0.09462  1.0000
  O   O6        1.0  0.13649  0.48641  0.09006  1.0000
  O   O7        1.0  0.48807  0.13494  0.89383  1.0000
  O   O8        1.0  0.5024100000000001  0.3615699999999999  0.09516  1.0000
  O   O9        1.0  0.62128  0.51599  0.09023  1.0000
  O   O10       1.0  0.37350999999999995  0.13772  0.11083  1.0000
  O   O11       1.0  0.13676000000000005  0.36057  0.90543  1.0000
  O   O12       1.0  0.8629599999999997  0.51479  0.90994  1.0000
