data_image0
_chemical_formula_structural       Tb4H12C36N4O28
_chemical_formula_sum              "Tb4 H12 C36 N4 O28"
_cell_length_a       12.83906
_cell_length_b       12.8695
_cell_length_c       14.800119999999998
_cell_angle_alpha    87.79039000000002
_cell_angle_beta     87.72519999999999
_cell_angle_gamma    66.3798

_symmetry_space_group_name_H-M    'P 1'
_symmetry_Int_Tables_number       1

loop_
  _symmetry_equiv_pos_as_xyz
  'x,y,z'

loop_
  _atom_site_type_symbol
  _atom_site_label
  _atom_site_symmetry_multiplicity
  _atom_site_fract_x
  _atom_site_fract_y
  _atom_site_fract_z
  _atom_site_occupancy
  Tb  Tb1       1.0  0.36706  0.98148  0.5084799999999999  1.0000
  Tb  Tb2       1.0  0.63669  0.02006000000000001  0.4909599999999999  1.0000
  Tb  Tb3       1.0  0.9791699999999999  0.36826  0.00664  1.0000
  Tb  Tb4       1.0  0.019069999999999955  0.6370000000000001  0.99316  1.0000
  H   H1        1.0  0.25391999999999987  0.19879000000000005  0.7725999999999997  1.0000
  H   H2        1.0  0.29722  0.51387  0.15825999999999996  1.0000
  H   H3        1.0  0.49434999999999996  0.28732  0.36832  1.0000
  H   H4        1.0  0.19659  0.25356  0.27174  1.0000
  H   H5        1.0  0.7476199999999997  0.8030100000000001  0.22815999999999995  1.0000
  H   H6        1.0  0.48697999999999997  0.7028900000000001  0.34235  1.0000
  H   H7        1.0  0.28704999999999997  0.49688000000000004  0.8677399999999997  1.0000
  H   H8        1.0  0.5134400000000001  0.29953  0.65689  1.0000
  H   H9        1.0  0.71332  0.50613  0.13147999999999996  1.0000
  H   H10       1.0  0.50601  0.71581  0.6297599999999998  1.0000
  H   H11       1.0  0.80441  0.7487100000000001  0.72614  1.0000
  H   H12       1.0  0.7015999999999999  0.49101  0.84149  1.0000
  C   C1        1.0  0.85753  0.5772  0.8554999999999998  1.0000
  C   C2        1.0  0.40604999999999997  0.4060900000000001  0.26166  1.0000
  C   C3        1.0  0.26180999999999993  0.34875  0.82721  1.0000
  C   C4        1.0  0.5583199999999999  0.68812  0.2952499999999999  1.0000
  C   C5        1.0  0.7388599999999997  0.6541  0.17246  1.0000
  C   C6        1.0  0.46405999999999986  0.48226000000000013  0.7542499999999998  1.0000
  C   C7        1.0  0.7462999999999999  0.7061500000000002  0.7293999999999998  1.0000
  C   C8        1.0  0.14089  0.42789000000000005  0.14419  1.0000
  C   C9        1.0  0.68746  0.56165  0.7940199999999997  1.0000
  C   C10       1.0  0.5774199999999998  0.68843  0.67498  1.0000
  C   C11       1.0  0.44247  0.31416  0.7043499999999998  1.0000
  C   C12       1.0  0.614  0.76204  0.29266  1.0000
  C   C13       1.0  0.4258799999999999  0.14487000000000003  0.64272  1.0000
  C   C14       1.0  0.4062399999999999  0.40831  0.76097  1.0000
  C   C15       1.0  0.7622599999999996  0.61642  0.7911  1.0000
  C   C16       1.0  0.23711000000000002  0.38757  0.2078  1.0000
  C   C17       1.0  0.6422199999999999  0.83409  0.60436  1.0000
  C   C18       1.0  0.6858  0.5775800000000001  0.17653999999999995  1.0000
  C   C19       1.0  0.25423999999999997  0.29668  0.2686399999999999  1.0000
  C   C20       1.0  0.5198599999999998  0.53961  0.74339  1.0000
  C   C21       1.0  0.59352  0.59781  0.7370599999999998  1.0000
  C   C22       1.0  0.2968199999999999  0.25658  0.7690499999999998  1.0000
  C   C23       1.0  0.42288  0.31486  0.32316  1.0000
  C   C24       1.0  0.8324999999999999  0.6414300000000001  0.10618999999999998  1.0000
  C   C25       1.0  0.16712999999999995  0.36316000000000004  0.8930799999999998  1.0000
  C   C26       1.0  0.34644  0.26164  0.3268199999999999  1.0000
  C   C27       1.0  0.53657  0.5205000000000001  0.24483999999999995  1.0000
  C   C28       1.0  0.47984000000000004  0.46409  0.2554599999999999  1.0000
  C   C29       1.0  0.3117199999999999  0.4426300000000001  0.20513  1.0000
  C   C30       1.0  0.65457  0.7409  0.6707499999999997  1.0000
  C   C31       1.0  0.5946999999999998  0.5941  0.23849999999999993  1.0000
  C   C32       1.0  0.31499  0.42517  0.82289  1.0000
  C   C33       1.0  0.3609699999999999  0.16703  0.3923799999999999  1.0000
  C   C34       1.0  0.57575  0.85678  0.3572299999999999  1.0000
  C   C35       1.0  0.3871899999999999  0.23983  0.7073899999999997  1.0000
  C   C36       1.0  0.70442  0.7455  0.23123999999999995  1.0000
  N   N1        1.0  0.1598199999999999  0.7558900000000001  0.9941699999999999  1.0000
  N   N2        1.0  0.84151  0.24667000000000006  0.005989999999999998  1.0000
  N   N3        1.0  0.2450099999999999  0.8440600000000003  0.5076099999999999  1.0000
  N   N4        1.0  0.74946  0.16616000000000003  0.49722  1.0000
  O   O1        1.0  0.9011199999999998  0.64619  0.87716  1.0000
  O   O2        1.0  0.13603000000000004  0.28178  0.9089299999999998  1.0000
  O   O3        1.0  0.20978999999999987  0.9441000000000002  0.4684699999999999  1.0000
  O   O4        1.0  0.9428199999999998  0.21071  0.9683799999999998  1.0000
  O   O5        1.0  0.35663  0.10037000000000004  0.6231  1.0000
  O   O6        1.0  0.72523  0.86236  0.5868  1.0000
  O   O7        1.0  0.77628  0.20105000000000003  0.9962199999999998  1.0000
  O   O8        1.0  0.7880699999999998  0.23682000000000006  0.5084  1.0000
  O   O9        1.0  0.22691999999999996  0.7992900000000001  0.00426  1.0000
  O   O10       1.0  0.64566  0.9000800000000002  0.3775399999999999  1.0000
  O   O11       1.0  0.11596999999999996  0.45832000000000006  0.9342099999999998  1.0000
  O   O12       1.0  0.8835300000000003  0.54733  0.06367999999999997  1.0000
  O   O13       1.0  0.11058999999999998  0.52959  0.11298999999999998  1.0000
  O   O14       1.0  0.05827000000000003  0.79361  0.03169  1.0000
  O   O15       1.0  0.5466299999999998  0.8878000000000001  0.5641599999999998  1.0000
  O   O16       1.0  0.4567199999999999  0.11561000000000007  0.43253999999999987  1.0000
  O   O17       1.0  0.4744999999999997  0.8880200000000003  0.3900299999999999  1.0000
  O   O18       1.0  0.09556999999999999  0.35996  0.12319999999999998  1.0000
  O   O19       1.0  0.8153399999999998  0.33761  0.05422999999999999  1.0000
  O   O20       1.0  0.33316  0.82046  0.5588699999999998  1.0000
  O   O21       1.0  0.27958999999999995  0.13604  0.409  1.0000
  O   O22       1.0  0.20134999999999997  0.77744  0.4965999999999999  1.0000
  O   O23       1.0  0.6623799999999999  0.18531  0.4454  1.0000
  O   O24       1.0  0.52678  0.11474  0.6092799999999998  1.0000
  O   O25       1.0  0.18436999999999995  0.6657500000000001  0.9454999999999998  1.0000
  O   O26       1.0  0.86306  0.7233  0.09114999999999997  1.0000
  O   O27       1.0  0.8888499999999999  0.47541000000000005  0.8866399999999998  1.0000
  O   O28       1.0  0.7885899999999998  0.06621  0.5361  1.0000
