data_image0
_chemical_formula_structural       Ca3H18C32O14
_chemical_formula_sum              "Ca3 H18 C32 O14"
_cell_length_a       8.59357
_cell_length_b       10.07056
_cell_length_c       9.746520000000002
_cell_angle_alpha    69.4313
_cell_angle_beta     90.84263999999999
_cell_angle_gamma    85.22867

_symmetry_space_group_name_H-M    'P 1'
_symmetry_Int_Tables_number       1

loop_
  _symmetry_equiv_pos_as_xyz
  'x,y,z'

loop_
  _atom_site_type_symbol
  _atom_site_label
  _atom_site_symmetry_multiplicity
  _atom_site_fract_x
  _atom_site_fract_y
  _atom_site_fract_z
  _atom_site_occupancy
  Ca  Ca1       1.0  0.50489  0.8861499999999999  0.8744  1.0000
  Ca  Ca2       1.0  0.49510000000000004  0.11386  0.12559  1.0000
  Ca  Ca3       1.0  0.5  0.0  0.49998  1.0000
  H   H1        1.0  0.26499  0.7517099999999999  0.4953000000000001  1.0000
  H   H2        1.0  0.27466  0.32348  0.4920800000000001  1.0000
  H   H3        1.0  0.4891  0.40227  0.85736  1.0000
  H   H4        1.0  0.27174  0.47248  0.23658  1.0000
  H   H5        1.0  0.08597000000000002  0.44123  0.31302  1.0000
  H   H6        1.0  0.23340000000000005  0.53533  0.98254  1.0000
  H   H7        1.0  0.08933000000000003  0.6805199999999999  0.74433  1.0000
  H   H8        1.0  0.79109  0.8878  0.97162  1.0000
  H   H9        1.0  0.92533  0.73716  0.20876000000000006  1.0000
  H   H10       1.0  0.735  0.24829999999999994  0.50471  1.0000
  H   H11       1.0  0.72534  0.67652  0.50792  1.0000
  H   H12       1.0  0.5109  0.59773  0.14264000000000002  1.0000
  H   H13       1.0  0.7282499999999998  0.5275199999999999  0.76342  1.0000
  H   H14       1.0  0.91403  0.55877  0.68698  1.0000
  H   H15       1.0  0.76659  0.46468  0.01746  1.0000
  H   H16       1.0  0.9106600000000001  0.31948  0.25567  1.0000
  H   H17       1.0  0.20891  0.11220000000000001  0.02838  1.0000
  H   H18       1.0  0.07467  0.2628499999999999  0.7912500000000002  1.0000
  C   C1        1.0  0.42608999999999997  0.6900799999999999  0.75205  1.0000
  C   C2        1.0  0.38365  0.58679  0.68303  1.0000
  C   C3        1.0  0.30151  0.63864  0.54737  1.0000
  C   C4        1.0  0.26342  0.5459999999999999  0.47602  1.0000
  C   C5        1.0  0.30586  0.39954  0.5419700000000001  1.0000
  C   C6        1.0  0.38756  0.34812  0.67964  1.0000
  C   C7        1.0  0.42617  0.4402999999999999  0.7511500000000002  1.0000
  C   C8        1.0  0.43371  0.19305999999999998  0.74652  1.0000
  C   C9        1.0  0.16073  0.52519  0.25455  1.0000
  C   C10       1.0  0.08479  0.62326  0.11102  1.0000
  C   C11       1.0  0.13463999999999998  0.6114299999999999  0.9793900000000001  1.0000
  C   C12       1.0  0.05510000000000001  0.692  0.84674  1.0000
  C   C13       1.0  0.9247800000000002  0.78692  0.84229  1.0000
  C   C14       1.0  0.82774  0.8535799999999999  0.70106  1.0000
  C   C15       1.0  0.8830200000000001  0.8057899999999999  0.9736000000000001  1.0000
  C   C16       1.0  0.96062  0.72431  0.10703  1.0000
  C   C17       1.0  0.57391  0.30992  0.24796000000000004  1.0000
  C   C18       1.0  0.6163400000000001  0.41321  0.31697  1.0000
  C   C19       1.0  0.69849  0.3613600000000001  0.45263  1.0000
  C   C20       1.0  0.73658  0.45399999999999996  0.52398  1.0000
  C   C21       1.0  0.69414  0.60046  0.45803000000000005  1.0000
  C   C22       1.0  0.61244  0.6518899999999999  0.32037  1.0000
  C   C23       1.0  0.57382  0.5597  0.24885  1.0000
  C   C24       1.0  0.56628  0.8069399999999999  0.25347  1.0000
  C   C25       1.0  0.8392699999999998  0.47481000000000007  0.7454500000000001  1.0000
  C   C26       1.0  0.91521  0.37674  0.88898  1.0000
  C   C27       1.0  0.86535  0.38858  0.02061  1.0000
  C   C28       1.0  0.9448899999999999  0.30801  0.15327  1.0000
  C   C29       1.0  0.07521  0.21308  0.1577  1.0000
  C   C30       1.0  0.17222  0.14643  0.29899  1.0000
  C   C31       1.0  0.11697000000000002  0.19422  0.0264  1.0000
  C   C32       1.0  0.039380000000000005  0.27568999999999994  0.8929700000000002  1.0000
  O   O1        1.0  0.8692499999999999  0.8339100000000002  0.58772  1.0000
  O   O2        1.0  0.6937499999999999  0.92448  0.70843  1.0000
  O   O3        1.0  0.1879  0.6116800000000001  0.34225  1.0000
  O   O4        1.0  0.38327  0.8241600000000001  0.68238  1.0000
  O   O5        1.0  0.50083  0.64797  0.87534  1.0000
  O   O6        1.0  0.42071  0.11286000000000003  0.67162  1.0000
  O   O7        1.0  0.48476000000000014  0.13745999999999992  0.8819300000000001  1.0000
  O   O8        1.0  0.13071999999999998  0.16608000000000006  0.41225  1.0000
  O   O9        1.0  0.30625  0.07552999999999999  0.29158000000000006  1.0000
  O   O10       1.0  0.8121  0.38833  0.65775  1.0000
  O   O11       1.0  0.61673  0.17584  0.31762  1.0000
  O   O12       1.0  0.49916000000000005  0.35203  0.12466000000000002  1.0000
  O   O13       1.0  0.57929  0.8871499999999999  0.32838  1.0000
  O   O14       1.0  0.51523  0.8625399999999999  0.11808  1.0000
