data_image0
_chemical_formula_structural       Ni4H20C20N8O8
_chemical_formula_sum              "Ni4 H20 C20 N8 O8"
_cell_length_a       6.42181
_cell_length_b       6.97987
_cell_length_c       17.13343
_cell_angle_alpha    101.59847
_cell_angle_beta     89.95967999999999
_cell_angle_gamma    89.96622

_symmetry_space_group_name_H-M    'P 1'
_symmetry_Int_Tables_number       1

loop_
  _symmetry_equiv_pos_as_xyz
  'x,y,z'

loop_
  _atom_site_type_symbol
  _atom_site_label
  _atom_site_symmetry_multiplicity
  _atom_site_fract_x
  _atom_site_fract_y
  _atom_site_fract_z
  _atom_site_occupancy
  Ni  Ni1       1.0  0.71266  0.65228  0.36114  1.0000
  Ni  Ni2       1.0  0.21268000000000004  0.34755  0.13883  1.0000
  Ni  Ni3       1.0  0.28721  0.34771  0.63887  1.0000
  Ni  Ni4       1.0  0.78733  0.65248  0.86116  1.0000
  H   H1        1.0  0.91941  0.84801  0.52225  1.0000
  H   H2        1.0  0.9347200000000002  0.30154  0.36879  1.0000
  H   H3        1.0  0.63401  0.08460000000000002  0.37842000000000003  1.0000
  H   H4        1.0  0.4788600000000001  0.65656  0.50945  1.0000
  H   H5        1.0  0.7689500000000002  0.73162  0.20157000000000003  1.0000
  H   H6        1.0  0.41992  0.15199000000000001  0.9772  1.0000
  H   H7        1.0  0.43425000000000014  0.69715  0.13139  1.0000
  H   H8        1.0  0.1339  0.91528  0.12149  1.0000
  H   H9        1.0  0.9793300000000003  0.34351000000000004  0.9904600000000001  1.0000
  H   H10       1.0  0.26887000000000005  0.2684900000000001  0.29832  1.0000
  H   H11       1.0  0.08058  0.15199000000000001  0.47769000000000006  1.0000
  H   H12       1.0  0.06533  0.69845  0.63114  1.0000
  H   H13       1.0  0.36594  0.9154799999999998  0.6216  1.0000
  H   H14       1.0  0.52102  0.34358  0.49054  1.0000
  H   H15       1.0  0.23105000000000006  0.26851  0.7984  1.0000
  H   H16       1.0  0.5800100000000001  0.84794  0.022770000000000002  1.0000
  H   H17       1.0  0.56571  0.3027600000000001  0.86857  1.0000
  H   H18       1.0  0.86598  0.08469999999999998  0.87852  1.0000
  H   H19       1.0  0.02052  0.65646  0.00956  1.0000
  H   H20       1.0  0.7306200000000003  0.73159  0.70145  1.0000
  C   C1        1.0  0.95696  0.69256  0.51189  1.0000
  C   C2        1.0  0.96494  0.38958  0.4276  1.0000
  C   C3        1.0  0.5755700000000001  0.046470000000000004  0.43285  1.0000
  C   C4        1.0  0.4869500000000001  0.8097  0.50462  1.0000
  C   C5        1.0  0.87869  0.61105  0.20443  1.0000
  C   C6        1.0  0.4573800000000001  0.30739  0.9878199999999999  1.0000
  C   C7        1.0  0.4649  0.60972  0.07247  1.0000
  C   C8        1.0  0.07555  0.95344  0.06708  1.0000
  C   C9        1.0  0.98734  0.19039999999999993  0.9953399999999999  1.0000
  C   C10       1.0  0.37914  0.38862  0.29556  1.0000
  C   C11       1.0  0.04293  0.3074200000000001  0.48806  1.0000
  C   C12       1.0  0.03496  0.61039  0.57234  1.0000
  C   C13       1.0  0.42437000000000014  0.95365  0.56717  1.0000
  C   C14       1.0  0.51298  0.19044  0.49538999999999994  1.0000
  C   C15       1.0  0.12130000000000003  0.38909  0.79559  1.0000
  C   C16       1.0  0.5426100000000001  0.69253  0.01215  1.0000
  C   C17       1.0  0.5351000000000001  0.3902  0.92749  1.0000
  C   C18       1.0  0.9243300000000001  0.04653999999999997  0.93292  1.0000
  C   C19       1.0  0.01254  0.8095700000000001  0.00467  1.0000
  C   C20       1.0  0.62061  0.61145  0.70443  1.0000
  N   N1        1.0  0.9203400000000002  0.58479  0.43733  1.0000
  N   N2        1.0  0.5657900000000001  0.8509200000000001  0.4356  1.0000
  N   N3        1.0  0.42068  0.41449  0.06254  1.0000
  N   N4        1.0  0.06614  0.14895  0.06429  1.0000
  N   N5        1.0  0.07946  0.41516  0.56263  1.0000
  N   N6        1.0  0.43414  0.14919  0.56441  1.0000
  N   N7        1.0  0.57935  0.58542  0.93743  1.0000
  N   N8        1.0  0.9337700000000002  0.85103  0.93572  1.0000
  O   O1        1.0  0.8753200000000001  0.53176  0.26513  1.0000
  O   O2        1.0  0.9995000000000002  0.5638  0.14514  1.0000
  O   O3        1.0  0.37516000000000005  0.46821  0.23497  1.0000
  O   O4        1.0  0.5003400000000001  0.4353000000000001  0.3547  1.0000
  O   O5        1.0  0.12467000000000003  0.46851  0.73492  1.0000
  O   O6        1.0  0.0005100000000000001  0.43619  0.8549  1.0000
  O   O7        1.0  0.62478  0.53193  0.7650300000000001  1.0000
  O   O8        1.0  0.4995500000000001  0.56461  0.64526  1.0000
