data_image0
_chemical_formula_structural       Cu2H16C28N16O12
_chemical_formula_sum              "Cu2 H16 C28 N16 O12"
_cell_length_a       9.48167
_cell_length_b       9.632079999999998
_cell_length_c       14.82619
_cell_angle_alpha    90.0
_cell_angle_beta     90.0
_cell_angle_gamma    110.18568

_symmetry_space_group_name_H-M    'P 1'
_symmetry_Int_Tables_number       1

loop_
  _symmetry_equiv_pos_as_xyz
  'x,y,z'

loop_
  _atom_site_type_symbol
  _atom_site_label
  _atom_site_symmetry_multiplicity
  _atom_site_fract_x
  _atom_site_fract_y
  _atom_site_fract_z
  _atom_site_occupancy
  Cu  Cu1       1.0  0.4999999999999999  2e-05  0.50001  1.0000
  Cu  Cu2       1.0  0.0  2e-05  0.99999  1.0000
  H   H1        1.0  0.7103099999999999  0.67975  0.79174  1.0000
  H   H2        1.0  0.49734  0.70414  0.60281  1.0000
  H   H3        1.0  0.7660799999999998  0.9987400000000001  0.79813  1.0000
  H   H4        1.0  0.7078000000000001  0.58645  0.11091  1.0000
  H   H5        1.0  0.7896999999999997  0.32026  0.29175  1.0000
  H   H6        1.0  0.002659999999999999  0.29589  0.10281  1.0000
  H   H7        1.0  0.7339299999999999  0.00127  0.29813  1.0000
  H   H8        1.0  0.79221  0.41357  0.61092  1.0000
  H   H9        1.0  0.2896899999999999  0.32026  0.20825000000000002  1.0000
  H   H10       1.0  0.50266  0.29589  0.39719  1.0000
  H   H11       1.0  0.23392999999999997  0.00127  0.20187000000000002  1.0000
  H   H12       1.0  0.29221  0.41357  0.88909  1.0000
  H   H13       1.0  0.21031  0.67975  0.70826  1.0000
  H   H14       1.0  0.9973399999999999  0.7041500000000002  0.89719  1.0000
  H   H15       1.0  0.26608000000000004  0.9987400000000001  0.70187  1.0000
  H   H16       1.0  0.20779999999999998  0.58645  0.38909  1.0000
  C   C1        1.0  0.56396  0.80487  0.63658  1.0000
  C   C2        1.0  0.70477  0.96049  0.73602  1.0000
  C   C3        1.0  0.49543  0.66933  0.83871  1.0000
  C   C4        1.0  0.5042999999999999  0.58372  0.92163  1.0000
  C   C5        1.0  0.62216  0.63211  0.98504  1.0000
  C   C6        1.0  0.61643  0.54711  0.06245  1.0000
  C   C7        1.0  0.74971  0.77676  0.97508  1.0000
  C   C8        1.0  0.9360399999999999  0.19516  0.13657  1.0000
  C   C9        1.0  0.79524  0.03953  0.23601  1.0000
  C   C10       1.0  0.004580000000000022  0.33070000000000005  0.33871  1.0000
  C   C11       1.0  0.99571  0.41631  0.42163  1.0000
  C   C12       1.0  0.8778499999999998  0.36792  0.48504  1.0000
  C   C13       1.0  0.8835799999999999  0.45291000000000003  0.56246  1.0000
  C   C14       1.0  0.7502899999999999  0.22327999999999998  0.47508  1.0000
  C   C15       1.0  0.4360399999999999  0.19516  0.36343  1.0000
  C   C16       1.0  0.29523999999999995  0.03953  0.26399  1.0000
  C   C17       1.0  0.50458  0.33070000000000005  0.16129  1.0000
  C   C18       1.0  0.49570999999999993  0.41631  0.07837  1.0000
  C   C19       1.0  0.37784999999999996  0.36792  0.01496  1.0000
  C   C20       1.0  0.38358000000000003  0.45291000000000003  0.93754  1.0000
  C   C21       1.0  0.25029  0.22327999999999998  0.02492  1.0000
  C   C22       1.0  0.06395999999999999  0.80487  0.86342  1.0000
  C   C23       1.0  0.20476999999999995  0.96049  0.76398  1.0000
  C   C24       1.0  0.9954299999999999  0.66934  0.66129  1.0000
  C   C25       1.0  0.004300000000000046  0.5837300000000001  0.57837  1.0000
  C   C26       1.0  0.12215999999999992  0.63212  0.51496  1.0000
  C   C27       1.0  0.11642999999999994  0.54711  0.43755  1.0000
  C   C28       1.0  0.24970999999999996  0.77676  0.52492  1.0000
  N   N1        1.0  0.5943699999999998  0.94142  0.60674  1.0000
  N   N2        1.0  0.6846799999999997  0.04031  0.66863  1.0000
  N   N3        1.0  0.6319299999999999  0.81218  0.71797  1.0000
  N   N4        1.0  0.6116799999999999  0.6944600000000001  0.77602  1.0000
  N   N5        1.0  0.90563  0.05861  0.10673  1.0000
  N   N6        1.0  0.81532  0.9597200000000001  0.16862  1.0000
  N   N7        1.0  0.8680799999999999  0.18784000000000006  0.21797  1.0000
  N   N8        1.0  0.8883299999999998  0.30556  0.27602  1.0000
  N   N9        1.0  0.4056299999999999  0.05861  0.39327  1.0000
  N   N10       1.0  0.31532  0.9597200000000001  0.33137999999999995  1.0000
  N   N11       1.0  0.36808  0.18784000000000006  0.28203  1.0000
  N   N12       1.0  0.38833  0.30556  0.22398  1.0000
  N   N13       1.0  0.09437000000000001  0.94142  0.89326  1.0000
  N   N14       1.0  0.18468  0.04031  0.83137  1.0000
  N   N15       1.0  0.13193  0.81218  0.78203  1.0000
  N   N16       1.0  0.11168  0.6944600000000001  0.72398  1.0000
  O   O1        1.0  0.38542  0.70518  0.82239  1.0000
  O   O2        1.0  0.73334  0.8781600000000003  0.9278  1.0000
  O   O3        1.0  0.8718  0.7862200000000003  0.01766  1.0000
  O   O4        1.0  0.11461  0.29488  0.32239  1.0000
  O   O5        1.0  0.76666  0.12189  0.42779  1.0000
  O   O6        1.0  0.6282  0.21382  0.51766  1.0000
  O   O7        1.0  0.6146  0.29488  0.17761  1.0000
  O   O8        1.0  0.26666  0.12189  0.07221000000000001  1.0000
  O   O9        1.0  0.12819999999999998  0.21382  0.98234  1.0000
  O   O10       1.0  0.88542  0.70518  0.67761  1.0000
  O   O11       1.0  0.23334000000000005  0.8781600000000003  0.5722  1.0000
  O   O12       1.0  0.3718  0.78621  0.48234  1.0000
