data_image0
_chemical_formula_structural       Mg2H8C16O16
_chemical_formula_sum              "Mg2 H8 C16 O16"
_cell_length_a       7.39377
_cell_length_b       10.534480000000002
_cell_length_c       10.520669999999999
_cell_angle_alpha    74.91349
_cell_angle_beta     75.93707
_cell_angle_gamma    75.98911

_symmetry_space_group_name_H-M    'P 1'
_symmetry_Int_Tables_number       1

loop_
  _symmetry_equiv_pos_as_xyz
  'x,y,z'

loop_
  _atom_site_type_symbol
  _atom_site_label
  _atom_site_symmetry_multiplicity
  _atom_site_fract_x
  _atom_site_fract_y
  _atom_site_fract_z
  _atom_site_occupancy
  Mg  Mg1       1.0  0.0  0.0  0.0  1.0000
  Mg  Mg2       1.0  0.4999999999999999  0.0  0.0  1.0000
  H   H1        1.0  0.9176299999999996  0.8813299999999998  0.35612  1.0000
  H   H2        1.0  0.39553999999999995  0.14972  0.20848  1.0000
  H   H3        1.0  0.58265  0.64621  0.11232  1.0000
  H   H4        1.0  0.10829000000000015  0.78912  0.8512199999999998  1.0000
  H   H5        1.0  0.08237000000000001  0.11868  0.64388  1.0000
  H   H6        1.0  0.6044599999999996  0.8502800000000001  0.79152  1.0000
  H   H7        1.0  0.4173499999999997  0.3538  0.88768  1.0000
  H   H8        1.0  0.8917099999999998  0.21089  0.14878  1.0000
  C   C1        1.0  0.59658  0.0018599999999999917  0.36518  1.0000
  C   C2        1.0  0.69134  0.9326400000000002  0.47401999999999994  1.0000
  C   C3        1.0  0.4054499999999998  0.07161999999999999  0.3921799999999999  1.0000
  C   C4        1.0  0.6946899999999998  0.9989200000000001  0.22674  1.0000
  C   C5        1.0  0.90476  0.6344500000000001  0.9957  1.0000
  C   C6        1.0  0.8073  0.52702  0.06606  1.0000
  C   C7        1.0  0.09707999999999997  0.60667  0.92774  1.0000
  C   C8        1.0  0.8093399999999998  0.77332  0.9946999999999999  1.0000
  C   C9        1.0  0.4034099999999999  0.9981400000000001  0.63482  1.0000
  C   C10       1.0  0.30865000000000004  0.06736999999999999  0.52598  1.0000
  C   C11       1.0  0.59454  0.9283800000000001  0.6078199999999999  1.0000
  C   C12       1.0  0.3052999999999999  0.0010799999999999987  0.77326  1.0000
  C   C13       1.0  0.09523999999999999  0.36556  0.004299999999999999  1.0000
  C   C14       1.0  0.19269999999999995  0.47299  0.93395  1.0000
  C   C15       1.0  0.9029099999999998  0.39333  0.07225999999999999  1.0000
  C   C16       1.0  0.19065999999999994  0.22668  0.0053  1.0000
  O   O1        1.0  0.8696  0.94058  0.20002999999999996  1.0000
  O   O2        1.0  0.6082199999999999  0.06133  0.12620999999999996  1.0000
  O   O3        1.0  0.8741499999999995  0.86763  0.45492  1.0000
  O   O4        1.0  0.30645999999999995  0.14472  0.29545  1.0000
  O   O5        1.0  0.6319899999999998  0.80084  0.04824999999999999  1.0000
  O   O6        1.0  0.8991699999999999  0.8723000000000001  0.93616  1.0000
  O   O7        1.0  0.6244199999999995  0.54754  0.13078  1.0000
  O   O8        1.0  0.19722  0.7025200000000001  0.8543999999999998  1.0000
  O   O9        1.0  0.13039999999999993  0.059430000000000004  0.79997  1.0000
  O   O10       1.0  0.39177999999999985  0.93868  0.8738  1.0000
  O   O11       1.0  0.12583999999999998  0.13238000000000003  0.54508  1.0000
  O   O12       1.0  0.69353  0.85528  0.7045499999999999  1.0000
  O   O13       1.0  0.36800999999999995  0.19916000000000006  0.9517499999999998  1.0000
  O   O14       1.0  0.10083  0.1277  0.06384  1.0000
  O   O15       1.0  0.37557000000000007  0.4524700000000001  0.8692199999999998  1.0000
  O   O16       1.0  0.80278  0.29748  0.1456  1.0000
