data_image0
_chemical_formula_structural       Cd2H16C28S6N12
_chemical_formula_sum              "Cd2 H16 C28 S6 N12"
_cell_length_a       7.98484
_cell_length_b       9.35817
_cell_length_c       14.43244
_cell_angle_alpha    109.53034
_cell_angle_beta     108.75445
_cell_angle_gamma    90.39054

_symmetry_space_group_name_H-M    'P 1'
_symmetry_Int_Tables_number       1

loop_
  _symmetry_equiv_pos_as_xyz
  'x,y,z'

loop_
  _atom_site_type_symbol
  _atom_site_label
  _atom_site_symmetry_multiplicity
  _atom_site_fract_x
  _atom_site_fract_y
  _atom_site_fract_z
  _atom_site_occupancy
  Cd  Cd1       1.0  0.0  0.0  0.5  1.0000
  Cd  Cd2       1.0  0.49999  0.5  0.5  1.0000
  H   H1        1.0  0.16547  0.76241  0.33909  1.0000
  H   H2        1.0  0.24779999999999996  0.72757  0.18248000000000006  1.0000
  H   H3        1.0  0.10472000000000001  0.17791  0.19881000000000001  1.0000
  H   H4        1.0  0.02392999999999998  0.19302  0.35555  1.0000
  H   H5        1.0  0.3371699999999999  0.42051  0.66018  1.0000
  H   H6        1.0  0.25638000000000016  0.5422100000000002  0.8176400000000003  1.0000
  H   H7        1.0  0.3877499999999998  0.9807899999999999  0.80221  1.0000
  H   H8        1.0  0.46831  0.83895  0.64447  1.0000
  H   H9        1.0  0.8345199999999998  0.23759999999999998  0.66091  1.0000
  H   H10       1.0  0.7521899999999998  0.27243000000000006  0.81752  1.0000
  H   H11       1.0  0.89529  0.82209  0.8012  1.0000
  H   H12       1.0  0.97608  0.80699  0.64446  1.0000
  H   H13       1.0  0.6628299999999998  0.5795  0.3398300000000001  1.0000
  H   H14       1.0  0.7436099999999998  0.45779  0.18236000000000005  1.0000
  H   H15       1.0  0.61225  0.01921000000000001  0.1978  1.0000
  H   H16       1.0  0.53169  0.16105  0.35554  1.0000
  C   C1        1.0  0.14950000000000005  0.85046  0.30452000000000007  1.0000
  C   C2        1.0  0.19578999999999994  0.83188  0.21668000000000004  1.0000
  C   C3        1.0  0.17667  0.94894  0.17484  1.0000
  C   C4        1.0  0.11778000000000004  0.08309000000000001  0.22706000000000004  1.0000
  C   C5        1.0  0.07218000000000002  0.09148000000000003  0.31381000000000003  1.0000
  C   C6        1.0  0.21584  0.93182  0.07994  1.0000
  C   C7        1.0  0.4080099999999999  0.19255999999999998  0.55771  1.0000
  C   C8        1.0  0.35145999999999994  0.54427  0.69522  1.0000
  C   C9        1.0  0.30584  0.61358  0.7836  1.0000
  C   C10       1.0  0.32198  0.7738399999999999  0.82599  1.0000
  C   C11       1.0  0.3774300000000001  0.8567500000000002  0.7736900000000002  1.0000
  C   C12       1.0  0.42276999999999987  0.77839  0.68639  1.0000
  C   C13       1.0  0.28284000000000004  0.8520800000000002  0.9212000000000002  1.0000
  C   C14       1.0  0.09289  0.63392  0.43954  1.0000
  C   C15       1.0  0.8504999999999998  0.14954  0.69548  1.0000
  C   C16       1.0  0.8041999999999998  0.16812000000000002  0.78332  1.0000
  C   C17       1.0  0.82333  0.05105999999999993  0.82516  1.0000
  C   C18       1.0  0.8822299999999998  0.91692  0.7729500000000001  1.0000
  C   C19       1.0  0.92782  0.9085300000000001  0.6862  1.0000
  C   C20       1.0  0.7841600000000002  0.06818000000000007  0.9200600000000002  1.0000
  C   C21       1.0  0.5919999999999999  0.80744  0.4422800000000001  1.0000
  C   C22       1.0  0.64853  0.45573  0.30478000000000005  1.0000
  C   C23       1.0  0.69416  0.38642000000000004  0.21641  1.0000
  C   C24       1.0  0.67802  0.22616  0.17401  1.0000
  C   C25       1.0  0.6225699999999997  0.14325  0.22632  1.0000
  C   C26       1.0  0.5772299999999998  0.22161000000000006  0.31362000000000007  1.0000
  C   C27       1.0  0.71716  0.14792  0.07881  1.0000
  C   C28       1.0  0.90713  0.36605  0.56045  1.0000
  S   S1        1.0  0.34689  0.10831999999999997  0.62663  1.0000
  S   S2        1.0  0.15476000000000004  0.4794  0.37115  1.0000
  S   S3        1.0  0.6531100000000001  0.89166  0.37336000000000014  1.0000
  S   S4        1.0  0.84524  0.52061  0.62885  1.0000
  S   S5        1.0  0.24782  0.7569200000000001  0.9994700000000001  1.0000
  S   S6        1.0  0.7521699999999998  0.24309000000000003  0.0005300000000000001  1.0000
  N   N1        1.0  0.08453999999999999  0.9763799999999999  0.35105  1.0000
  N   N2        1.0  0.23098999999999995  0.04514  0.04619000000000001  1.0000
  N   N3        1.0  0.45421  0.25618  0.5096  1.0000
  N   N4        1.0  0.41326000000000007  0.6249100000000001  0.6486500000000002  1.0000
  N   N5        1.0  0.26982000000000006  0.0002900000000000298  0.9568200000000001  1.0000
  N   N6        1.0  0.045379999999999955  0.74628  0.48717  1.0000
  N   N7        1.0  0.9154599999999999  0.02362000000000004  0.6489500000000001  1.0000
  N   N8        1.0  0.7690100000000001  0.95487  0.9538100000000002  1.0000
  N   N9        1.0  0.54579  0.74383  0.4904  1.0000
  N   N10       1.0  0.58673  0.37509  0.35136  1.0000
  N   N11       1.0  0.7301799999999998  0.9997100000000001  0.043190000000000006  1.0000
  N   N12       1.0  0.95461  0.25373  0.51285  1.0000
