data_image0
_chemical_formula_structural       Mn4H24C36O16
_chemical_formula_sum              "Mn4 H24 C36 O16"
_cell_length_a       7.05791
_cell_length_b       11.2006
_cell_length_c       15.072740000000001
_cell_angle_alpha    91.81013
_cell_angle_beta     90.12932
_cell_angle_gamma    90.0804

_symmetry_space_group_name_H-M    'P 1'
_symmetry_Int_Tables_number       1

loop_
  _symmetry_equiv_pos_as_xyz
  'x,y,z'

loop_
  _atom_site_type_symbol
  _atom_site_label
  _atom_site_symmetry_multiplicity
  _atom_site_fract_x
  _atom_site_fract_y
  _atom_site_fract_z
  _atom_site_occupancy
  Mn  Mn1       1.0  0.5320400000000001  0.62587  0.78553  1.0000
  Mn  Mn2       1.0  0.48041  0.12444  0.21319  1.0000
  Mn  Mn3       1.0  0.01686  0.62658  0.71314  1.0000
  Mn  Mn4       1.0  0.96606  0.12576  0.28499  1.0000
  H   H1        1.0  0.65234  0.6783  0.53645  1.0000
  H   H2        1.0  0.56509  0.8875899999999999  0.30634  1.0000
  H   H3        1.0  0.14648  0.89036  0.51364  1.0000
  H   H4        1.0  0.89293  0.67583  0.4216  1.0000
  H   H5        1.0  0.9068300000000001  0.8091  0.3608  1.0000
  H   H6        1.0  0.7887600000000001  0.6823299999999999  0.3141  1.0000
  H   H7        1.0  0.3122100000000001  0.20126  0.46706  1.0000
  H   H8        1.0  0.47443000000000013  0.39348  0.70617  1.0000
  H   H9        1.0  0.8361000000000002  0.39928  0.47532  1.0000
  H   H10       1.0  0.11652  0.18573999999999996  0.59679  1.0000
  H   H11       1.0  0.10847000000000001  0.32339999999999997  0.65925  1.0000
  H   H12       1.0  0.23845  0.20212999999999998  0.70003  1.0000
  H   H13       1.0  0.18459  0.70196  0.9659300000000001  1.0000
  H   H14       1.0  0.026210000000000008  0.89143  0.20636  1.0000
  H   H15       1.0  0.6621000000000002  0.90025  0.9759  1.0000
  H   H16       1.0  0.38265  0.68568  0.09575000000000003  1.0000
  H   H17       1.0  0.3915700000000001  0.8232099999999999  0.15843  1.0000
  H   H18       1.0  0.26195  0.70168  0.19912  1.0000
  H   H19       1.0  0.84484  0.17922  0.03578  1.0000
  H   H20       1.0  0.93456  0.3875  0.80547  1.0000
  H   H21       1.0  0.35339  0.3894599999999999  0.01366  1.0000
  H   H22       1.0  0.6064900000000002  0.17524  0.92175  1.0000
  H   H23       1.0  0.59063  0.30761  0.86  1.0000
  H   H24       1.0  0.7079  0.18041999999999997  0.81383  1.0000
  C   C1        1.0  0.3304  0.7314599999999999  0.61999  1.0000
  C   C2        1.0  0.23251  0.9829999999999999  0.35289  1.0000
  C   C3        1.0  0.39327000000000006  0.7797199999999999  0.53427  1.0000
  C   C4        1.0  0.5680600000000002  0.7403699999999999  0.49895  1.0000
  C   C5        1.0  0.63185  0.77746  0.41661  1.0000
  C   C6        1.0  0.51872  0.85714  0.3704  1.0000
  C   C7        1.0  0.3461700000000001  0.8993399999999999  0.40529  1.0000
  C   C8        1.0  0.28176  0.8596099999999999  0.48739  1.0000
  C   C9        1.0  0.81559  0.73327  0.37641  1.0000
  C   C10       1.0  0.6257900000000001  0.25218  0.37103  1.0000
  C   C11       1.0  0.79592  0.48795  0.64277  1.0000
  C   C12       1.0  0.5784  0.29663  0.46191  1.0000
  C   C13       1.0  0.41063  0.25939  0.5036  1.0000
  C   C14       1.0  0.37267  0.2921  0.59216  1.0000
  C   C15       1.0  0.50171  0.36719  0.6374300000000002  1.0000
  C   C16       1.0  0.6662200000000003  0.40849  0.5955  1.0000
  C   C17       1.0  0.70677  0.37109  0.5076  1.0000
  C   C18       1.0  0.19917000000000004  0.24783999999999998  0.63924  1.0000
  C   C19       1.0  0.87042  0.7530999999999999  0.87089  1.0000
  C   C20       1.0  0.7016200000000002  0.98582  0.1432  1.0000
  C   C21       1.0  0.9190500000000003  0.7971999999999999  0.96169  1.0000
  C   C22       1.0  0.0872  0.75969  0.00308  1.0000
  C   C23       1.0  0.12642  0.7918299999999998  0.0917  1.0000
  C   C24       1.0  0.9976500000000001  0.86609  0.13751  1.0000
  C   C25       1.0  0.83255  0.9076  0.09588  1.0000
  C   C26       1.0  0.7914900000000001  0.87121  0.00775  1.0000
  C   C27       1.0  0.30064  0.7475499999999999  0.13839  1.0000
  C   C28       1.0  0.1664  0.23267999999999997  0.12019  1.0000
  C   C29       1.0  0.26716  0.48274999999999996  0.8531  1.0000
  C   C30       1.0  0.10506  0.27999  0.03395  1.0000
  C   C31       1.0  0.9300800000000002  0.2408  0.99833  1.0000
  C   C32       1.0  0.86686  0.27718  0.91562  1.0000
  C   C33       1.0  0.98046  0.35681  0.86962  1.0000
  C   C34       1.0  0.15346  0.39875  0.90494  1.0000
  C   C35       1.0  0.21776000000000006  0.3590499999999999  0.98711  1.0000
  C   C36       1.0  0.68255  0.23225  0.87581  1.0000
  O   O1        1.0  0.45761  0.68609  0.6692200000000003  1.0000
  O   O2        1.0  0.15255  0.73432  0.6387  1.0000
  O   O3        1.0  0.28646  0.01139  0.27481  1.0000
  O   O4        1.0  0.07525  0.02409  0.3841  1.0000
  O   O5        1.0  0.48588  0.21774  0.32116  1.0000
  O   O6        1.0  0.80023  0.2485  0.34792  1.0000
  O   O7        1.0  0.76396  0.53267  0.72395  1.0000
  O   O8        1.0  0.9550800000000002  0.52172  0.61039  1.0000
  O   O9        1.0  0.009550000000000003  0.71685  0.82163  1.0000
  O   O10       1.0  0.69573  0.7509299999999999  0.84729  1.0000
  O   O11       1.0  0.73321  0.03038  0.22453  1.0000
  O   O12       1.0  0.54184  0.01877  0.11079  1.0000
  O   O13       1.0  0.03644  0.19301  0.17042  1.0000
  O   O14       1.0  0.34438  0.23118999999999998  0.1383  1.0000
  O   O15       1.0  0.20988000000000007  0.51423  0.77623  1.0000
  O   O16       1.0  0.42734  0.52127  0.88372  1.0000
