data_image0
_chemical_formula_structural       V8P8H28C12O28
_chemical_formula_sum              "V8 P8 H28 C12 O28"
_cell_length_a       10.0632
_cell_length_b       10.05845
_cell_length_c       18.54069
_cell_angle_alpha    65.77368
_cell_angle_beta     67.69040000000001
_cell_angle_gamma    50.96876

_space_group_name_H-M_alt    "P 1"
_space_group_IT_number       1

loop_
  _space_group_symop_operation_xyz
  'x, y, z'

loop_
  _atom_site_type_symbol
  _atom_site_label
  _atom_site_symmetry_multiplicity
  _atom_site_fract_x
  _atom_site_fract_y
  _atom_site_fract_z
  _atom_site_occupancy
  V   V1        1.0  0.14811999999999995  0.25931  0.70695  1.0000
  V   V2        1.0  0.6985099999999995  0.9225499999999999  0.59173  1.0000
  V   V3        1.0  0.75887  0.81383  0.79808  1.0000
  V   V4        1.0  0.06845  0.30677  0.90743  1.0000
  V   V5        1.0  0.8030599999999999  0.75421  0.30262  1.0000
  V   V6        1.0  0.30654  0.06152  0.40705  1.0000
  V   V7        1.0  0.23527  0.20134000000000002  0.20148  1.0000
  V   V8        1.0  0.9203200000000001  0.70118  0.0972  1.0000
  P   P1        1.0  0.30121  0.05562  0.58722  1.0000
  P   P2        1.0  0.06507999999999989  0.65082  0.64366  1.0000
  P   P3        1.0  0.9326000000000003  0.7156300000000001  0.9096799999999999  1.0000
  P   P4        1.0  0.3552600000000001  0.9362  0.8538  1.0000
  P   P5        1.0  0.7139900000000002  0.9257599999999999  0.40997  1.0000
  P   P6        1.0  0.9309599999999999  0.34668  0.35812  1.0000
  P   P7        1.0  0.06227000000000007  0.2935199999999999  0.09211  1.0000
  P   P8        1.0  0.63639  0.07564999999999998  0.14291  1.0000
  H   H1        1.0  0.4632599999999998  0.7576400000000001  0.57862  1.0000
  H   H2        1.0  0.3960600000000001  0.7752600000000001  0.67974  1.0000
  H   H3        1.0  0.09429999999999984  0.8961900000000002  0.6786  1.0000
  H   H4        1.0  0.1329600000000003  0.9235899999999997  0.57494  1.0000
  H   H5        1.0  0.34862999999999994  0.5906099999999999  0.59122  1.0000
  H   H6        1.0  0.2963100000000001  0.56334  0.69658  1.0000
  H   H7        1.0  0.97922  0.48300000000000004  0.77949  1.0000
  H   H8        1.0  0.22803999999999988  0.5404200000000001  0.92657  1.0000
  H   H9        1.0  0.20865999999999993  0.61633  0.82381  1.0000
  H   H10       1.0  0.09785999999999986  0.9169000000000002  0.82045  1.0000
  H   H11       1.0  0.07526999999999996  0.8722700000000001  0.92453  1.0000
  H   H12       1.0  0.40082000000000007  0.6560200000000003  0.9163299999999998  1.0000
  H   H13       1.0  0.4260500000000002  0.7038899999999996  0.81084  1.0000
  H   H14       1.0  0.52405  0.014749999999999982  0.71682  1.0000
  H   H15       1.0  0.5434599999999999  0.22242000000000003  0.42082  1.0000
  H   H16       1.0  0.6112700000000001  0.20806000000000005  0.31888999999999995  1.0000
  H   H17       1.0  0.91142  0.09402000000000002  0.32003  1.0000
  H   H18       1.0  0.8724100000000001  0.06499000000000002  0.42386  1.0000
  H   H19       1.0  0.6522  0.39532  0.40909  1.0000
  H   H20       1.0  0.7039199999999999  0.4263000000000001  0.3042299999999999  1.0000
  H   H21       1.0  0.020730000000000033  0.5345  0.22588  1.0000
  H   H22       1.0  0.76551  0.46198  0.07952  1.0000
  H   H23       1.0  0.79411  0.38096  0.18107  1.0000
  H   H24       1.0  0.9046200000000001  0.08102  0.18211  1.0000
  H   H25       1.0  0.9220100000000001  0.13173999999999994  0.07783999999999999  1.0000
  H   H26       1.0  0.5959100000000002  0.35408  0.08922  1.0000
  H   H27       1.0  0.5756800000000001  0.29173999999999983  0.19455  1.0000
  H   H28       1.0  0.4695100000000001  0.9839399999999999  0.27911  1.0000
  C   C1        1.0  0.35335000000000005  0.83454  0.62142  1.0000
  C   C2        1.0  0.19418000000000005  0.83738  0.62873  1.0000
  C   C3        1.0  0.2461399999999999  0.6514  0.63997  1.0000
  C   C4        1.0  0.15323999999999996  0.6560300000000001  0.8808699999999998  1.0000
  C   C5        1.0  0.1566600000000001  0.8128899999999999  0.87262  1.0000
  C   C6        1.0  0.3411699999999999  0.75846  0.8639  1.0000
  C   C7        1.0  0.65425  0.14923  0.3771  1.0000
  C   C8        1.0  0.81105  0.15057  0.37019  1.0000
  C   C9        1.0  0.7563200000000001  0.33667  0.36013  1.0000
  C   C10       1.0  0.845  0.34494  0.12336  1.0000
  C   C11       1.0  0.84325  0.18729999999999997  0.13087  1.0000
  C   C12       1.0  0.65755  0.24396000000000004  0.13962  1.0000
  O   O1        1.0  0.95306  0.8095200000000001  0.58164  1.0000
  O   O2        1.0  0.44363  0.06463999999999996  0.59385  1.0000
  O   O3        1.0  0.27607  0.12379000000000001  0.49872999999999995  1.0000
  O   O4        1.0  0.12823  0.16477999999999998  0.6415  1.0000
  O   O5        1.0  0.9636400000000004  0.6629099999999999  0.73161  1.0000
  O   O6        1.0  0.13541000000000017  0.47018999999999994  0.63371  1.0000
  O   O7        1.0  0.024919999999999977  0.35534999999999994  0.80304  1.0000
  O   O8        1.0  0.21942000000000011  0.041710000000000025  0.91652  1.0000
  O   O9        1.0  0.9101099999999998  0.58928  0.89435  1.0000
  O   O10       1.0  0.8708399999999996  0.7317299999999999  0.99641  1.0000
  O   O11       1.0  0.8246100000000002  0.8936300000000001  0.84803  1.0000
  O   O12       1.0  0.33486  0.05008999999999998  0.765  1.0000
  O   O13       1.0  0.5457699999999999  0.8420199999999999  0.86232  1.0000
  O   O14       1.0  0.6525399999999999  0.95348  0.69763  1.0000
  O   O15       1.0  0.04716999999999996  0.18798  0.41839  1.0000
  O   O16       1.0  0.58086  0.9090199999999999  0.39626  1.0000
  O   O17       1.0  0.7427400000000001  0.8537599999999999  0.49722999999999995  1.0000
  O   O18       1.0  0.88428  0.81993  0.35209  1.0000
  O   O19       1.0  0.035169999999999965  0.34798  0.27039  1.0000
  O   O20       1.0  0.8411699999999999  0.52994  0.37244  1.0000
  O   O21       1.0  0.9582899999999999  0.66377  0.20325  1.0000
  O   O22       1.0  0.7785900000000002  0.9684799999999998  0.08148  1.0000
  O   O23       1.0  0.07537999999999997  0.42549  0.10915  1.0000
  O   O24       1.0  0.12686000000000003  0.27666  0.00595  1.0000
  O   O25       1.0  0.17424999999999982  0.11721000000000001  0.15285  1.0000
  O   O26       1.0  0.6467200000000001  0.9581599999999999  0.23138  1.0000
  O   O27       1.0  0.44719  0.17533  0.13131  1.0000
  O   O28       1.0  0.34225  0.03925  0.30158  1.0000
