data_image0
_chemical_formula_structural       Zn2H12C16O16
_chemical_formula_sum              "Zn2 H12 C16 O16"
_cell_length_a       8.24948
_cell_length_b       8.2297
_cell_length_c       12.21539
_cell_angle_alpha    83.47965
_cell_angle_beta     115.67931
_cell_angle_gamma    123.58329

_space_group_name_H-M_alt    "P 1"
_space_group_IT_number       1

loop_
  _space_group_symop_operation_xyz
  'x, y, z'

loop_
  _atom_site_type_symbol
  _atom_site_label
  _atom_site_symmetry_multiplicity
  _atom_site_fract_x
  _atom_site_fract_y
  _atom_site_fract_z
  _atom_site_occupancy
  Zn  Zn1       1.0  0.9599  0.21515  0.74904  1.0000
  Zn  Zn2       1.0  0.03945  0.78463  0.25008  1.0000
  H   H1        1.0  0.42715  0.47374  0.36132  1.0000
  H   H2        1.0  0.06767999999999996  0.29046  0.3765299999999999  1.0000
  H   H3        1.0  0.20180999999999993  0.43627  0.5214699999999999  1.0000
  H   H4        1.0  0.62841  0.07176  0.13914  1.0000
  H   H5        1.0  0.42431  0.69259  0.11616  1.0000
  H   H6        1.0  0.4197199999999999  0.6825399999999998  0.97139  1.0000
  H   H7        1.0  0.5723199999999998  0.5269199999999999  0.6401499999999999  1.0000
  H   H8        1.0  0.9316399999999999  0.7099699999999998  0.62562  1.0000
  H   H9        1.0  0.7981300000000001  0.5665  0.4798799999999999  1.0000
  H   H10       1.0  0.3695999999999999  0.9255399999999999  0.85925  1.0000
  H   H11       1.0  0.57542  0.30528  0.88276  1.0000
  H   H12       1.0  0.5781000000000002  0.31482  0.02683  1.0000
  C   C1        1.0  0.7089999999999999  0.9422099999999999  0.47465999999999997  1.0000
  C   C2        1.0  0.14785  0.5796  0.3679  1.0000
  C   C3        1.0  0.41541999999999996  0.47966999999999993  0.4461399999999999  1.0000
  C   C4        1.0  0.20583999999999988  0.4382599999999999  0.43254999999999993  1.0000
  C   C5        1.0  0.9629400000000001  0.22397999999999996  0.01766  1.0000
  C   C6        1.0  0.7236400000000002  0.7871  0.12611  1.0000
  C   C7        1.0  0.5398399999999998  0.9717899999999998  0.052739999999999995  1.0000
  C   C8        1.0  0.5141299999999999  0.7765499999999997  0.061619999999999994  1.0000
  C   C9        1.0  0.29012  0.057699999999999994  0.52533  1.0000
  C   C10       1.0  0.85066  0.4201999999999999  0.63185  1.0000
  C   C11       1.0  0.5838700000000002  0.52105  0.55526  1.0000
  C   C12       1.0  0.7935400000000002  0.56277  0.56873  1.0000
  C   C13       1.0  0.041159999999999926  0.7776  0.9850699999999999  1.0000
  C   C14       1.0  0.27533  0.21138  0.8715  1.0000
  C   C15       1.0  0.45811  0.025629999999999983  0.94557  1.0000
  C   C16       1.0  0.48423999999999995  0.22097999999999995  0.9365799999999999  1.0000
  O   O1        1.0  0.6724099999999998  0.9527000000000001  0.55586  1.0000
  O   O2        1.0  0.75113  0.93678  0.39552999999999994  1.0000
  O   O3        1.0  0.24527000000000002  0.69688  0.30496  1.0000
  O   O4        1.0  0.99716  0.58067  0.3727599999999999  1.0000
  O   O5        1.0  0.8741200000000002  0.09865  0.93436  1.0000
  O   O6        1.0  0.053540000000000046  0.35169  0.09899999999999999  1.0000
  O   O7        1.0  0.9008499999999998  0.94049  0.20487  1.0000
  O   O8        1.0  0.7243500000000003  0.63871  0.10593999999999999  1.0000
  O   O9        1.0  0.32714999999999994  0.04766999999999997  0.44421  1.0000
  O   O10       1.0  0.24775000000000008  0.06267  0.60442  1.0000
  O   O11       1.0  0.7550300000000001  0.30364  0.69572  1.0000
  O   O12       1.0  0.99878  0.41752  0.6247  1.0000
  O   O13       1.0  0.12929999999999994  0.9060699999999999  0.06625  1.0000
  O   O14       1.0  0.9511899999999998  0.6466099999999998  0.9060799999999999  1.0000
  O   O15       1.0  0.09634999999999999  0.05661000000000001  0.79498  1.0000
  O   O16       1.0  0.27685000000000004  0.3622799999999998  0.8892299999999999  1.0000
