data_image0
_chemical_formula_structural       Zn2H28C34N2O8
_chemical_formula_sum              "Zn2 H28 C34 N2 O8"
_cell_length_a       4.57981
_cell_length_b       13.949429999999998
_cell_length_c       14.25261
_cell_angle_alpha    96.04642999999999
_cell_angle_beta     81.50915
_cell_angle_gamma    100.2919

_space_group_name_H-M_alt    "P 1"
_space_group_IT_number       1

loop_
  _space_group_symop_operation_xyz
  'x, y, z'

loop_
  _atom_site_type_symbol
  _atom_site_label
  _atom_site_symmetry_multiplicity
  _atom_site_fract_x
  _atom_site_fract_y
  _atom_site_fract_z
  _atom_site_occupancy
  Zn  Zn1       1.0  0.28672000000000003  0.06490000000000001  0.49777  1.0000
  Zn  Zn2       1.0  0.71327  0.93509  0.50223  1.0000
  H   H1        1.0  0.80678  0.8477600000000001  0.28505  1.0000
  H   H2        1.0  0.54625  0.7034400000000002  0.18955  1.0000
  H   H3        1.0  0.05335999999999997  0.51758  0.29502  1.0000
  H   H4        1.0  0.32635000000000003  0.6620100000000002  0.38382000000000005  1.0000
  H   H5        1.0  0.53624  0.45812  0.24999000000000005  1.0000
  H   H6        1.0  0.40378000000000003  0.52098  0.16732000000000002  1.0000
  H   H7        1.0  0.71123  0.3300300000000001  0.029480000000000006  1.0000
  H   H8        1.0  0.40046  0.35513  0.11103  1.0000
  H   H9        1.0  0.09476999999999998  0.38896  0.20669000000000004  1.0000
  H   H10       1.0  0.20610999999999993  0.28428  0.3267800000000001  1.0000
  H   H11       1.0  0.43453999999999987  0.07545  0.27127  1.0000
  H   H12       1.0  0.33766000000000007  0.17590000000000006  0.1465  1.0000
  H   H13       1.0  0.90168  0.59118  0.056  1.0000
  H   H14       1.0  0.66527  0.49973000000000006  0.9926200000000002  1.0000
  H   H15       1.0  0.19321000000000002  0.15224000000000004  0.71495  1.0000
  H   H16       1.0  0.45373  0.29656  0.81045  1.0000
  H   H17       1.0  0.9466299999999997  0.4824100000000001  0.70498  1.0000
  H   H18       1.0  0.6736400000000001  0.33798000000000006  0.61618  1.0000
  H   H19       1.0  0.46374999999999983  0.54188  0.75001  1.0000
  H   H20       1.0  0.5962099999999998  0.47902  0.83268  1.0000
  H   H21       1.0  0.28875999999999985  0.66996  0.9705200000000003  1.0000
  H   H22       1.0  0.59953  0.64487  0.88897  1.0000
  H   H23       1.0  0.9052199999999999  0.61104  0.79331  1.0000
  H   H24       1.0  0.7938799999999999  0.7157200000000002  0.67322  1.0000
  H   H25       1.0  0.5654500000000001  0.9245500000000002  0.72873  1.0000
  H   H26       1.0  0.6623299999999999  0.82409  0.8535000000000003  1.0000
  H   H27       1.0  0.09830999999999993  0.40882  0.9440100000000002  1.0000
  H   H28       1.0  0.33471  0.50026  0.00739  1.0000
  C   C1        1.0  0.23130000000000012  0.84681  0.39612  1.0000
  C   C2        1.0  0.08550999999999999  0.76392  0.3366  1.0000
  C   C3        1.0  0.8595099999999999  0.77498  0.28562  1.0000
  C   C4        1.0  0.7019999999999997  0.6934  0.23675000000000004  1.0000
  C   C5        1.0  0.7786800000000001  0.6006100000000002  0.23961  1.0000
  C   C6        1.0  0.006060000000000015  0.5905  0.29046  1.0000
  C   C7        1.0  0.17019000000000006  0.6710300000000002  0.3365600000000001  1.0000
  C   C8        1.0  0.6121700000000001  0.5088700000000002  0.19394  1.0000
  C   C9        1.0  0.6472700000000001  0.35808  0.10337000000000003  1.0000
  C   C10       1.0  0.7126  0.29122  0.171  1.0000
  C   C11       1.0  0.96118  0.31807000000000013  0.21830000000000005  1.0000
  C   C12       1.0  0.03389000000000003  0.25800000000000006  0.28136  1.0000
  C   C13       1.0  0.83469  0.17065  0.30088  1.0000
  C   C14       1.0  0.58273  0.14302000000000004  0.25424  1.0000
  C   C15       1.0  0.51636  0.2027  0.1895  1.0000
  C   C16       1.0  0.8894599999999999  0.11225000000000003  0.37518  1.0000
  C   C17       1.0  0.86769  0.51278  0.03309  1.0000
  C   C18       1.0  0.7686899999999997  0.15318000000000007  0.60388  1.0000
  C   C19       1.0  0.9144799999999998  0.23608000000000007  0.6634  1.0000
  C   C20       1.0  0.14047999999999997  0.22502  0.71438  1.0000
  C   C21       1.0  0.29799000000000003  0.30659  0.76325  1.0000
  C   C22       1.0  0.22130999999999998  0.3993900000000001  0.7603900000000002  1.0000
  C   C23       1.0  0.9939299999999999  0.4094900000000001  0.7095400000000002  1.0000
  C   C24       1.0  0.8298000000000001  0.3289600000000001  0.6634400000000003  1.0000
  C   C25       1.0  0.38781  0.49112  0.80606  1.0000
  C   C26       1.0  0.35272000000000003  0.64192  0.89663  1.0000
  C   C27       1.0  0.28739  0.70878  0.829  1.0000
  C   C28       1.0  0.03880999999999986  0.68193  0.7817000000000002  1.0000
  C   C29       1.0  0.9660999999999998  0.74199  0.71864  1.0000
  C   C30       1.0  0.16529999999999984  0.82934  0.6991200000000001  1.0000
  C   C31       1.0  0.41726  0.85698  0.7457600000000001  1.0000
  C   C32       1.0  0.48363  0.7972900000000003  0.8105000000000002  1.0000
  C   C33       1.0  0.11052999999999996  0.88775  0.6248200000000003  1.0000
  C   C34       1.0  0.13230000000000008  0.48721  0.96691  1.0000
  N   N1        1.0  0.80164  0.45951000000000003  0.11947  1.0000
  N   N2        1.0  0.19835  0.54048  0.88053  1.0000
  O   O1        1.0  0.12882000000000005  0.9282700000000003  0.40673000000000004  1.0000
  O   O2        1.0  0.4448500000000001  0.8295300000000002  0.43662  1.0000
  O   O3        1.0  0.12856999999999996  0.14197  0.41284  1.0000
  O   O4        1.0  0.68868  0.03799  0.39876  1.0000
  O   O5        1.0  0.8711700000000001  0.07172  0.59327  1.0000
  O   O6        1.0  0.5551400000000001  0.17047  0.56338  1.0000
  O   O7        1.0  0.8714100000000001  0.8580200000000002  0.58716  1.0000
  O   O8        1.0  0.31131000000000014  0.9620100000000005  0.6012400000000001  1.0000
