data_image0
_chemical_formula_structural       Ca2H4C16Br4O8
_chemical_formula_sum              "Ca2 H4 C16 Br4 O8"
_cell_length_a       7.53919
_cell_length_b       10.08545
_cell_length_c       9.5348
_cell_angle_alpha    117.48446
_cell_angle_beta     63.19001999999999
_cell_angle_gamma    93.20064

_space_group_name_H-M_alt    "P 1"
_space_group_IT_number       1

loop_
  _space_group_symop_operation_xyz
  'x, y, z'

loop_
  _atom_site_type_symbol
  _atom_site_label
  _atom_site_symmetry_multiplicity
  _atom_site_fract_x
  _atom_site_fract_y
  _atom_site_fract_z
  _atom_site_occupancy
  Ca  Ca1       1.0  0.26745  0.50236  0.4643500000000001  1.0000
  Ca  Ca2       1.0  0.73236  0.49761  0.5356300000000002  1.0000
  H   H1        1.0  0.7682299999999999  0.3401200000000001  0.9121300000000002  1.0000
  H   H2        1.0  0.4686  0.74496  0.29944  1.0000
  H   H3        1.0  0.23184  0.65987  0.08799000000000003  1.0000
  H   H4        1.0  0.5315099999999999  0.25492000000000004  0.7003700000000002  1.0000
  C   C1        1.0  0.9523  0.38308000000000003  0.041560000000000014  1.0000
  C   C2        1.0  0.08545999999999997  0.47196  0.09208000000000002  1.0000
  C   C3        1.0  0.16775999999999996  0.46121  0.20532  1.0000
  C   C4        1.0  0.86761  0.4113200000000001  0.95364  1.0000
  C   C5        1.0  0.4295800000000001  0.12961999999999999  0.50545  1.0000
  C   C6        1.0  0.48298  0.85665  0.3869100000000001  1.0000
  C   C7        1.0  0.36060999999999993  0.26859000000000005  0.5122500000000001  1.0000
  C   C8        1.0  0.41427999999999987  0.98503  0.3917000000000001  1.0000
  C   C9        1.0  0.047770000000000055  0.61717  0.95855  1.0000
  C   C10       1.0  0.9145699999999999  0.52821  0.90791  1.0000
  C   C11       1.0  0.83234  0.53885  0.79444  1.0000
  C   C12       1.0  0.13250999999999996  0.58878  0.04633000000000002  1.0000
  C   C13       1.0  0.5707099999999999  0.87045  0.4943300000000001  1.0000
  C   C14       1.0  0.517  0.14333  0.61313  1.0000
  C   C15       1.0  0.6396  0.73113  0.48745  1.0000
  C   C16       1.0  0.58566  0.014980000000000005  0.60825  1.0000
  Br  Br1       1.0  0.87837  0.21334000000000003  0.08702000000000003  1.0000
  Br  Br2       1.0  0.30967000000000006  0.9551300000000001  0.23323  1.0000
  Br  Br3       1.0  0.12143999999999996  0.7866200000000001  0.9132100000000002  1.0000
  Br  Br4       1.0  0.6905400000000002  0.04483000000000003  0.76682  1.0000
  O   O1        1.0  0.07038  0.40319  0.30823  1.0000
  O   O2        1.0  0.32345  0.51534  0.20483  1.0000
  O   O3        1.0  0.47705999999999993  0.36825  0.51671  1.0000
  O   O4        1.0  0.19874999999999998  0.28537  0.50871  1.0000
  O   O5        1.0  0.9299700000000001  0.59681  0.69175  1.0000
  O   O6        1.0  0.6764599999999997  0.4843800000000002  0.7952300000000002  1.0000
  O   O7        1.0  0.52274  0.63178  0.48342  1.0000
  O   O8        1.0  0.80056  0.7146800000000002  0.4916000000000001  1.0000
