data_image0
_chemical_formula_structural       Cd2H24C48N4O20
_chemical_formula_sum              "Cd2 H24 C48 N4 O20"
_cell_length_a       10.28462
_cell_length_b       10.35743
_cell_length_c       18.2047
_cell_angle_alpha    101.21411
_cell_angle_beta     99.59647
_cell_angle_gamma    98.66462

_space_group_name_H-M_alt    "P 1"
_space_group_IT_number       1

loop_
  _space_group_symop_operation_xyz
  'x, y, z'

loop_
  _atom_site_type_symbol
  _atom_site_label
  _atom_site_symmetry_multiplicity
  _atom_site_fract_x
  _atom_site_fract_y
  _atom_site_fract_z
  _atom_site_occupancy
  Cd  Cd1       1.0  0.5569  0.54792  0.81336  1.0000
  Cd  Cd2       1.0  0.4431  0.4520700000000001  0.18664  1.0000
  H   H1        1.0  0.8401  0.32731000000000005  0.4919  1.0000
  H   H2        1.0  0.70903  0.26273  0.13786  1.0000
  H   H3        1.0  0.18557000000000004  0.39445  0.61106  1.0000
  H   H4        1.0  0.76335  0.41384000000000004  0.59898  1.0000
  H   H5        1.0  0.04416999999999999  0.55351  0.81326  1.0000
  H   H6        1.0  0.75272  0.27376  0.38889  1.0000
  H   H7        1.0  0.66574  0.18844  0.25306999999999996  1.0000
  H   H8        1.0  0.06085000000000001  0.12896000000000002  0.21921  1.0000
  H   H9        1.0  0.15205999999999997  0.22265  0.35915  1.0000
  H   H10       1.0  0.63589  0.33999  0.030030000000000005  1.0000
  H   H11       1.0  0.53698  0.06205999999999999  0.81048  1.0000
  H   H12       1.0  0.66887  0.92087  0.01181  1.0000
  H   H13       1.0  0.15989000000000006  0.67268  0.50809  1.0000
  H   H14       1.0  0.29096  0.73727  0.86214  1.0000
  H   H15       1.0  0.8144199999999999  0.60554  0.38894  1.0000
  H   H16       1.0  0.23665  0.58615  0.40101999999999993  1.0000
  H   H17       1.0  0.95583  0.44648  0.18674  1.0000
  H   H18       1.0  0.24726999999999996  0.72624  0.61111  1.0000
  H   H19       1.0  0.33425  0.81155  0.74693  1.0000
  H   H20       1.0  0.93914  0.87103  0.78079  1.0000
  H   H21       1.0  0.84793  0.77734  0.64084  1.0000
  H   H22       1.0  0.36411  0.66  0.96997  1.0000
  H   H23       1.0  0.46301000000000003  0.9379300000000002  0.18952  1.0000
  H   H24       1.0  0.33111999999999997  0.07911999999999995  0.9881899999999999  1.0000
  C   C1        1.0  0.27191  0.51685  0.75913  1.0000
  C   C2        1.0  0.12936  0.47893  0.71597  1.0000
  C   C3        1.0  0.10359000000000006  0.41991  0.63799  1.0000
  C   C4        1.0  0.97129  0.39582  0.59467  1.0000
  C   C5        1.0  0.8658300000000001  0.4286  0.63118  1.0000
  C   C6        1.0  0.89282  0.48410000000000003  0.7094  1.0000
  C   C7        1.0  0.02476999999999999  0.50982  0.75226  1.0000
  C   C8        1.0  0.7827399999999999  0.5161500000000001  0.74954  1.0000
  C   C9        1.0  0.02585000000000001  0.31011  0.46643  1.0000
  C   C10       1.0  0.9603  0.25328  0.38424  1.0000
  C   C11       1.0  0.82304  0.24246  0.3536  1.0000
  C   C12       1.0  0.7722  0.19442  0.27548  1.0000
  C   C13       1.0  0.85849  0.15419000000000002  0.22709  1.0000
  C   C14       1.0  0.99536  0.16109  0.25751  1.0000
  C   C15       1.0  0.04579  0.21199  0.33508  1.0000
  C   C16       1.0  0.81123  0.1008  0.14338  1.0000
  C   C17       1.0  0.66358  0.13509  0.03067  1.0000
  C   C18       1.0  0.6251300000000001  0.23883000000000001  0.9958200000000001  1.0000
  C   C19       1.0  0.58332  0.21216999999999997  0.9169999999999999  1.0000
  C   C20       1.0  0.571  0.08160999999999997  0.87215  1.0000
  C   C21       1.0  0.60187  0.9775900000000002  0.9068099999999999  1.0000
  C   C22       1.0  0.64745  0.0027999999999999666  0.98553  1.0000
  C   C23       1.0  0.58315  0.83732  0.8605  1.0000
  C   C24       1.0  0.5589499999999998  0.32376  0.8786  1.0000
  C   C25       1.0  0.72808  0.48314000000000007  0.24087  1.0000
  C   C26       1.0  0.8706399999999999  0.5210599999999999  0.28402999999999995  1.0000
  C   C27       1.0  0.89641  0.58008  0.36201  1.0000
  C   C28       1.0  0.028699999999999982  0.6041699999999999  0.40532  1.0000
  C   C29       1.0  0.13416  0.5713900000000001  0.36882  1.0000
  C   C30       1.0  0.10718000000000001  0.51589  0.2906  1.0000
  C   C31       1.0  0.97523  0.4901699999999999  0.24773999999999996  1.0000
  C   C32       1.0  0.21725  0.48384000000000005  0.25046  1.0000
  C   C33       1.0  0.9741400000000001  0.6898900000000001  0.53357  1.0000
  C   C34       1.0  0.03968999999999999  0.74671  0.61576  1.0000
  C   C35       1.0  0.17696  0.75754  0.6464  1.0000
  C   C36       1.0  0.22779  0.8055700000000001  0.72452  1.0000
  C   C37       1.0  0.1415  0.8458000000000001  0.7729  1.0000
  C   C38       1.0  0.004640000000000048  0.8389000000000002  0.74249  1.0000
  C   C39       1.0  0.9542  0.7880000000000001  0.66492  1.0000
  C   C40       1.0  0.18876  0.89919  0.85662  1.0000
  C   C41       1.0  0.33641999999999994  0.8649  0.96933  1.0000
  C   C42       1.0  0.37486  0.76116  0.00418  1.0000
  C   C43       1.0  0.41667000000000004  0.7878200000000001  0.083  1.0000
  C   C44       1.0  0.42899  0.91838  0.12785  1.0000
  C   C45       1.0  0.39812  0.0224  0.09319  1.0000
  C   C46       1.0  0.35255  0.99719  0.014469999999999998  1.0000
  C   C47       1.0  0.41684000000000004  0.16267  0.1395  1.0000
  C   C48       1.0  0.44104  0.67623  0.1214  1.0000
  N   N1        1.0  0.9394  0.34264000000000006  0.51591  1.0000
  N   N2        1.0  0.71621  0.16667000000000007  0.10783  1.0000
  N   N3        1.0  0.060599999999999994  0.65735  0.48408999999999996  1.0000
  N   N4        1.0  0.28378  0.83332  0.89217  1.0000
  O   O1        1.0  0.29811  0.57888  0.82923  1.0000
  O   O2        1.0  0.36268  0.48648  0.7228  1.0000
  O   O3        1.0  0.8043600000000001  0.5386600000000001  0.82208  1.0000
  O   O4        1.0  0.66857  0.51986  0.71046  1.0000
  O   O5        1.0  0.14840000000000003  0.32742000000000004  0.48868999999999996  1.0000
  O   O6        1.0  0.8558899999999999  0.0101  0.10762  1.0000
  O   O7        1.0  0.59795  0.74636  0.89874  1.0000
  O   O8        1.0  0.55218  0.8119300000000002  0.78863  1.0000
  O   O9        1.0  0.52  0.29861  0.80644  1.0000
  O   O10       1.0  0.58296  0.44367000000000006  0.91859  1.0000
  O   O11       1.0  0.70188  0.42111  0.17077  1.0000
  O   O12       1.0  0.6373100000000002  0.51351  0.2772  1.0000
  O   O13       1.0  0.19563  0.46133  0.17792  1.0000
  O   O14       1.0  0.33142  0.48013  0.28954  1.0000
  O   O15       1.0  0.8515999999999999  0.67257  0.51131  1.0000
  O   O16       1.0  0.14410000000000006  0.9898900000000003  0.89238  1.0000
  O   O17       1.0  0.40203999999999995  0.25364  0.10126  1.0000
  O   O18       1.0  0.44781000000000004  0.18806  0.21137  1.0000
  O   O19       1.0  0.4799900000000001  0.7013800000000001  0.19355  1.0000
  O   O20       1.0  0.41704  0.55632  0.08141  1.0000
