data_image0
_chemical_formula_structural       Li8H32C40N8O8
_chemical_formula_sum              "Li8 H32 C40 N8 O8"
_cell_length_a       11.05023
_cell_length_b       11.05023
_cell_length_c       11.16016
_cell_angle_alpha    90.0
_cell_angle_beta     90.0
_cell_angle_gamma    90.0

_space_group_name_H-M_alt    "P 1"
_space_group_IT_number       1

loop_
  _space_group_symop_operation_xyz
  'x, y, z'

loop_
  _atom_site_type_symbol
  _atom_site_label
  _atom_site_symmetry_multiplicity
  _atom_site_fract_x
  _atom_site_fract_y
  _atom_site_fract_z
  _atom_site_occupancy
  Li  Li1       1.0  0.9147899999999999  0.59007  0.83695  1.0000
  Li  Li2       1.0  0.08520999999999998  0.40993  0.83695  1.0000
  Li  Li3       1.0  0.59007  0.08520999999999998  0.16305  1.0000
  Li  Li4       1.0  0.40993  0.9147899999999999  0.16305  1.0000
  Li  Li5       1.0  0.08527  0.59028  0.6639299999999999  1.0000
  Li  Li6       1.0  0.91473  0.4097199999999999  0.6639299999999999  1.0000
  Li  Li7       1.0  0.4097199999999999  0.08527  0.33607999999999993  1.0000
  Li  Li8       1.0  0.59028  0.91473  0.33607999999999993  1.0000
  H   H1        1.0  0.20796999999999996  0.52259  0.04106  1.0000
  H   H2        1.0  0.12686  0.8237399999999999  0.80752  1.0000
  H   H3        1.0  0.32863  0.66395  0.16599  1.0000
  H   H4        1.0  0.25069  0.95348  0.94167  1.0000
  H   H5        1.0  0.79203  0.47741  0.04106  1.0000
  H   H6        1.0  0.87314  0.17626  0.80752  1.0000
  H   H7        1.0  0.67137  0.33605  0.16599  1.0000
  H   H8        1.0  0.74931  0.04651999999999999  0.94167  1.0000
  H   H9        1.0  0.52259  0.79203  0.95894  1.0000
  H   H10       1.0  0.8237399999999999  0.87314  0.19248999999999997  1.0000
  H   H11       1.0  0.66395  0.67137  0.8340099999999999  1.0000
  H   H12       1.0  0.95348  0.74931  0.05833  1.0000
  H   H13       1.0  0.47741  0.20796999999999996  0.95894  1.0000
  H   H14       1.0  0.17626  0.12686  0.19248999999999997  1.0000
  H   H15       1.0  0.33605  0.32863  0.8340099999999999  1.0000
  H   H16       1.0  0.04651999999999999  0.25069  0.05833  1.0000
  H   H17       1.0  0.79228  0.52244  0.45971  1.0000
  H   H18       1.0  0.87291  0.8240699999999999  0.6927899999999999  1.0000
  H   H19       1.0  0.672  0.66342  0.33432999999999996  1.0000
  H   H20       1.0  0.74944  0.9535099999999999  0.55813  1.0000
  H   H21       1.0  0.20772  0.47756  0.45971  1.0000
  H   H22       1.0  0.12709  0.17593  0.6927899999999999  1.0000
  H   H23       1.0  0.328  0.33658  0.33432999999999996  1.0000
  H   H24       1.0  0.25056  0.04649  0.55813  1.0000
  H   H25       1.0  0.47756  0.79228  0.54029  1.0000
  H   H26       1.0  0.17593  0.87291  0.30722  1.0000
  H   H27       1.0  0.33658  0.672  0.6656799999999999  1.0000
  H   H28       1.0  0.04649  0.74944  0.44186999999999993  1.0000
  H   H29       1.0  0.52244  0.20772  0.54029  1.0000
  H   H30       1.0  0.8240699999999999  0.12709  0.30722  1.0000
  H   H31       1.0  0.66342  0.328  0.6656799999999999  1.0000
  H   H32       1.0  0.9535099999999999  0.25056  0.44186999999999993  1.0000
  C   C1        1.0  0.21567  0.6176  0.01628  1.0000
  C   C2        1.0  0.17058  0.78529  0.88623  1.0000
  C   C3        1.0  0.28283  0.69683  0.08571  1.0000
  C   C4        1.0  0.23971  0.85739  0.9613299999999999  1.0000
  C   C5        1.0  0.15748  0.66016  0.91119  1.0000
  C   C6        1.0  0.78433  0.3824  0.01628  1.0000
  C   C7        1.0  0.82942  0.21470999999999998  0.88623  1.0000
  C   C8        1.0  0.71717  0.30317  0.08571  1.0000
  C   C9        1.0  0.7602899999999999  0.14261  0.9613299999999999  1.0000
  C   C10       1.0  0.84252  0.33984  0.91119  1.0000
  C   C11       1.0  0.6176  0.78433  0.98373  1.0000
  C   C12       1.0  0.78529  0.82942  0.11377  1.0000
  C   C13       1.0  0.69683  0.71717  0.9143  1.0000
  C   C14       1.0  0.85739  0.7602899999999999  0.03867  1.0000
  C   C15       1.0  0.66016  0.84252  0.08881  1.0000
  C   C16       1.0  0.3824  0.21567  0.98373  1.0000
  C   C17       1.0  0.21470999999999998  0.17058  0.11377  1.0000
  C   C18       1.0  0.30317  0.28283  0.9143  1.0000
  C   C19       1.0  0.14261  0.23971  0.03867  1.0000
  C   C20       1.0  0.33984  0.15748  0.08881  1.0000
  C   C21       1.0  0.78456  0.61748  0.48435  1.0000
  C   C22       1.0  0.82935  0.78542  0.6140999999999999  1.0000
  C   C23       1.0  0.71756  0.69656  0.41461  1.0000
  C   C24       1.0  0.7604199999999999  0.85738  0.5387099999999999  1.0000
  C   C25       1.0  0.84223  0.66013  0.58972  1.0000
  C   C26       1.0  0.21544  0.38252  0.48435  1.0000
  C   C27       1.0  0.17065  0.21458  0.6140999999999999  1.0000
  C   C28       1.0  0.28244  0.30344  0.41461  1.0000
  C   C29       1.0  0.23958  0.14262  0.5387099999999999  1.0000
  C   C30       1.0  0.15777  0.33987  0.58972  1.0000
  C   C31       1.0  0.38252  0.78456  0.51565  1.0000
  C   C32       1.0  0.21458  0.82935  0.3859  1.0000
  C   C33       1.0  0.30344  0.71756  0.5854  1.0000
  C   C34       1.0  0.14262  0.7604199999999999  0.4612999999999999  1.0000
  C   C35       1.0  0.33987  0.84223  0.4102799999999999  1.0000
  C   C36       1.0  0.61748  0.21544  0.51565  1.0000
  C   C37       1.0  0.78542  0.17065  0.3859  1.0000
  C   C38       1.0  0.69656  0.28244  0.5854  1.0000
  C   C39       1.0  0.85738  0.23958  0.4612999999999999  1.0000
  C   C40       1.0  0.66013  0.15777  0.4102799999999999  1.0000
  N   N1        1.0  0.29689  0.81628  0.06092  1.0000
  N   N2        1.0  0.70311  0.18371999999999997  0.06092  1.0000
  N   N3        1.0  0.81628  0.70311  0.93909  1.0000
  N   N4        1.0  0.18371999999999997  0.29689  0.93909  1.0000
  N   N5        1.0  0.70342  0.8160799999999999  0.43906  1.0000
  N   N6        1.0  0.29658  0.18391999999999997  0.43906  1.0000
  N   N7        1.0  0.18391999999999997  0.70342  0.5609499999999998  1.0000
  N   N8        1.0  0.8160799999999999  0.29658  0.5609499999999998  1.0000
  O   O1        1.0  0.09448  0.58774  0.8412299999999999  1.0000
  O   O2        1.0  0.90552  0.41225999999999996  0.8412299999999999  1.0000
  O   O3        1.0  0.58774  0.90552  0.15877  1.0000
  O   O4        1.0  0.41225999999999996  0.09449  0.15877  1.0000
  O   O5        1.0  0.90441  0.58772  0.66052  1.0000
  O   O6        1.0  0.09559  0.41228  0.66052  1.0000
  O   O7        1.0  0.41228  0.90441  0.33949  1.0000
  O   O8        1.0  0.58772  0.09559  0.33949  1.0000
