data_image0
_chemical_formula_structural       Sr4H16C32O16
_chemical_formula_sum              "Sr4 H16 C32 O16"
_cell_length_a       6.94456
_cell_length_b       12.263680000000003
_cell_length_c       18.45501
_cell_angle_alpha    89.79127
_cell_angle_beta     89.9869
_cell_angle_gamma    89.98598

_symmetry_space_group_name_H-M    'P 1'
_symmetry_Int_Tables_number       1

loop_
  _symmetry_equiv_pos_as_xyz
  'x,y,z'

loop_
  _atom_site_type_symbol
  _atom_site_label
  _atom_site_symmetry_multiplicity
  _atom_site_fract_x
  _atom_site_fract_y
  _atom_site_fract_z
  _atom_site_occupancy
  Sr  Sr1       1.0  0.24971999999999994  0.07704  0.5099599999999997  1.0000
  Sr  Sr2       1.0  0.7504299999999998  0.42164  0.00884  1.0000
  Sr  Sr3       1.0  0.75027  0.92296  0.49003  1.0000
  Sr  Sr4       1.0  0.24955999999999995  0.57835  0.99116  1.0000
  H   H1        1.0  0.94085  0.83765  0.32772  1.0000
  H   H2        1.0  0.9419699999999998  0.7533699999999999  0.20365999999999995  1.0000
  H   H3        1.0  0.05766  0.66376  0.82767  1.0000
  H   H4        1.0  0.05676999999999999  0.7461799999999998  0.70268  1.0000
  H   H5        1.0  0.4418  0.16253  0.67248  1.0000
  H   H6        1.0  0.4433499999999999  0.24676999999999993  0.7964999999999999  1.0000
  H   H7        1.0  0.55953  0.33629  0.17237  1.0000
  H   H8        1.0  0.55822  0.25316  0.29717  1.0000
  H   H9        1.0  0.059139999999999984  0.16234  0.67227  1.0000
  H   H10       1.0  0.058019999999999995  0.24663  0.7963299999999999  1.0000
  H   H11       1.0  0.9423299999999998  0.33623  0.17232  1.0000
  H   H12       1.0  0.94322  0.25381  0.29732  1.0000
  H   H13       1.0  0.55819  0.83746  0.32752  1.0000
  H   H14       1.0  0.55663  0.7532199999999998  0.20349  1.0000
  H   H15       1.0  0.44046  0.6637  0.8276299999999998  1.0000
  H   H16       1.0  0.44176999999999994  0.74683  0.70283  1.0000
  C   C1        1.0  0.07500999999999998  0.8178799999999999  0.3009  1.0000
  C   C2        1.0  0.07456  0.7718799999999999  0.23215  1.0000
  C   C3        1.0  0.9237099999999998  0.68312  0.80049  1.0000
  C   C4        1.0  0.9240799999999998  0.7283399999999999  0.73135  1.0000
  C   C5        1.0  0.57611  0.18222  0.6992099999999998  1.0000
  C   C6        1.0  0.5759699999999998  0.22823  0.76798  1.0000
  C   C7        1.0  0.42536  0.31683  0.19946  1.0000
  C   C8        1.0  0.4254199999999999  0.27132  0.26863  1.0000
  C   C9        1.0  0.9249799999999998  0.18211  0.6990999999999999  1.0000
  C   C10       1.0  0.92542  0.22810999999999998  0.76785  1.0000
  C   C11       1.0  0.07628  0.31688  0.19951  1.0000
  C   C12       1.0  0.07589999999999997  0.27165  0.26865  1.0000
  C   C13       1.0  0.4238699999999999  0.81778  0.30078999999999995  1.0000
  C   C14       1.0  0.42402  0.7717699999999998  0.23201999999999998  1.0000
  C   C15       1.0  0.57463  0.68316  0.8005399999999999  1.0000
  C   C16       1.0  0.57457  0.72867  0.7313699999999997  1.0000
  C   C17       1.0  0.24912999999999996  0.89169  0.40922  1.0000
  C   C18       1.0  0.24946999999999994  0.84061  0.33607  1.0000
  C   C19       1.0  0.24852  0.6972099999999999  0.1236  1.0000
  C   C20       1.0  0.24917  0.74821  0.19765999999999995  1.0000
  C   C21       1.0  0.7510099999999997  0.61004  0.9092599999999998  1.0000
  C   C22       1.0  0.7491999999999998  0.6606299999999999  0.8358  1.0000
  C   C23       1.0  0.7509  0.80242  0.62224  1.0000
  C   C24       1.0  0.74946  0.75176  0.6966899999999998  1.0000
  C   C25       1.0  0.75086  0.10831  0.5907699999999999  1.0000
  C   C26       1.0  0.75051  0.15938  0.66392  1.0000
  C   C27       1.0  0.7514699999999997  0.30278  0.8763999999999998  1.0000
  C   C28       1.0  0.75082  0.25178  0.8023399999999998  1.0000
  C   C29       1.0  0.24897999999999995  0.3899499999999999  0.09073  1.0000
  C   C30       1.0  0.25078  0.33936  0.16419  1.0000
  C   C31       1.0  0.24907999999999994  0.19757  0.37776  1.0000
  C   C32       1.0  0.25053  0.24824  0.3033099999999999  1.0000
  O   O1        1.0  0.08767  0.91524  0.4395  1.0000
  O   O2        1.0  0.08628999999999999  0.6762399999999997  0.09402999999999999  1.0000
  O   O3        1.0  0.91357  0.58621  0.93854  1.0000
  O   O4        1.0  0.9134099999999998  0.82116  0.59216  1.0000
  O   O5        1.0  0.58997  0.08481999999999999  0.56023  1.0000
  O   O6        1.0  0.5894899999999997  0.32383  0.9061699999999999  1.0000
  O   O7        1.0  0.4089799999999999  0.41298  0.059109999999999996  1.0000
  O   O8        1.0  0.41063  0.17425999999999997  0.40728  1.0000
  O   O9        1.0  0.9123199999999998  0.08474999999999999  0.5605  1.0000
  O   O10       1.0  0.9136899999999998  0.32375  0.9059699999999999  1.0000
  O   O11       1.0  0.08641  0.41378  0.06145999999999999  1.0000
  O   O12       1.0  0.08658  0.17884  0.40784  1.0000
  O   O13       1.0  0.4100199999999999  0.91517  0.43976999999999994  1.0000
  O   O14       1.0  0.41049999999999986  0.6761599999999999  0.09383  1.0000
  O   O15       1.0  0.5909999999999999  0.58701  0.9408899999999999  1.0000
  O   O16       1.0  0.5893599999999998  0.82574  0.59272  1.0000
