data_image0
_chemical_formula_structural       Co5H32C34N4O18
_chemical_formula_sum              "Co5 H32 C34 N4 O18"
_cell_length_a       6.71438
_cell_length_b       10.15155
_cell_length_c       16.01039
_cell_angle_alpha    87.02320000000002
_cell_angle_beta     89.04824
_cell_angle_gamma    80.75569

_symmetry_space_group_name_H-M    'P 1'
_symmetry_Int_Tables_number       1

loop_
  _symmetry_equiv_pos_as_xyz
  'x,y,z'

loop_
  _atom_site_type_symbol
  _atom_site_label
  _atom_site_symmetry_multiplicity
  _atom_site_fract_x
  _atom_site_fract_y
  _atom_site_fract_z
  _atom_site_occupancy
  Co  Co1       1.0  0.9041  0.50161  0.28482  1.0000
  Co  Co2       1.0  0.03141  0.86322  0.99761  1.0000
  Co  Co3       1.0  0.09714  0.4989100000000001  0.7143199999999997  1.0000
  Co  Co4       1.0  0.9687  0.14383999999999997  0.00041  1.0000
  Co  Co5       1.0  0.49959  0.0037000000000000075  0.9989899999999999  1.0000
  H   H1        1.0  0.2161  0.00746  0.89866  1.0000
  H   H2        1.0  0.66798  0.73681  0.39371  1.0000
  H   H3        1.0  0.84775  0.32668  0.45423999999999987  1.0000
  H   H4        1.0  0.73665  0.45698  0.60151  1.0000
  H   H5        1.0  0.7556  0.72879  0.61611  1.0000
  H   H6        1.0  0.50198  0.70327  0.61484  1.0000
  H   H7        1.0  0.84788  0.8834699999999999  0.47314  1.0000
  H   H8        1.0  0.2660499999999999  0.8905800000000001  0.5904  1.0000
  H   H9        1.0  0.17038000000000003  0.8266099999999998  0.34059  1.0000
  H   H10       1.0  0.93719  0.9725999999999999  0.19233  1.0000
  H   H11       1.0  0.83892  0.95921  0.29394  1.0000
  H   H12       1.0  0.1177  0.06863  0.34706  1.0000
  H   H13       1.0  0.3455  0.17086  0.25539  1.0000
  H   H14       1.0  0.56018  0.96149  0.21183999999999995  1.0000
  H   H15       1.0  0.45722999999999997  0.94947  0.313  1.0000
  H   H16       1.0  0.43673000000000006  0.74474  0.24516  1.0000
  H   H17       1.0  0.78473  0.9993600000000001  0.09863  1.0000
  H   H18       1.0  0.33255  0.26483  0.60543  1.0000
  H   H19       1.0  0.15295999999999998  0.6745200000000001  0.54396  1.0000
  H   H20       1.0  0.26486999999999994  0.54349  0.3971  1.0000
  H   H21       1.0  0.24447000000000002  0.2712  0.38347  1.0000
  H   H22       1.0  0.4982200000000001  0.2965  0.38413  1.0000
  H   H23       1.0  0.15277  0.11716999999999998  0.52676  1.0000
  H   H24       1.0  0.73462  0.10998  0.4094599999999999  1.0000
  H   H25       1.0  0.8317900000000003  0.17352000000000004  0.65699  1.0000
  H   H26       1.0  0.0616  0.02836  0.8064  1.0000
  H   H27       1.0  0.16167  0.04032000000000001  0.7050599999999998  1.0000
  H   H28       1.0  0.8818600000000002  0.9309599999999999  0.65199  1.0000
  H   H29       1.0  0.65396  0.8297000000000001  0.7443899999999998  1.0000
  H   H30       1.0  0.4403099999999999  0.04032  0.78757  1.0000
  H   H31       1.0  0.54101  0.05048000000000001  0.6859699999999997  1.0000
  H   H32       1.0  0.56388  0.25642  0.75167  1.0000
  C   C1        1.0  0.70046  0.64304  0.42963  1.0000
  C   C2        1.0  0.7928400000000001  0.43104  0.46381  1.0000
  C   C3        1.0  0.73951  0.49351  0.5366  1.0000
  C   C4        1.0  0.62464  0.73178  0.57519  1.0000
  C   C5        1.0  0.56226  0.86977  0.53531  1.0000
  C   C6        1.0  0.6955900000000002  0.9340599999999999  0.4857  1.0000
  C   C7        1.0  0.36680999999999997  0.9379  0.54919  1.0000
  C   C8        1.0  0.12793  0.83306  0.27375  1.0000
  C   C9        1.0  0.97895  0.96235  0.25835  1.0000
  C   C10       1.0  0.07363999999999997  0.08337999999999998  0.28043  1.0000
  C   C11       1.0  0.27216  0.09106  0.23145  1.0000
  C   C12       1.0  0.41862  0.95858  0.24624  1.0000
  C   C13       1.0  0.3291799999999999  0.83401  0.22493  1.0000
  C   C14       1.0  0.03913000000000005  0.7072899999999999  0.26392  1.0000
  C   C15       1.0  0.30979  0.8241499999999999  0.13003  1.0000
  C   C16       1.0  0.92279  0.21345  0.2771899999999999  1.0000
  C   C17       1.0  0.24133  0.13074  0.13823  1.0000
  C   C18       1.0  0.3003700000000001  0.35837  0.56928  1.0000
  C   C19       1.0  0.20798000000000003  0.57009  0.53466  1.0000
  C   C20       1.0  0.26172  0.50724  0.4620499999999999  1.0000
  C   C21       1.0  0.37581  0.26847  0.42412  1.0000
  C   C22       1.0  0.43823000000000006  0.13072  0.46438  1.0000
  C   C23       1.0  0.3049700000000001  0.06651000000000001  0.51409  1.0000
  C   C24       1.0  0.6337600000000001  0.06265  0.45061  1.0000
  C   C25       1.0  0.8728900000000002  0.16740000000000002  0.7239499999999998  1.0000
  C   C26       1.0  0.020960000000000003  0.03798000000000002  0.7402499999999997  1.0000
  C   C27       1.0  0.92613  0.9168099999999999  0.71861  1.0000
  C   C28       1.0  0.7275700000000003  0.9098899999999998  0.76774  1.0000
  C   C29       1.0  0.58125  0.04243  0.75253  1.0000
  C   C30       1.0  0.6714000000000001  0.16747  0.77243  1.0000
  C   C31       1.0  0.96249  0.29269  0.73391  1.0000
  C   C32       1.0  0.6903699999999999  0.18012000000000003  0.86699  1.0000
  C   C33       1.0  0.07706000000000002  0.78666  0.72246  1.0000
  C   C34       1.0  0.75858  0.87186  0.86117  1.0000
  N   N1        1.0  0.7689100000000001  0.52486  0.39724  1.0000
  N   N2        1.0  0.68196  0.62758  0.51403  1.0000
  N   N3        1.0  0.23158  0.4766599999999999  0.6014199999999997  1.0000
  N   N4        1.0  0.31927000000000005  0.37327999999999995  0.48492  1.0000
  O   O1        1.0  0.19972999999999996  0.006100000000000002  0.95931  1.0000
  O   O2        1.0  0.15492999999999998  0.59361  0.27471  1.0000
  O   O3        1.0  0.84937  0.70765  0.25456  1.0000
  O   O4        1.0  0.73802  0.21411  0.28305  1.0000
  O   O5        1.0  0.010820000000000008  0.32029  0.27484  1.0000
  O   O6        1.0  0.39599000000000006  0.1259  0.09177  1.0000
  O   O7        1.0  0.058249999999999996  0.16721000000000003  0.11295  1.0000
  O   O8        1.0  0.45472  0.84699  0.08370999999999998  1.0000
  O   O9        1.0  0.14185  0.79287  0.10442  1.0000
  O   O10       1.0  0.79995  0.0008799999999999996  0.03791  1.0000
  O   O11       1.0  0.847  0.40669  0.72495  1.0000
  O   O12       1.0  0.15279999999999996  0.29148  0.74166  1.0000
  O   O13       1.0  0.26184  0.78584  0.7168199999999998  1.0000
  O   O14       1.0  0.98907  0.6798  0.72509  1.0000
  O   O15       1.0  0.60409  0.8799999999999999  0.9077999999999998  1.0000
  O   O16       1.0  0.9413  0.8334300000000001  0.8864899999999998  1.0000
  O   O17       1.0  0.54427  0.15911  0.91309  1.0000
  O   O18       1.0  0.85811  0.21217  0.89236  1.0000
