data_image0
_chemical_formula_structural       Co2H18C26N8O4
_chemical_formula_sum              "Co2 H18 C26 N8 O4"
_cell_length_a       5.33567
_cell_length_b       11.02774
_cell_length_c       11.587870000000002
_cell_angle_alpha    97.38733
_cell_angle_beta     89.78241
_cell_angle_gamma    104.31063

_symmetry_space_group_name_H-M    'P 1'
_symmetry_Int_Tables_number       1

loop_
  _symmetry_equiv_pos_as_xyz
  'x,y,z'

loop_
  _atom_site_type_symbol
  _atom_site_label
  _atom_site_symmetry_multiplicity
  _atom_site_fract_x
  _atom_site_fract_y
  _atom_site_fract_z
  _atom_site_occupancy
  Co  Co1       1.0  0.57874  0.6241  0.13469  1.0000
  Co  Co2       1.0  0.9430599999999997  0.37989  0.8683  1.0000
  H   H1        1.0  0.66095  0.87663  0.53583  1.0000
  H   H2        1.0  0.6549799999999999  0.86101  0.90537  1.0000
  H   H3        1.0  0.23443000000000003  0.5392300000000001  0.67386  1.0000
  H   H4        1.0  0.55031  0.78663  0.37563  1.0000
  H   H5        1.0  0.19645000000000004  0.40218000000000004  0.26638  1.0000
  H   H6        1.0  0.18219  0.44678  0.50571  1.0000
  H   H7        1.0  0.6284099999999999  0.09916000000000001  0.8670600000000002  1.0000
  H   H8        1.0  0.3436  0.23534  0.71242  1.0000
  H   H9        1.0  0.1580900000000001  0.9779100000000002  0.63211  1.0000
  H   H10       1.0  0.7863699999999999  0.12567  0.46338  1.0000
  H   H11       1.0  0.78815  0.141  0.09391  1.0000
  H   H12       1.0  0.69317  0.46135000000000004  0.32762  1.0000
  H   H13       1.0  0.7584  0.21453000000000005  0.62506  1.0000
  H   H14       1.0  0.79602  0.59947  0.73323  1.0000
  H   H15       1.0  0.73708  0.5536  0.4939  1.0000
  H   H16       1.0  0.5370400000000001  0.9010700000000003  0.13255  1.0000
  H   H17       1.0  0.12025000000000002  0.7742700000000001  0.29033  1.0000
  H   H18       1.0  0.18274999999999997  0.03171  0.36882  1.0000
  C   C1        1.0  0.42501999999999995  0.70182  0.59213  1.0000
  C   C2        1.0  0.58943  0.82544  0.60794  1.0000
  C   C3        1.0  0.66618  0.8799400000000003  0.72296  1.0000
  C   C4        1.0  0.58205  0.81916  0.81826  1.0000
  C   C5        1.0  0.41783  0.69507  0.8016300000000001  1.0000
  C   C6        1.0  0.34278  0.63756  0.68682  1.0000
  C   C7        1.0  0.4498099999999999  0.68946  0.37743000000000004  1.0000
  C   C8        1.0  0.26147000000000004  0.4903300000000001  0.32389  1.0000
  C   C9        1.0  0.24790999999999996  0.5114  0.44312  1.0000
  C   C10       1.0  0.7977700000000002  0.10342000000000003  0.81461  1.0000
  C   C11       1.0  0.16829  0.16878000000000004  0.7328  1.0000
  C   C12       1.0  0.07638000000000002  0.042450000000000036  0.6900300000000001  1.0000
  C   C13       1.0  0.36837999999999993  0.6243000000000001  0.90189  1.0000
  C   C14       1.0  0.7214199999999998  0.29927  0.40853000000000006  1.0000
  C   C15       1.0  0.7637399999999999  0.17661999999999997  0.39178  1.0000
  C   C16       1.0  0.78511  0.12270000000000002  0.27643  1.0000
  C   C17       1.0  0.75807  0.18271000000000004  0.18133000000000002  1.0000
  C   C18       1.0  0.71827  0.30634  0.19914  1.0000
  C   C19       1.0  0.7033  0.36342  0.31426  1.0000
  C   C20       1.0  0.75738  0.31181000000000003  0.62329  1.0000
  C   C21       1.0  0.77137  0.5111200000000002  0.67596  1.0000
  C   C22       1.0  0.7371899999999999  0.48949  0.55689  1.0000
  C   C23       1.0  0.7025  0.89937  0.18533  1.0000
  C   C24       1.0  0.009640000000000022  0.8391  0.26911  1.0000
  C   C25       1.0  0.039130000000000005  0.9652  0.31081  1.0000
  C   C26       1.0  0.7395  0.37862  0.10017  1.0000
  N   N1        1.0  0.36507  0.63899  0.47702  1.0000
  N   N2        1.0  0.38842  0.60147  0.28329  1.0000
  N   N3        1.0  0.84074  0.002580000000000041  0.7420100000000002  1.0000
  N   N4        1.0  0.99385  0.20529  0.80976  1.0000
  N   N5        1.0  0.7247  0.36188  0.52359  1.0000
  N   N6        1.0  0.78461  0.40032  0.71714  1.0000
  N   N7        1.0  0.8424  0.0018300000000000063  0.25751  1.0000
  N   N8        1.0  0.8001899999999997  0.79954  0.1917  1.0000
  O   O1        1.0  0.4583  0.68603  0.00155  1.0000
  O   O2        1.0  0.26335  0.50474  0.88822  1.0000
  O   O3        1.0  0.7487500000000001  0.31686  0.99849  1.0000
  O   O4        1.0  0.7738499999999999  0.49963000000000013  0.11716  1.0000
