data_image0
_chemical_formula_structural       Ce4H12C36O24
_chemical_formula_sum              "Ce4 H12 C36 O24"
_cell_length_a       10.62486
_cell_length_b       13.22114
_cell_length_c       13.125959999999997
_cell_angle_alpha    89.96525
_cell_angle_beta     89.9785
_cell_angle_gamma    101.4208

_symmetry_space_group_name_H-M    'P 1'
_symmetry_Int_Tables_number       1

loop_
  _symmetry_equiv_pos_as_xyz
  'x,y,z'

loop_
  _atom_site_type_symbol
  _atom_site_label
  _atom_site_symmetry_multiplicity
  _atom_site_fract_x
  _atom_site_fract_y
  _atom_site_fract_z
  _atom_site_occupancy
  Ce  Ce1       1.0  0.38112  0.58702  0.94483  1.0000
  Ce  Ce2       1.0  0.11885999999999997  0.9114299999999997  0.44532  1.0000
  Ce  Ce3       1.0  0.61875  0.41243  0.05502  1.0000
  Ce  Ce4       1.0  0.8812800000000001  0.08739999999999998  0.55507  1.0000
  H   H1        1.0  0.07035  0.39145  0.036  1.0000
  H   H2        1.0  0.8507300000000001  0.17591999999999994  0.24577  1.0000
  H   H3        1.0  0.2569  0.18505  0.20749  1.0000
  H   H4        1.0  0.43038  0.10736999999999997  0.53661  1.0000
  H   H5        1.0  0.64965  0.32429  0.74504  1.0000
  H   H6        1.0  0.24289  0.313  0.70826  1.0000
  H   H7        1.0  0.9298700000000001  0.6084399999999999  0.96417  1.0000
  H   H8        1.0  0.14938999999999997  0.8240199999999998  0.75433  1.0000
  H   H9        1.0  0.74316  0.81464  0.79253  1.0000
  H   H10       1.0  0.5697  0.8918299999999999  0.46311  1.0000
  H   H11       1.0  0.35037000000000007  0.6753899999999999  0.25439  1.0000
  H   H12       1.0  0.7571800000000001  0.68641  0.29123  1.0000
  C   C1        1.0  0.30294  0.34705999999999987  0.07392  1.0000
  C   C2        1.0  0.17759999999999998  0.29483999999999994  0.11862  1.0000
  C   C3        1.0  0.06587999999999997  0.3295399999999999  0.09131000000000002  1.0000
  C   C4        1.0  0.9478500000000001  0.28536999999999996  0.13552  1.0000
  C   C5        1.0  0.94197  0.2082  0.2095  1.0000
  C   C6        1.0  0.05302  0.1714  0.23471  1.0000
  C   C7        1.0  0.17061  0.21358999999999997  0.1882  1.0000
  C   C8        1.0  0.04725000000000001  0.08782999999999999  0.3117  1.0000
  C   C9        1.0  0.83044  0.32215  0.10241  1.0000
  C   C10       1.0  0.19798  0.15201  0.57221  1.0000
  C   C11       1.0  0.32259  0.20381999999999995  0.61848  1.0000
  C   C12       1.0  0.43468  0.1694  0.59164  1.0000
  C   C13       1.0  0.55262  0.21407  0.63559  1.0000
  C   C14       1.0  0.55823  0.29125  0.70943  1.0000
  C   C15       1.0  0.44654000000000005  0.32691999999999993  0.73511  1.0000
  C   C16       1.0  0.32908999999999994  0.28451  0.68853  1.0000
  C   C17       1.0  0.45136  0.41034  0.81196  1.0000
  C   C18       1.0  0.67037  0.17780999999999997  0.60239  1.0000
  C   C19       1.0  0.6972200000000001  0.6518699999999997  0.92606  1.0000
  C   C20       1.0  0.8223600000000001  0.70476  0.88153  1.0000
  C   C21       1.0  0.93423  0.6703  0.9088200000000001  1.0000
  C   C22       1.0  0.05222  0.71458  0.86458  1.0000
  C   C23       1.0  0.058059999999999924  0.7917299999999998  0.7905200000000001  1.0000
  C   C24       1.0  0.94686  0.8283999999999998  0.76541  1.0000
  C   C25       1.0  0.82932  0.7860299999999999  0.81195  1.0000
  C   C26       1.0  0.95216  0.91205  0.68859  1.0000
  C   C27       1.0  0.16977000000000003  0.6778799999999999  0.89769  1.0000
  C   C28       1.0  0.8015099999999998  0.84744  0.42777  1.0000
  C   C29       1.0  0.67739  0.79547  0.38099  1.0000
  C   C30       1.0  0.5654  0.82994  0.40791  1.0000
  C   C31       1.0  0.44754000000000005  0.78545  0.36389000000000005  1.0000
  C   C32       1.0  0.44184  0.70827  0.29001  1.0000
  C   C33       1.0  0.5534499999999999  0.6723599999999997  0.2644  1.0000
  C   C34       1.0  0.67093  0.71482  0.31092  1.0000
  C   C35       1.0  0.54816  0.58857  0.18787  1.0000
  C   C36       1.0  0.33016  0.8219799999999998  0.3973900000000001  1.0000
  O   O1        1.0  0.30008  0.41939  0.01013  1.0000
  O   O2        1.0  0.40617000000000003  0.31844999999999996  0.10096  1.0000
  O   O3        1.0  0.8419100000000002  0.3940399999999999  0.03499  1.0000
  O   O4        1.0  0.7202  0.28313  0.14098  1.0000
  O   O5        1.0  0.96543  0.08149999999999999  0.38468  1.0000
  O   O6        1.0  0.12398  0.025319999999999992  0.30249  1.0000
  O   O7        1.0  0.2014  0.07893  0.50963  1.0000
  O   O8        1.0  0.09449  0.18172  0.59666  1.0000
  O   O9        1.0  0.65951  0.10614999999999997  0.53485  1.0000
  O   O10       1.0  0.78033  0.21693999999999994  0.64115  1.0000
  O   O11       1.0  0.53349  0.4179299999999999  0.88478  1.0000
  O   O12       1.0  0.37363  0.47194  0.80268  1.0000
  O   O13       1.0  0.70038  0.58013  0.99037  1.0000
  O   O14       1.0  0.59347  0.6791499999999999  0.89837  1.0000
  O   O15       1.0  0.15838  0.60604  0.9651500000000001  1.0000
  O   O16       1.0  0.27996  0.7168299999999999  0.85902  1.0000
  O   O17       1.0  0.03300999999999991  0.9184399999999998  0.615  1.0000
  O   O18       1.0  0.87566  0.9746599999999999  0.69826  1.0000
  O   O19       1.0  0.7964400000000001  0.91988  0.49071  1.0000
  O   O20       1.0  0.90556  0.8184399999999997  0.40351  1.0000
  O   O21       1.0  0.3416199999999999  0.8936799999999998  0.46491  1.0000
  O   O22       1.0  0.21992999999999996  0.7829299999999998  0.3589  1.0000
  O   O23       1.0  0.46681000000000006  0.58202  0.11464000000000002  1.0000
  O   O24       1.0  0.62448  0.52579  0.19762  1.0000
