data_image0
_chemical_formula_structural       Tb2H12C24O12
_chemical_formula_sum              "Tb2 H12 C24 O12"
_cell_length_a       8.87207
_cell_length_b       10.37634
_cell_length_c       11.45676
_cell_angle_alpha    56.10938
_cell_angle_beta     68.18182
_cell_angle_gamma    82.50958999999999

_space_group_name_H-M_alt    "P 1"
_space_group_IT_number       1

loop_
  _space_group_symop_operation_xyz
  'x, y, z'

loop_
  _atom_site_type_symbol
  _atom_site_label
  _atom_site_symmetry_multiplicity
  _atom_site_fract_x
  _atom_site_fract_y
  _atom_site_fract_z
  _atom_site_occupancy
  Tb  Tb1       1.0  0.40009000000000006  0.11326000000000012  0.8076199999999999  1.0000
  Tb  Tb2       1.0  0.60359  0.90093  0.19617  1.0000
  H   H1        1.0  0.88249  0.29686000000000007  0.7739699999999999  1.0000
  H   H2        1.0  0.30185  0.53277  0.36336  1.0000
  H   H3        1.0  0.74743  0.91323  0.50896  1.0000
  H   H4        1.0  0.9761399999999999  0.15364000000000003  0.61665  1.0000
  H   H5        1.0  0.67131  0.2909  0.10953  1.0000
  H   H6        1.0  0.35187999999999997  0.5042700000000001  0.85848  1.0000
  H   H7        1.0  0.12187999999999999  0.71285  0.22589  1.0000
  H   H8        1.0  0.7024900000000001  0.4764400000000002  0.6365899999999999  1.0000
  H   H9        1.0  0.25318000000000007  0.10120999999999998  0.48802  1.0000
  H   H10       1.0  0.02481  0.86075  0.38042  1.0000
  H   H11       1.0  0.33544000000000007  0.72354  0.8934599999999999  1.0000
  H   H12       1.0  0.65372  0.50957  0.14543  1.0000
  C   C1        1.0  0.9333699999999999  0.38867  0.65462  1.0000
  C   C2        1.0  0.10193000000000002  0.40574999999999994  0.5757  1.0000
  C   C3        1.0  0.17073000000000002  0.5219400000000001  0.42098  1.0000
  C   C4        1.0  0.20794  0.29794000000000004  0.65549  1.0000
  C   C5        1.0  0.8585699999999999  0.95365  0.50357  1.0000
  C   C6        1.0  0.8475500000000001  0.03678999999999997  0.56945  1.0000
  C   C7        1.0  0.98905  0.0900300000000001  0.5643099999999999  1.0000
  C   C8        1.0  0.6866199999999998  0.06932000000000008  0.6466699999999999  1.0000
  C   C9        1.0  0.59806  0.38557  0.06269  1.0000
  C   C10       1.0  0.5125199999999999  0.3844000000000001  0.98175  1.0000
  C   C11       1.0  0.4170600000000001  0.5063200000000001  0.9212599999999999  1.0000
  C   C12       1.0  0.5209199999999999  0.25382  0.9609699999999999  1.0000
  C   C13       1.0  0.07088999999999997  0.62104  0.34525  1.0000
  C   C14       1.0  0.9023499999999998  0.6043000000000001  0.42431  1.0000
  C   C15       1.0  0.83355  0.48761  0.57885  1.0000
  C   C16       1.0  0.7957299999999999  0.7131100000000001  0.34601  1.0000
  C   C17       1.0  0.14181  0.06074000000000003  0.49382  1.0000
  C   C18       1.0  0.15274999999999997  0.97696  0.4287  1.0000
  C   C19       1.0  0.011439999999999955  0.9242200000000003  0.43305  1.0000
  C   C20       1.0  0.31407999999999997  0.94297  0.35438  1.0000
  C   C21       1.0  0.40739  0.6279900000000002  0.94142  1.0000
  C   C22       1.0  0.49278  0.6290500000000001  0.02246  1.0000
  C   C23       1.0  0.58808  0.5070800000000001  0.08315  1.0000
  C   C24       1.0  0.48501999999999995  0.7602899999999999  0.04218999999999999  1.0000
  O   O1        1.0  0.36384999999999995  0.32485  0.58962  1.0000
  O   O2        1.0  0.14316  0.17628999999999997  0.79135  1.0000
  O   O3        1.0  0.55341  0.01596000000000009  0.6611799999999999  1.0000
  O   O4        1.0  0.68151  0.15015999999999996  0.70186  1.0000
  O   O5        1.0  0.42747  0.24905  0.90098  1.0000
  O   O6        1.0  0.62062  0.15142  0.00328  1.0000
  O   O7        1.0  0.6399099999999999  0.6855300000000002  0.41226  1.0000
  O   O8        1.0  0.8597499999999999  0.83682  0.21138  1.0000
  O   O9        1.0  0.4463  0.9960500000000002  0.34217  1.0000
  O   O10       1.0  0.32132999999999995  0.86138  0.29962  1.0000
  O   O11       1.0  0.57867  0.7655200000000001  0.10175  1.0000
  O   O12       1.0  0.38579  0.86296  0.99922  1.0000
