data_image0
_chemical_formula_structural       Cu2H4C20O16
_chemical_formula_sum              "Cu2 H4 C20 O16"
_cell_length_a       7.08788
_cell_length_b       7.16861
_cell_length_c       16.328640000000004
_cell_angle_alpha    90.03053
_cell_angle_beta     90.04241
_cell_angle_gamma    120.53086

_symmetry_space_group_name_H-M    'P 1'
_symmetry_Int_Tables_number       1

loop_
  _symmetry_equiv_pos_as_xyz
  'x,y,z'

loop_
  _atom_site_type_symbol
  _atom_site_label
  _atom_site_symmetry_multiplicity
  _atom_site_fract_x
  _atom_site_fract_y
  _atom_site_fract_z
  _atom_site_occupancy
  Cu  Cu1       1.0  0.9966300000000001  0.003  0.99869  1.0000
  Cu  Cu2       1.0  0.9971100000000002  0.00246  0.50064  1.0000
  H   H1        1.0  0.006829999999999951  0.8547099999999999  0.7493099999999998  1.0000
  H   H2        1.0  0.9930800000000002  0.15108  0.75006  1.0000
  H   H3        1.0  0.14111999999999997  0.9935  0.25069  1.0000
  H   H4        1.0  0.8524700000000002  0.00636  0.24996  1.0000
  C   C1        1.0  0.0008300000000000364  0.60253  0.82362  1.0000
  C   C2        1.0  0.99375  0.40106  0.82362  1.0000
  C   C3        1.0  0.97155  0.6946399999999999  0.90255  1.0000
  C   C4        1.0  0.01962  0.30592  0.9022899999999998  1.0000
  C   C5        1.0  0.3958  0.99874  0.17627  1.0000
  C   C6        1.0  0.5999000000000001  0.00625  0.17630999999999994  1.0000
  C   C7        1.0  0.30423  0.027609999999999996  0.09683  1.0000
  C   C8        1.0  0.69533  0.98116  0.0973  1.0000
  C   C9        1.0  0.3968499999999999  0.9991899999999999  0.3242  1.0000
  C   C10       1.0  0.5999600000000003  0.0056  0.3241099999999999  1.0000
  C   C11       1.0  0.30733  0.02767  0.40405  1.0000
  C   C12       1.0  0.69423  0.9799099999999998  0.40324  1.0000
  C   C13       1.0  0.0009099999999999818  0.60207  0.6755899999999998  1.0000
  C   C14       1.0  0.9943899999999999  0.40104  0.6756699999999998  1.0000
  C   C15       1.0  0.9717899999999999  0.69185  0.59604  1.0000
  C   C16       1.0  0.020849999999999997  0.30719  0.59668  1.0000
  C   C17       1.0  0.0034899999999999593  0.70103  0.74953  1.0000
  C   C18       1.0  0.99422  0.30363  0.74967  1.0000
  C   C19       1.0  0.2965000000000001  0.99675  0.25035  1.0000
  C   C20       1.0  0.6983100000000002  0.005319999999999999  0.2501999999999999  1.0000
  O   O1        1.0  0.10317000000000001  0.90111  0.91352  1.0000
  O   O2        1.0  0.8165900000000003  0.56923  0.94608  1.0000
  O   O3        1.0  0.8840199999999999  0.10045999999999998  0.91363  1.0000
  O   O4        1.0  0.17684000000000002  0.42798  0.94587  1.0000
  O   O5        1.0  0.09707999999999999  0.89476  0.08366  1.0000
  O   O6        1.0  0.43157  0.18355  0.05441  1.0000
  O   O7        1.0  0.9020899999999998  0.11661999999999999  0.08462  1.0000
  O   O8        1.0  0.57183  0.8241499999999999  0.05428  1.0000
  O   O9        1.0  0.09937000000000001  0.8971  0.41572  1.0000
  O   O10       1.0  0.43647  0.17998  0.44782  1.0000
  O   O11       1.0  0.9012  0.1149  0.4153799999999999  1.0000
  O   O12       1.0  0.57089  0.82417  0.44678  1.0000
  O   O13       1.0  0.1014500000000001  0.89849  0.5851299999999998  1.0000
  O   O14       1.0  0.81937  0.56368  0.55184  1.0000
  O   O15       1.0  0.88547  0.10189999999999999  0.58505  1.0000
  O   O16       1.0  0.17734  0.42961  0.55291  1.0000
