data_image0
_chemical_formula_structural       Cu8H12C32O24
_chemical_formula_sum              "Cu8 H12 C32 O24"
_cell_length_a       7.38964
_cell_length_b       12.10397
_cell_length_c       18.635780000000004
_cell_angle_alpha    90.0533
_cell_angle_beta     89.97047
_cell_angle_gamma    96.91446

_symmetry_space_group_name_H-M    'P 1'
_symmetry_Int_Tables_number       1

loop_
  _symmetry_equiv_pos_as_xyz
  'x,y,z'

loop_
  _atom_site_type_symbol
  _atom_site_label
  _atom_site_symmetry_multiplicity
  _atom_site_fract_x
  _atom_site_fract_y
  _atom_site_fract_z
  _atom_site_occupancy
  Cu  Cu1       1.0  0.07436000000000002  0.50599  0.9285  1.0000
  Cu  Cu2       1.0  0.71107  0.56177  0.9291799999999999  1.0000
  Cu  Cu3       1.0  0.4253400000000001  0.9984100000000001  0.43107  1.0000
  Cu  Cu4       1.0  0.7901400000000002  0.94248  0.43201  1.0000
  Cu  Cu5       1.0  0.9234900000000003  0.4970700000000001  0.06848  1.0000
  Cu  Cu6       1.0  0.28887000000000007  0.43896000000000013  0.06808  1.0000
  Cu  Cu7       1.0  0.5724200000000002  0.00466  0.57163  1.0000
  Cu  Cu8       1.0  0.21084  0.06162  0.57  1.0000
  H   H1        1.0  0.30078  0.68887  0.78101  1.0000
  H   H2        1.0  0.4335200000000002  0.79307  0.67341  1.0000
  H   H3        1.0  0.78498  0.81091  0.7434  1.0000
  H   H4        1.0  0.19812000000000005  0.8163900000000001  0.27994  1.0000
  H   H5        1.0  0.06284000000000005  0.7089400000000002  0.17381  1.0000
  H   H6        1.0  0.7091000000000003  0.6870700000000001  0.24515  1.0000
  H   H7        1.0  0.6975600000000002  0.30979  0.21654000000000004  1.0000
  H   H8        1.0  0.5630000000000002  0.20834  0.32481  1.0000
  H   H9        1.0  0.21197  0.18786  0.25655  1.0000
  H   H10       1.0  0.7987800000000002  0.18869000000000002  0.71833  1.0000
  H   H11       1.0  0.93188  0.29178  0.82642  1.0000
  H   H12       1.0  0.28441  0.31275  0.75638  1.0000
  C   C1        1.0  0.9588000000000002  0.66796  0.82708  1.0000
  C   C2        1.0  0.03347000000000003  0.74057  0.76696  1.0000
  C   C3        1.0  0.21890000000000012  0.73826  0.74838  1.0000
  C   C4        1.0  0.2927100000000001  0.7958000000000001  0.6897  1.0000
  C   C5        1.0  0.18421  0.86062  0.64748  1.0000
  C   C6        1.0  0.9997300000000001  0.86958  0.66932  1.0000
  C   C7        1.0  0.92622  0.80764  0.72793  1.0000
  C   C8        1.0  0.8866000000000003  0.93988  0.6273  1.0000
  C   C9        1.0  0.5360600000000002  0.83231  0.32961  1.0000
  C   C10       1.0  0.46289000000000013  0.76083  0.26801  1.0000
  C   C11       1.0  0.27872000000000013  0.7650400000000003  0.24815000000000004  1.0000
  C   C12       1.0  0.20344000000000004  0.70581  0.19026  1.0000
  C   C13       1.0  0.3102  0.63818  0.14921  1.0000
  C   C14       1.0  0.4951300000000001  0.63018  0.17072  1.0000
  C   C15       1.0  0.56845  0.69198  0.22952  1.0000
  C   C16       1.0  0.6116800000000002  0.56313  0.12766  1.0000
  C   C17       1.0  0.035180000000000024  0.32807  0.16865  1.0000
  C   C18       1.0  0.9641200000000002  0.25788  0.23089999999999997  1.0000
  C   C19       1.0  0.77878  0.26098  0.2498  1.0000
  C   C20       1.0  0.7039600000000003  0.20503  0.30889  1.0000
  C   C21       1.0  0.81098  0.14046000000000003  0.35199  1.0000
  C   C22       1.0  0.9963400000000001  0.13191  0.33072  1.0000
  C   C23       1.0  0.07050000000000001  0.19217000000000004  0.27137  1.0000
  C   C24       1.0  0.11222000000000003  0.06458  0.37375  1.0000
  C   C25       1.0  0.4562500000000001  0.16692  0.67282  1.0000
  C   C26       1.0  0.53178  0.2405  0.73247  1.0000
  C   C27       1.0  0.71715  0.23802000000000006  0.75114  1.0000
  C   C28       1.0  0.7912800000000002  0.29506  0.81004  1.0000
  C   C29       1.0  0.6836500000000002  0.36027  0.85251  1.0000
  C   C30       1.0  0.4994600000000001  0.3699  0.83037  1.0000
  C   C31       1.0  0.42551  0.30829  0.77159  1.0000
  C   C32       1.0  0.38630000000000003  0.4402800000000001  0.8723599999999999  1.0000
  O   O1        1.0  0.06998000000000003  0.59937  0.84718  1.0000
  O   O2        1.0  0.80031  0.67593  0.85163  1.0000
  O   O3        1.0  0.71492  0.9095700000000001  0.62576  1.0000
  O   O4        1.0  0.9553700000000003  0.027490000000000007  0.59322  1.0000
  O   O5        1.0  0.08256  0.41606  0.00822  1.0000
  O   O6        1.0  0.25488  0.90633  0.5889  1.0000
  O   O7        1.0  0.41696  0.88925  0.35631  1.0000
  O   O8        1.0  0.7008200000000002  0.83269  0.34969  1.0000
  O   O9        1.0  0.7822800000000002  0.59437  0.1267  1.0000
  O   O10       1.0  0.5439200000000002  0.4769  0.0913  1.0000
  O   O11       1.0  0.4276  0.08863  0.51675  1.0000
  O   O12       1.0  0.23681000000000005  0.58991  0.09167  1.0000
  O   O13       1.0  0.9199400000000001  0.39031  0.14526  1.0000
  O   O14       1.0  0.19628000000000007  0.3226800000000001  0.14472  1.0000
  O   O15       1.0  0.28319  0.09541  0.37445  1.0000
  O   O16       1.0  0.04499  0.97855  0.41021  1.0000
  O   O17       1.0  0.9274000000000002  0.5886  0.98253  1.0000
  O   O18       1.0  0.7375800000000001  0.09528  0.41043  1.0000
  O   O19       1.0  0.56267  0.09436000000000001  0.65473  1.0000
  O   O20       1.0  0.3003200000000001  0.17749  0.64669  1.0000
  O   O21       1.0  0.21425  0.41079  0.87295  1.0000
  O   O22       1.0  0.4551000000000002  0.52712  0.90733  1.0000
  O   O23       1.0  0.5826000000000002  0.91702  0.49058000000000007  1.0000
  O   O24       1.0  0.75491  0.40601  0.9109700000000001  1.0000
