data_image0
_chemical_formula_structural       Mg4P3H5C8O28
_chemical_formula_sum              "Mg4 P3 H5 C8 O28"
_cell_length_a       7.90997
_cell_length_b       10.11149
_cell_length_c       9.319690000000001
_cell_angle_alpha    81.84121000000002
_cell_angle_beta     66.58338
_cell_angle_gamma    88.66988

_space_group_name_H-M_alt    "P 1"
_space_group_IT_number       1

loop_
  _space_group_symop_operation_xyz
  'x, y, z'

loop_
  _atom_site_type_symbol
  _atom_site_label
  _atom_site_symmetry_multiplicity
  _atom_site_fract_x
  _atom_site_fract_y
  _atom_site_fract_z
  _atom_site_occupancy
  Mg  Mg1       1.0  0.0037900000000000073  0.58541  0.22730999999999998  1.0000
  Mg  Mg2       1.0  0.41234  0.51854  0.94204  1.0000
  Mg  Mg3       1.0  0.12610000000000005  0.06572000000000001  0.4039799999999999  1.0000
  Mg  Mg4       1.0  0.1628300000000001  0.9896199999999999  0.7510099999999997  1.0000
  P   P1        1.0  0.67457  0.5171799999999999  0.12656  1.0000
  P   P2        1.0  0.41324999999999995  0.17375999999999994  0.54868  1.0000
  P   P3        1.0  0.8603299999999999  0.86776  0.66584  1.0000
  H   H1        1.0  0.4791  0.4844299999999999  0.37309  1.0000
  H   H2        1.0  0.58868  0.32214999999999994  0.2697499999999999  1.0000
  H   H3        1.0  0.7088899999999998  0.15209999999999999  0.50293  1.0000
  H   H4        1.0  0.62274  0.95834  0.63401  1.0000
  H   H5        1.0  0.7916999999999995  0.6720199999999998  0.82194  1.0000
  C   C1        1.0  0.86423  0.89639  0.24948999999999996  1.0000
  C   C2        1.0  0.2463699999999998  0.74459  0.33726  1.0000
  C   C3        1.0  0.15453  0.3173  0.23371  1.0000
  C   C4        1.0  0.97392  0.31914  0.3833  1.0000
  C   C5        1.0  0.32211999999999985  0.7359500000000001  0.76495  1.0000
  C   C6        1.0  0.22911000000000006  0.7707199999999997  0.93581  1.0000
  C   C7        1.0  0.031100000000000017  0.31874  0.85664  1.0000
  C   C8        1.0  0.5191500000000002  0.21008999999999997  0.9067599999999998  1.0000
  O   O1        1.0  0.62533  0.56724  0.9847899999999999  1.0000
  O   O2        1.0  0.86213  0.57328  0.09992  1.0000
  O   O3        1.0  0.51748  0.5596  0.28367  1.0000
  O   O4        1.0  0.6659599999999998  0.35823  0.15352  1.0000
  O   O5        1.0  0.29201999999999995  0.07941  0.50558  1.0000
  O   O6        1.0  0.3167400000000001  0.15957  0.72986  1.0000
  O   O7        1.0  0.4571  0.31164  0.4517799999999999  1.0000
  O   O8        1.0  0.6061  0.09408  0.50765  1.0000
  O   O9        1.0  0.97611  0.90028  0.48638999999999993  1.0000
  O   O10       1.0  0.9170199999999998  0.95912  0.75711  1.0000
  O   O11       1.0  0.6475000000000001  0.8804299999999999  0.7012799999999998  1.0000
  O   O12       1.0  0.8817600000000001  0.7140700000000001  0.7159  1.0000
  O   O13       1.0  0.8421699999999999  0.77929  0.2845099999999999  1.0000
  O   O14       1.0  0.88329  0.01252  0.21474  1.0000
  O   O15       1.0  0.14578000000000005  0.6491199999999999  0.3801099999999999  1.0000
  O   O16       1.0  0.34482  0.8397499999999999  0.2912  1.0000
  O   O17       1.0  0.2069  0.43033  0.14638  1.0000
  O   O18       1.0  0.23262  0.20808999999999997  0.20794999999999994  1.0000
  O   O19       1.0  0.8913099999999999  0.42701  0.40272  1.0000
  O   O20       1.0  0.9244499999999997  0.20688999999999982  0.47235  1.0000
  O   O21       1.0  0.3006499999999998  0.81952  0.66048  1.0000
  O   O22       1.0  0.4062  0.6269599999999999  0.7482  1.0000
  O   O23       1.0  0.15079000000000006  0.87986  0.9586399999999999  1.0000
  O   O24       1.0  0.23344  0.6802  0.0463  1.0000
  O   O25       1.0  0.93325  0.23412999999999995  0.85385  1.0000
  O   O26       1.0  0.12437999999999995  0.40547  0.86113  1.0000
  O   O27       1.0  0.5259299999999998  0.0958  0.94343  1.0000
  O   O28       1.0  0.5174099999999999  0.32679  0.8676299999999998  1.0000
