data_image0
_chemical_formula_structural       Ni4H28C44O20
_chemical_formula_sum              "Ni4 H28 C44 O20"
_cell_length_a       10.31827
_cell_length_b       11.33063
_cell_length_c       12.07129
_cell_angle_alpha    92.18438
_cell_angle_beta     110.03739
_cell_angle_gamma    109.44704

_space_group_name_H-M_alt    "P 1"
_space_group_IT_number       1

loop_
  _space_group_symop_operation_xyz
  'x, y, z'

loop_
  _atom_site_type_symbol
  _atom_site_label
  _atom_site_symmetry_multiplicity
  _atom_site_fract_x
  _atom_site_fract_y
  _atom_site_fract_z
  _atom_site_occupancy
  Ni  Ni1       1.0  0.79598  0.5258  0.7022299999999999  1.0000
  Ni  Ni2       1.0  0.19876000000000002  0.47335  0.29696  1.0000
  Ni  Ni3       1.0  0.49724999999999997  0.49873999999999996  0.49775999999999987  1.0000
  Ni  Ni4       1.0  0.9970700000000001  0.49727999999999994  0.9979599999999998  1.0000
  H   H1        1.0  0.6795899999999999  0.3996199999999999  0.4910299999999999  1.0000
  H   H2        1.0  0.8292599999999999  0.56326  0.50935  1.0000
  H   H3        1.0  0.9120399999999999  0.66388  0.9055399999999999  1.0000
  H   H4        1.0  0.7275699999999999  0.54065  0.8855999999999998  1.0000
  H   H5        1.0  0.9741899999999998  0.9414399999999999  0.6892299999999998  1.0000
  H   H6        1.0  0.60153  0.10488  0.73  1.0000
  H   H7        1.0  0.5518999999999998  0.7461799999999998  0.8099799999999999  1.0000
  H   H8        1.0  0.39129999999999987  0.9431199999999998  0.5264099999999999  1.0000
  H   H9        1.0  0.13496999999999998  0.31133999999999995  0.90665  1.0000
  H   H10       1.0  0.07344  0.10408999999999999  0.57456  1.0000
  H   H11       1.0  0.29042999999999997  0.61798  0.7825299999999998  1.0000
  H   H12       1.0  0.13183999999999993  0.8063499999999999  0.49260999999999994  1.0000
  H   H13       1.0  0.38244999999999996  0.45299999999999996  0.9225199999999998  1.0000
  H   H14       1.0  0.32166  0.24981  0.5887599999999998  1.0000
  H   H15       1.0  0.31844  0.60042  0.50842  1.0000
  H   H16       1.0  0.16891000000000003  0.4371  0.49073999999999995  1.0000
  H   H17       1.0  0.08605  0.33349999999999996  0.09465  1.0000
  H   H18       1.0  0.26928  0.45994999999999997  0.11351  1.0000
  H   H19       1.0  0.02363  0.05595999999999999  0.30958  1.0000
  H   H20       1.0  0.3960600000000001  0.8943999999999999  0.26579  1.0000
  H   H21       1.0  0.44636  0.25273  0.18874999999999997  1.0000
  H   H22       1.0  0.60608  0.05462  0.4715399999999999  1.0000
  H   H23       1.0  0.86236  0.6857499999999999  0.09171999999999997  1.0000
  H   H24       1.0  0.92526  0.8941599999999998  0.42369  1.0000
  H   H25       1.0  0.70815  0.38172  0.21736  1.0000
  H   H26       1.0  0.8657799999999999  0.19211999999999996  0.5064299999999999  1.0000
  H   H27       1.0  0.61459  0.54547  0.07582999999999998  1.0000
  H   H28       1.0  0.6772299999999999  0.7495099999999999  0.41005  1.0000
  C   C1        1.0  0.71516  0.75324  0.64775  1.0000
  C   C2        1.0  0.7505099999999999  0.8928699999999998  0.6789599999999998  1.0000
  C   C3        1.0  0.8928099999999998  0.9789299999999999  0.6973599999999999  1.0000
  C   C4        1.0  0.6425299999999999  0.9377299999999997  0.68941  1.0000
  C   C5        1.0  0.93432  0.11096  0.7278  1.0000
  C   C6        1.0  0.68346  0.06871  0.72097  1.0000
  C   C7        1.0  0.48893  0.85406  0.67054  1.0000
  C   C8        1.0  0.08420999999999997  0.19765999999999997  0.7387599999999999  1.0000
  C   C9        1.0  0.8265199999999999  0.15445999999999993  0.7423699999999999  1.0000
  C   C10       1.0  0.45998  0.76095  0.74191  1.0000
  C   C11       1.0  0.36975  0.87188  0.58243  1.0000
  C   C12       1.0  0.17413  0.29785  0.83628  1.0000
  C   C13       1.0  0.14076999999999995  0.18079999999999996  0.6507999999999999  1.0000
  C   C14       1.0  0.85066  0.29091999999999996  0.77863  1.0000
  C   C15       1.0  0.31444999999999995  0.6889599999999999  0.72686  1.0000
  C   C16       1.0  0.22424999999999995  0.79611  0.5636399999999999  1.0000
  C   C17       1.0  0.31387  0.37808  0.84515  1.0000
  C   C18       1.0  0.27951999999999994  0.26247999999999994  0.6577199999999999  1.0000
  C   C19       1.0  0.19593000000000005  0.7057499999999999  0.63693  1.0000
  C   C20       1.0  0.36717000000000005  0.36225  0.75526  1.0000
  C   C21       1.0  0.04067999999999991  0.6316499999999999  0.6214999999999999  1.0000
  C   C22       1.0  0.51922  0.44366  0.7695099999999998  1.0000
  C   C23       1.0  0.28031999999999996  0.24492  0.3499799999999999  1.0000
  C   C24       1.0  0.24647999999999998  0.10542999999999995  0.31837999999999994  1.0000
  C   C25       1.0  0.10466  0.01875  0.30031  1.0000
  C   C26       1.0  0.3547699999999999  0.06085999999999998  0.30783999999999995  1.0000
  C   C27       1.0  0.06327999999999998  0.8868199999999999  0.26924999999999993  1.0000
  C   C28       1.0  0.3137199999999999  0.9299799999999998  0.27493  1.0000
  C   C29       1.0  0.50881  0.14452  0.32783999999999996  1.0000
  C   C30       1.0  0.91378  0.8001799999999999  0.25926  1.0000
  C   C31       1.0  0.17058000000000004  0.84377  0.25289999999999996  1.0000
  C   C32       1.0  0.53818  0.23804999999999998  0.25696  1.0000
  C   C33       1.0  0.62772  0.12631  0.4159499999999999  1.0000
  C   C34       1.0  0.82333  0.6998099999999999  0.16203  1.0000
  C   C35       1.0  0.85765  0.8175199999999999  0.3474  1.0000
  C   C36       1.0  0.14631999999999998  0.7070499999999998  0.21707  1.0000
  C   C37       1.0  0.68377  0.31044  0.2727  1.0000
  C   C38       1.0  0.7733599999999998  0.20246999999999998  0.43547999999999987  1.0000
  C   C39       1.0  0.68331  0.62027  0.15327999999999997  1.0000
  C   C40       1.0  0.71877  0.73637  0.34078  1.0000
  C   C41       1.0  0.80193  0.29351999999999995  0.3629099999999999  1.0000
  C   C42       1.0  0.63019  0.63667  0.24323999999999998  1.0000
  C   C43       1.0  0.95714  0.36811999999999995  0.3790099999999999  1.0000
  C   C44       1.0  0.47777  0.55567  0.22901  1.0000
  O   O1        1.0  0.5927499999999999  0.6897599999999999  0.5625199999999999  1.0000
  O   O2        1.0  0.69685  0.48827999999999994  0.51602  1.0000
  O   O3        1.0  0.5626  0.45338999999999996  0.6825699999999999  1.0000
  O   O4        1.0  0.81321  0.7124099999999999  0.71041  1.0000
  O   O5        1.0  0.86404  0.57144  0.88906  1.0000
  O   O6        1.0  0.7936999999999999  0.34504  0.6968599999999999  1.0000
  O   O7        1.0  0.01317000000000003  0.5886  0.709  1.0000
  O   O8        1.0  0.9193900000000002  0.33496  0.8914299999999998  1.0000
  O   O9        1.0  0.9410999999999999  0.6194699999999997  0.51514  1.0000
  O   O10       1.0  0.6089299999999999  0.5003699999999999  0.87849  1.0000
  O   O11       1.0  0.4036  0.30914  0.43390999999999996  1.0000
  O   O12       1.0  0.29939  0.51147  0.48276  1.0000
  O   O13       1.0  0.43424  0.54346  0.31588999999999995  1.0000
  O   O14       1.0  0.18113999999999994  0.28569999999999995  0.28940999999999995  1.0000
  O   O15       1.0  0.1314  0.42609  0.11017999999999997  1.0000
  O   O16       1.0  0.20209999999999997  0.65382  0.30031  1.0000
  O   O17       1.0  0.9842699999999999  0.41180999999999995  0.29151  1.0000
  O   O18       1.0  0.07865  0.66145  0.10461999999999998  1.0000
  O   O19       1.0  0.05684999999999997  0.38022  0.48516  1.0000
  O   O20       1.0  0.38717999999999997  0.50101  0.11960999999999997  1.0000
