data_image0
_chemical_formula_structural       Eu2H12C32O16
_chemical_formula_sum              "Eu2 H12 C32 O16"
_cell_length_a       10.4822
_cell_length_b       12.31311
_cell_length_c       14.02178
_cell_angle_alpha    81.25049
_cell_angle_beta     83.94847999999999
_cell_angle_gamma    76.68143

_space_group_name_H-M_alt    "P 1"
_space_group_IT_number       1

loop_
  _space_group_symop_operation_xyz
  'x, y, z'

loop_
  _atom_site_type_symbol
  _atom_site_label
  _atom_site_symmetry_multiplicity
  _atom_site_fract_x
  _atom_site_fract_y
  _atom_site_fract_z
  _atom_site_occupancy
  Eu  Eu1       1.0  0.39707999999999993  0.89249  0.48386  1.0000
  Eu  Eu2       1.0  0.60365  0.10747  0.51651  1.0000
  H   H1        1.0  0.62763  0.22097000000000003  0.20092  1.0000
  H   H2        1.0  0.55455  0.16836999999999996  0.9169900000000001  1.0000
  H   H3        1.0  0.4967  0.92616  0.16776  1.0000
  H   H4        1.0  0.91807  0.8852600000000002  0.52065  1.0000
  H   H5        1.0  0.19343  0.5755  0.48473  1.0000
  H   H6        1.0  0.7734699999999999  0.5881000000000001  0.51388  1.0000
  H   H7        1.0  0.37272  0.77965  0.7994  1.0000
  H   H8        1.0  0.44495999999999997  0.8313000000000003  0.08377  1.0000
  H   H9        1.0  0.5037  0.07395000000000002  0.83344  1.0000
  H   H10       1.0  0.08239  0.11481000000000002  0.48093  1.0000
  H   H11       1.0  0.80715  0.42679  0.50845  1.0000
  H   H12       1.0  0.22744000000000003  0.4110700000000001  0.49011  1.0000
  C   C1        1.0  0.17810999999999994  0.7905  0.49397  1.0000
  C   C2        1.0  0.56147  0.06928000000000001  0.19307000000000002  1.0000
  C   C3        1.0  0.55908  0.03249  0.30024  1.0000
  C   C4        1.0  0.52044  0.03539  0.03208  1.0000
  C   C5        1.0  0.59776  0.17021000000000008  0.15383  1.0000
  C   C6        1.0  0.06575000000000002  0.73346  0.50272  1.0000
  C   C7        1.0  0.55612  0.13769000000000003  0.9939399999999999  1.0000
  C   C8        1.0  0.5239  0.0033900000000000002  0.13274  1.0000
  C   C9        1.0  0.59419  0.20395  0.05394  1.0000
  C   C10       1.0  0.63113  0.31026  0.010070000000000003  1.0000
  C   C11       1.0  0.8321400000000001  0.74107  0.51638  1.0000
  C   C12       1.0  0.9362499999999999  0.79575  0.51472  1.0000
  C   C13       1.0  0.69154  0.8038800000000001  0.51894  1.0000
  C   C14       1.0  0.09121999999999998  0.61864  0.49547  1.0000
  C   C15       1.0  0.9876399999999999  0.56136  0.50155  1.0000
  C   C16       1.0  0.8581  0.62581  0.51093  1.0000
  C   C17       1.0  0.82179  0.21123000000000003  0.50466  1.0000
  C   C18       1.0  0.43894  0.93125  0.8077599999999999  1.0000
  C   C19       1.0  0.4412599999999998  0.9677300000000002  0.70053  1.0000
  C   C20       1.0  0.47962  0.9646100000000001  0.96905  1.0000
  C   C21       1.0  0.40271999999999997  0.8302000000000003  0.8466200000000002  1.0000
  C   C22       1.0  0.93459  0.26758  0.49559  1.0000
  C   C23       1.0  0.44382  0.86226  0.006869999999999999  1.0000
  C   C24       1.0  0.47636000000000006  0.9967600000000002  0.8684  1.0000
  C   C25       1.0  0.40611  0.7963600000000001  0.94642  1.0000
  C   C26       1.0  0.3687799999999999  0.6900600000000002  0.98913  1.0000
  C   C27       1.0  0.16823  0.25897  0.48491  1.0000
  C   C28       1.0  0.06410000000000002  0.20456000000000005  0.48581  1.0000
  C   C29       1.0  0.30855000000000005  0.19566000000000006  0.48185  1.0000
  C   C30       1.0  0.9095099999999999  0.3827199999999999  0.50119  1.0000
  C   C31       1.0  0.013259999999999952  0.4393100000000001  0.49765  1.0000
  C   C32       1.0  0.14268000000000003  0.3741  0.49065  1.0000
  O   O1        1.0  0.51006  0.9473100000000001  0.33347  1.0000
  O   O2        1.0  0.60505  0.08954000000000002  0.35131  1.0000
  O   O3        1.0  0.15858  0.89332  0.50851  1.0000
  O   O4        1.0  0.6660799999999998  0.9094300000000001  0.52733  1.0000
  O   O5        1.0  0.29459999999999986  0.73556  0.47187  1.0000
  O   O6        1.0  0.64966  0.38487  0.05764  1.0000
  O   O7        1.0  0.6494  0.33846000000000004  0.91918  1.0000
  O   O8        1.0  0.6033299999999999  0.75166  0.51019  1.0000
  O   O9        1.0  0.48966999999999994  0.05329000000000001  0.6668400000000001  1.0000
  O   O10       1.0  0.39591  0.9099000000000002  0.65001  1.0000
  O   O11       1.0  0.84215  0.10554000000000002  0.49975  1.0000
  O   O12       1.0  0.33331999999999995  0.09032000000000005  0.47287  1.0000
  O   O13       1.0  0.7043999999999999  0.26904000000000006  0.51838  1.0000
  O   O14       1.0  0.35033999999999976  0.61705  0.9396699999999999  1.0000
  O   O15       1.0  0.3499499999999999  0.6606400000000002  0.0797  1.0000
  O   O16       1.0  0.3972699999999999  0.24760000000000001  0.48988  1.0000
