data_image0
_chemical_formula_structural       Gd4H18C40O30
_chemical_formula_sum              "Gd4 H18 C40 O30"
_cell_length_a       7.04419
_cell_length_b       11.886420000000001
_cell_length_c       15.955699999999998
_cell_angle_alpha    82.24854
_cell_angle_beta     85.05797
_cell_angle_gamma    82.16338

_symmetry_space_group_name_H-M    'P 1'
_symmetry_Int_Tables_number       1

loop_
  _symmetry_equiv_pos_as_xyz
  'x,y,z'

loop_
  _atom_site_type_symbol
  _atom_site_label
  _atom_site_symmetry_multiplicity
  _atom_site_fract_x
  _atom_site_fract_y
  _atom_site_fract_z
  _atom_site_occupancy
  Gd  Gd1       1.0  0.06268  0.90148  0.23688000000000006  1.0000
  Gd  Gd2       1.0  0.55546  0.7498899999999997  0.22719000000000006  1.0000
  Gd  Gd3       1.0  0.93732  0.09850999999999997  0.7631200000000002  1.0000
  Gd  Gd4       1.0  0.4445299999999999  0.25009999999999993  0.7728100000000002  1.0000
  H   H1        1.0  0.9845499999999998  0.77082  0.04476  1.0000
  H   H2        1.0  0.4355299999999999  0.26919  0.02032  1.0000
  H   H3        1.0  0.15831000000000003  0.74067  0.4361500000000001  1.0000
  H   H4        1.0  0.15386  0.1313199999999999  0.3906000000000001  1.0000
  H   H5        1.0  0.11737999999999998  0.5881  0.8877400000000002  1.0000
  H   H6        1.0  0.3638600000000001  0.46592  0.17303000000000004  1.0000
  H   H7        1.0  0.7307500000000001  0.49781999999999993  0.40988000000000013  1.0000
  H   H8        1.0  0.58362  0.81343  0.44356  1.0000
  H   H9        1.0  0.82241  0.06414  0.98378  1.0000
  H   H10       1.0  0.015439999999999936  0.22918  0.9552400000000002  1.0000
  H   H11       1.0  0.56446  0.73081  0.97968  1.0000
  H   H12       1.0  0.8416899999999999  0.2593199999999999  0.5638500000000002  1.0000
  H   H13       1.0  0.8461400000000001  0.8686799999999998  0.6094000000000003  1.0000
  H   H14       1.0  0.88261  0.4119  0.11227000000000002  1.0000
  H   H15       1.0  0.63613  0.53408  0.8269700000000002  1.0000
  H   H16       1.0  0.26924999999999993  0.50218  0.5901200000000002  1.0000
  H   H17       1.0  0.41638000000000014  0.18656999999999999  0.55644  1.0000
  H   H18       1.0  0.17758000000000002  0.93586  0.01623  1.0000
  C   C1        1.0  0.20208000000000007  0.60045  0.09340000000000002  1.0000
  C   C2        1.0  0.12729  0.63525  0.01247  1.0000
  C   C3        1.0  0.16980000000000003  0.5620599999999999  0.9504200000000003  1.0000
  C   C4        1.0  0.27178  0.45353  0.9685  1.0000
  C   C5        1.0  0.33768  0.41547  0.050540000000000015  1.0000
  C   C6        1.0  0.30784  0.49181  0.11103000000000003  1.0000
  C   C7        1.0  0.16769  0.67848  0.158  1.0000
  C   C8        1.0  0.3101  0.38026999999999994  0.9004100000000003  1.0000
  C   C9        1.0  0.10492999999999998  0.5956  0.4900600000000001  1.0000
  C   C10       1.0  0.9492399999999999  0.5939499999999999  0.4392100000000001  1.0000
  C   C11       1.0  0.84778  0.49852  0.4498100000000001  1.0000
  C   C12       1.0  0.89112  0.68994  0.3740600000000001  1.0000
  C   C13       1.0  0.35101  0.08195999999999999  0.46577000000000013  1.0000
  C   C14       1.0  0.5490700000000001  0.8953099999999998  0.4679000000000001  1.0000
  C   C15       1.0  0.40289  0.9753599999999999  0.43280000000000013  1.0000
  C   C16       1.0  0.30378000000000005  0.94696  0.36267  1.0000
  C   C17       1.0  0.68113  0.03560999999999997  0.9901200000000002  1.0000
  C   C18       1.0  0.42326  0.95516  0.08174  1.0000
  C   C19       1.0  0.61014  0.99141  0.07103000000000002  1.0000
  C   C20       1.0  0.74286  0.9803  0.13970000000000005  1.0000
  C   C21       1.0  0.79792  0.39955  0.9066000000000002  1.0000
  C   C22       1.0  0.87271  0.3647500000000001  0.98753  1.0000
  C   C23       1.0  0.83019  0.43794  0.04958  1.0000
  C   C24       1.0  0.7282200000000001  0.54647  0.0315  1.0000
  C   C25       1.0  0.6623099999999998  0.5845299999999999  0.9494600000000002  1.0000
  C   C26       1.0  0.6921499999999998  0.50818  0.8889800000000002  1.0000
  C   C27       1.0  0.83231  0.32151  0.8420000000000002  1.0000
  C   C28       1.0  0.6898899999999998  0.61973  0.09959000000000003  1.0000
  C   C29       1.0  0.8950600000000001  0.4043999999999999  0.50994  1.0000
  C   C30       1.0  0.05075000000000002  0.40605  0.56079  1.0000
  C   C31       1.0  0.15220999999999996  0.50147  0.5501900000000002  1.0000
  C   C32       1.0  0.10887999999999996  0.31006  0.62594  1.0000
  C   C33       1.0  0.64898  0.91804  0.53423  1.0000
  C   C34       1.0  0.4509300000000001  0.10469000000000002  0.5321  1.0000
  C   C35       1.0  0.59711  0.024639999999999995  0.5672  1.0000
  C   C36       1.0  0.6962199999999997  0.05303999999999997  0.6373300000000002  1.0000
  C   C37       1.0  0.31886000000000003  0.9643899999999999  0.00989  1.0000
  C   C38       1.0  0.57674  0.04483999999999994  0.9182600000000002  1.0000
  C   C39       1.0  0.38985999999999993  0.008589999999999967  0.9289700000000002  1.0000
  C   C40       1.0  0.25713999999999987  0.019699999999999964  0.8603000000000002  1.0000
  O   O1        1.0  0.02721000000000003  0.7608599999999999  0.15012000000000006  1.0000
  O   O2        1.0  0.27454  0.6701599999999998  0.22082000000000004  1.0000
  O   O3        1.0  0.2695  0.41718000000000005  0.82444  1.0000
  O   O4        1.0  0.3914699999999999  0.27501  0.91752  1.0000
  O   O5        1.0  0.018849999999999985  0.73692  0.9913500000000002  1.0000
  O   O6        1.0  0.42972  0.30922  0.07177  1.0000
  O   O7        1.0  0.98916  0.77581  0.3586700000000001  1.0000
  O   O8        1.0  0.7434  0.68568  0.33433  1.0000
  O   O9        1.0  0.20938000000000007  0.68472  0.4832  1.0000
  O   O10       1.0  0.3522100000000001  0.85184  0.3311800000000001  1.0000
  O   O11       1.0  0.16100999999999996  0.017159999999999984  0.3330700000000001  1.0000
  O   O12       1.0  0.20929999999999999  0.16267999999999994  0.4363700000000001  1.0000
  O   O13       1.0  0.71504  0.91406  0.21137000000000006  1.0000
  O   O14       1.0  0.8955499999999998  0.028129999999999995  0.12934  1.0000
  O   O15       1.0  0.35013  0.90858  0.15781  1.0000
  O   O16       1.0  0.9727899999999999  0.23912999999999998  0.8498800000000002  1.0000
  O   O17       1.0  0.7254499999999999  0.32983  0.77918  1.0000
  O   O18       1.0  0.7305  0.58282  0.17557  1.0000
  O   O19       1.0  0.6085199999999998  0.7249899999999999  0.08249000000000002  1.0000
  O   O20       1.0  0.98114  0.26308  0.008650000000000003  1.0000
  O   O21       1.0  0.57028  0.6907799999999997  0.9282300000000002  1.0000
  O   O22       1.0  0.010839999999999995  0.2241899999999999  0.6413300000000002  1.0000
  O   O23       1.0  0.2566  0.31431999999999993  0.6656700000000002  1.0000
  O   O24       1.0  0.79062  0.31528  0.5168  1.0000
  O   O25       1.0  0.64779  0.14816  0.66883  1.0000
  O   O26       1.0  0.8389900000000001  0.9828399999999999  0.6669300000000002  1.0000
  O   O27       1.0  0.79069  0.83732  0.5636300000000002  1.0000
  O   O28       1.0  0.2849499999999999  0.08593999999999995  0.7886300000000003  1.0000
  O   O29       1.0  0.10445000000000002  0.97187  0.87066  1.0000
  O   O30       1.0  0.64986  0.09141999999999996  0.8421900000000002  1.0000
