data_image0
_chemical_formula_structural       Mn4P4H6C6O28
_chemical_formula_sum              "Mn4 P4 H6 C6 O28"
_cell_length_a       8.80142
_cell_length_b       8.84721
_cell_length_c       11.253950000000001
_cell_angle_alpha    81.78912
_cell_angle_beta     71.17617000000001
_cell_angle_gamma    73.91708

_symmetry_space_group_name_H-M    'P 1'
_symmetry_Int_Tables_number       1

loop_
  _symmetry_equiv_pos_as_xyz
  'x,y,z'

loop_
  _atom_site_type_symbol
  _atom_site_label
  _atom_site_symmetry_multiplicity
  _atom_site_fract_x
  _atom_site_fract_y
  _atom_site_fract_z
  _atom_site_occupancy
  Mn  Mn1       1.0  0.94095  0.32909  0.72748  1.0000
  Mn  Mn2       1.0  0.3935600000000004  0.9366299999999996  0.93249  1.0000
  Mn  Mn3       1.0  0.059040000000000106  0.6709099999999998  0.27251  1.0000
  Mn  Mn4       1.0  0.60643  0.06336  0.06751  1.0000
  P   P1        1.0  0.6713399999999999  0.14663999999999994  0.76862  1.0000
  P   P2        1.0  0.71611  0.6726  0.79148  1.0000
  P   P3        1.0  0.32865  0.85335  0.23138000000000003  1.0000
  P   P4        1.0  0.28388000000000013  0.32739  0.2085  1.0000
  H   H1        1.0  0.58921  0.40159999999999996  0.7576400000000001  1.0000
  H   H2        1.0  0.73185  0.8732099999999998  0.65175  1.0000
  H   H3        1.0  0.8398500000000001  0.7587099999999999  0.90341  1.0000
  H   H4        1.0  0.41079000000000004  0.5983899999999998  0.24235  1.0000
  H   H5        1.0  0.26815  0.12678999999999999  0.34824  1.0000
  H   H6        1.0  0.16013000000000002  0.24126999999999998  0.09659000000000001  1.0000
  C   C1        1.0  0.946  0.46316  0.47238  1.0000
  C   C2        1.0  0.20620999999999998  0.10128999999999996  0.77404  1.0000
  C   C3        1.0  0.12884000000000007  0.18898999999999996  0.89584  1.0000
  C   C4        1.0  0.05399000000000007  0.5368199999999997  0.52762  1.0000
  C   C5        1.0  0.79378  0.8986899999999998  0.22596  1.0000
  C   C6        1.0  0.87119  0.81096  0.10416  1.0000
  O   O1        1.0  0.8164300000000001  0.17826  0.80462  1.0000
  O   O2        1.0  0.71542  0.04369  0.66127  1.0000
  O   O3        1.0  0.5700799999999999  0.07103  0.89507  1.0000
  O   O4        1.0  0.5549299999999999  0.3115399999999999  0.73923  1.0000
  O   O5        1.0  0.73952  0.49517  0.7747300000000001  1.0000
  O   O6        1.0  0.54798  0.73369  0.8876800000000001  1.0000
  O   O7        1.0  0.73162  0.75494  0.65644  1.0000
  O   O8        1.0  0.86461  0.68805  0.8336200000000001  1.0000
  O   O9        1.0  0.8881  0.35604  0.53894  1.0000
  O   O10       1.0  0.92951  0.5219199999999999  0.36564  1.0000
  O   O11       1.0  0.327  0.98202  0.77172  1.0000
  O   O12       1.0  0.14510000000000006  0.15469  0.68408  1.0000
  O   O13       1.0  0.19296000000000002  0.12583  0.98521  1.0000
  O   O14       1.0  0.014820000000000017  0.31055  0.9003  1.0000
  O   O15       1.0  0.18355999999999997  0.8217400000000001  0.19538  1.0000
  O   O16       1.0  0.28458000000000006  0.9563  0.33873  1.0000
  O   O17       1.0  0.42993000000000003  0.9289499999999998  0.10493000000000001  1.0000
  O   O18       1.0  0.44505999999999996  0.68845  0.26077  1.0000
  O   O19       1.0  0.26048  0.50483  0.22522  1.0000
  O   O20       1.0  0.45202000000000003  0.2662899999999999  0.1123  1.0000
  O   O21       1.0  0.2683899999999998  0.24507  0.34354000000000007  1.0000
  O   O22       1.0  0.13538  0.31194  0.16637  1.0000
  O   O23       1.0  0.11188999999999999  0.64396  0.46105000000000007  1.0000
  O   O24       1.0  0.07050000000000003  0.47806999999999994  0.63435  1.0000
  O   O25       1.0  0.673  0.01798  0.22828  1.0000
  O   O26       1.0  0.8548999999999999  0.8453  0.31591  1.0000
  O   O27       1.0  0.80702  0.8741699999999998  0.014790000000000001  1.0000
  O   O28       1.0  0.9851400000000001  0.68947  0.09971000000000001  1.0000
