data_image0
_chemical_formula_structural       Cd2H22C36N4O8
_chemical_formula_sum              "Cd2 H22 C36 N4 O8"
_cell_length_a       10.42047
_cell_length_b       10.44809
_cell_length_c       10.451899999999998
_cell_angle_alpha    80.53155
_cell_angle_beta     80.82283
_cell_angle_gamma    68.74399

_symmetry_space_group_name_H-M    'P 1'
_symmetry_Int_Tables_number       1

loop_
  _symmetry_equiv_pos_as_xyz
  'x,y,z'

loop_
  _atom_site_type_symbol
  _atom_site_label
  _atom_site_symmetry_multiplicity
  _atom_site_fract_x
  _atom_site_fract_y
  _atom_site_fract_z
  _atom_site_occupancy
  Cd  Cd1       1.0  0.050769999999999975  0.94976  0.9993  1.0000
  Cd  Cd2       1.0  0.7663199999999999  0.23382  0.50069  1.0000
  H   H1        1.0  0.33859000000000006  0.65783  0.29429  1.0000
  H   H2        1.0  0.7815999999999999  0.85953  0.67576  1.0000
  H   H3        1.0  0.89641  0.55402  0.30391  1.0000
  H   H4        1.0  0.9507999999999999  0.26325999999999994  0.8606500000000001  1.0000
  H   H5        1.0  0.04499  0.10553  0.63258  1.0000
  H   H6        1.0  0.73288  0.68457  0.57542  1.0000
  H   H7        1.0  0.8939899999999998  0.95805  0.36663  1.0000
  H   H8        1.0  0.44561  0.10597000000000001  0.69324  1.0000
  H   H9        1.0  0.33582999999999996  0.95093  0.8462400000000001  1.0000
  H   H10       1.0  0.10085999999999998  0.74183  0.36293  1.0000
  H   H11       1.0  0.7367600000000001  0.04970000000000001  0.14034  1.0000
  H   H12       1.0  0.54564  0.43771  0.30622  1.0000
  H   H13       1.0  0.29822  0.35230000000000006  0.63527  1.0000
  H   H14       1.0  0.14252  0.21868  0.32274  1.0000
  H   H15       1.0  0.55875  0.44941  0.69782  1.0000
  H   H16       1.0  0.65004  0.69966  0.36256  1.0000
  H   H17       1.0  0.05014999999999997  0.66577  0.15071  1.0000
  H   H18       1.0  0.34219000000000005  0.66022  0.70697  1.0000
  H   H19       1.0  0.3194199999999999  0.26434  0.42445999999999995  1.0000
  H   H20       1.0  0.14193  0.54424  0.81939  1.0000
  H   H21       1.0  0.26095000000000007  0.8981599999999998  0.63696  1.0000
  H   H22       1.0  0.45537999999999995  0.85957  0.1792  1.0000
  C   C1        1.0  0.3868699999999997  0.61627  0.61546  1.0000
  C   C2        1.0  0.8679100000000001  0.40884  0.59135  1.0000
  C   C3        1.0  0.5284999999999999  0.97594  0.28469  1.0000
  C   C4        1.0  0.18763000000000005  0.004829999999999999  0.17694  1.0000
  C   C5        1.0  0.4267200000000001  0.9471999999999998  0.23434  1.0000
  C   C6        1.0  0.85766  0.66288  0.26521  1.0000
  C   C7        1.0  0.9967600000000001  0.81191  0.8226399999999999  1.0000
  C   C8        1.0  0.27585  0.05762  0.81352  1.0000
  C   C9        1.0  0.49843  0.49244  0.39158  1.0000
  C   C10       1.0  0.28817  0.03385  0.24593  1.0000
  C   C11       1.0  0.05288999999999998  0.5738  0.76514  1.0000
  C   C12       1.0  0.3494  0.17567000000000005  0.37014  1.0000
  C   C13       1.0  0.05997000000000003  0.23221  0.82342  1.0000
  C   C14       1.0  0.09364000000000001  0.8202  0.42309  1.0000
  C   C15       1.0  0.48947999999999997  0.09118  0.35441  1.0000
  C   C16       1.0  0.19892999999999997  0.80189  0.49994  1.0000
  C   C17       1.0  0.38200999999999996  0.61224  0.38638  1.0000
  C   C18       1.0  0.32355999999999996  0.67607  0.50056  1.0000
  C   C19       1.0  0.96643  0.71243  0.75378  1.0000
  C   C20       1.0  0.8500499999999999  0.7520899999999999  0.68534  1.0000
  C   C21       1.0  0.90557  0.51337  0.64638  1.0000
  C   C22       1.0  0.25390000000000007  0.28092  0.6976  1.0000
  C   C23       1.0  0.82221  0.65361  0.62979  1.0000
  C   C24       1.0  0.18198  0.90636  0.57652  1.0000
  C   C25       1.0  0.06273  0.0228  0.57375  1.0000
  C   C26       1.0  0.11258999999999995  0.3270100000000001  0.74284  1.0000
  C   C27       1.0  0.33675  0.1443  0.73204  1.0000
  C   C28       1.0  0.97753  0.93972  0.4253100000000001  1.0000
  C   C29       1.0  0.24978  0.14954  0.3141  1.0000
  C   C30       1.0  0.596  0.12761  0.40842999999999996  1.0000
  C   C31       1.0  0.94351  0.72489  0.18395  1.0000
  C   C32       1.0  0.6744900000000003  0.88629  0.25643  1.0000
  C   C33       1.0  0.50465  0.49779000000000007  0.61174  1.0000
  C   C34       1.0  0.022290000000000025  0.4730500000000001  0.71543  1.0000
  C   C35       1.0  0.72103  0.7447  0.3005  1.0000
  C   C36       1.0  0.76849  0.94011  0.17611  1.0000
  N   N1        1.0  0.89968  0.86131  0.14069  1.0000
  N   N2        1.0  0.13964000000000001  0.10085999999999998  0.85764  1.0000
  N   N3        1.0  0.5595600000000001  0.43599  0.50207  1.0000
  N   N4        1.0  0.96213  0.039480000000000015  0.49944  1.0000
  O   O1        1.0  0.61074  0.09739999999999999  0.52945  1.0000
  O   O2        1.0  0.11184999999999999  0.76688  0.8744399999999999  1.0000
  O   O3        1.0  0.8117  0.33268999999999993  0.67148  1.0000
  O   O4        1.0  0.89017  0.40166  0.46916  1.0000
  O   O5        1.0  0.9082400000000002  0.93213  0.83171  1.0000
  O   O6        1.0  0.06724  0.09329999999999998  0.16829  1.0000
  O   O7        1.0  0.2327  0.89029  0.12505  1.0000
  O   O8        1.0  0.6658000000000001  0.19101000000000004  0.32877  1.0000
