data_image0
_chemical_formula_structural       Cd2H28C40N8O8
_chemical_formula_sum              "Cd2 H28 C40 N8 O8"
_cell_length_a       7.68689
_cell_length_b       11.14289
_cell_length_c       15.345159999999998
_cell_angle_alpha    110.9913
_cell_angle_beta     103.94534
_cell_angle_gamma    91.91518

_symmetry_space_group_name_H-M    'P 1'
_symmetry_Int_Tables_number       1

loop_
  _symmetry_equiv_pos_as_xyz
  'x,y,z'

loop_
  _atom_site_type_symbol
  _atom_site_label
  _atom_site_symmetry_multiplicity
  _atom_site_fract_x
  _atom_site_fract_y
  _atom_site_fract_z
  _atom_site_occupancy
  Cd  Cd1       1.0  0.3075700000000001  0.7484300000000002  0.19460000000000005  1.0000
  Cd  Cd2       1.0  0.61109  0.5521  0.80347  1.0000
  H   H1        1.0  0.1796400000000001  0.62407  0.3639300000000001  1.0000
  H   H2        1.0  0.3984500000000001  0.5970500000000001  0.5011000000000001  1.0000
  H   H3        1.0  0.018180000000000095  0.6912900000000001  0.6715100000000003  1.0000
  H   H4        1.0  0.7923200000000004  0.7131700000000001  0.5337100000000001  1.0000
  H   H5        1.0  0.6002500000000002  0.7670700000000001  0.40443  1.0000
  H   H6        1.0  0.67831  0.61303  0.12453000000000003  1.0000
  H   H7        1.0  0.30143000000000003  0.95431  0.8177300000000001  1.0000
  H   H8        1.0  0.3617400000000001  0.14103000000000004  0.77291  1.0000
  H   H9        1.0  0.60591  0.37878  0.07232000000000001  1.0000
  H   H10       1.0  0.54636  0.19343000000000002  0.11903000000000001  1.0000
  H   H11       1.0  0.4084000000000001  0.03367  0.15996  1.0000
  H   H12       1.0  0.2874400000000002  0.64746  0.9597000000000002  1.0000
  H   H13       1.0  0.96586  0.59707  0.24005  1.0000
  H   H14       1.0  0.33454  0.7827700000000001  0.86522  1.0000
  H   H15       1.0  0.31584  0.25877  0.63596  1.0000
  H   H16       1.0  0.3963800000000001  0.09562000000000007  0.49777000000000005  1.0000
  H   H17       1.0  0.8441000000000003  0.020120000000000048  0.3271300000000001  1.0000
  H   H18       1.0  0.75743  0.17880000000000007  0.46603000000000006  1.0000
  H   H19       1.0  0.6959  0.36206  0.59453  1.0000
  H   H20       1.0  0.052230000000000144  0.48698000000000013  0.8754900000000002  1.0000
  H   H21       1.0  0.98475  0.13796  0.18152  1.0000
  H   H22       1.0  0.08956  0.37045000000000006  0.22593  1.0000
  H   H23       1.0  0.03335000000000012  0.3046400000000002  0.9267100000000003  1.0000
  H   H24       1.0  0.92668  0.07186000000000003  0.8802300000000002  1.0000
  H   H25       1.0  0.7458700000000004  0.8723500000000001  0.8392500000000003  1.0000
  H   H26       1.0  0.82589  0.68802  0.03941  1.0000
  H   H27       1.0  0.22519000000000014  0.3561300000000001  0.7604900000000002  1.0000
  H   H28       1.0  0.9675500000000002  0.91872  0.13416000000000003  1.0000
  C   C1        1.0  0.14218000000000008  0.63903  0.4307000000000001  1.0000
  C   C2        1.0  0.26621000000000006  0.6244400000000002  0.5074700000000001  1.0000
  C   C3        1.0  0.2229000000000001  0.6435200000000002  0.5947900000000003  1.0000
  C   C4        1.0  0.052220000000000016  0.67834  0.60411  1.0000
  C   C5        1.0  0.9264800000000001  0.6909500000000001  0.5268800000000001  1.0000
  C   C6        1.0  0.9690000000000001  0.6706100000000002  0.4386200000000001  1.0000
  C   C7        1.0  0.8341000000000002  0.67706  0.3562600000000001  1.0000
  C   C8        1.0  0.6663200000000001  0.72092  0.34841000000000005  1.0000
  C   C9        1.0  0.70165  0.64506  0.20247  1.0000
  C   C10       1.0  0.3550800000000001  0.62038  0.6737200000000002  1.0000
  C   C11       1.0  0.3679800000000001  0.04697999999999998  0.87413  1.0000
  C   C12       1.0  0.4006800000000002  0.15205000000000013  0.8486400000000002  1.0000
  C   C13       1.0  0.48607  0.27264  0.91996  1.0000
  C   C14       1.0  0.53763  0.28595  0.017470000000000003  1.0000
  C   C15       1.0  0.50419  0.18184  0.04323000000000001  1.0000
  C   C16       1.0  0.4188300000000001  0.06063000000000003  0.97206  1.0000
  C   C17       1.0  0.38462000000000013  0.9536100000000001  0.0013100000000000004  1.0000
  C   C18       1.0  0.38485  0.9526700000000001  0.09149000000000002  1.0000
  C   C19       1.0  0.31762  0.7518800000000001  0.98967  1.0000
  C   C20       1.0  0.5273200000000002  0.38463  0.89335  1.0000
  C   C21       1.0  0.21113  0.20733  0.56884  1.0000
  C   C22       1.0  0.2576200000000001  0.11647000000000007  0.4914300000000001  1.0000
  C   C23       1.0  0.12605000000000005  0.04876000000000007  0.4037600000000001  1.0000
  C   C24       1.0  0.9460700000000002  0.07427000000000006  0.3948000000000001  1.0000
  C   C25       1.0  0.89841  0.16356  0.47261  1.0000
  C   C26       1.0  0.03006  0.2311  0.56114  1.0000
  C   C27       1.0  0.9775900000000002  0.31977  0.64358  1.0000
  C   C28       1.0  0.8175300000000003  0.3715100000000001  0.6509100000000002  1.0000
  C   C29       1.0  0.9979  0.44117  0.79742  1.0000
  C   C30       1.0  0.17706000000000005  0.94686  0.32367  1.0000
  C   C31       1.0  0.9941400000000002  0.1736  0.1251  1.0000
  C   C32       1.0  0.052300000000000034  0.30429  0.15039000000000005  1.0000
  C   C33       1.0  0.06601000000000004  0.35243  0.07898000000000001  1.0000
  C   C34       1.0  0.019870000000000033  0.26731  0.98151  1.0000
  C   C35       1.0  0.9603800000000005  0.13726000000000008  0.9559100000000003  1.0000
  C   C36       1.0  0.9462800000000002  0.08835  0.02718  1.0000
  C   C37       1.0  0.8819500000000002  0.95202  0.99792  1.0000
  C   C38       1.0  0.7914000000000003  0.8601900000000002  0.9076300000000002  1.0000
  C   C39       1.0  0.8261300000000003  0.76214  0.009390000000000004  1.0000
  C   C40       1.0  0.13466000000000003  0.49119000000000007  0.10650000000000003  1.0000
  N   N1        1.0  0.5859400000000001  0.7000200000000001  0.25272000000000006  1.0000
  N   N2        1.0  0.85215  0.62978  0.2624  1.0000
  N   N3        1.0  0.34286000000000005  0.82702  0.08299  1.0000
  N   N4        1.0  0.34000000000000014  0.82467  0.9383700000000003  1.0000
  N   N5        1.0  0.83215  0.446  0.74663  1.0000
  N   N6        1.0  0.08888000000000001  0.3661  0.73777  1.0000
  N   N7        1.0  0.7577200000000001  0.74309  0.9160100000000001  1.0000
  N   N8        1.0  0.9002100000000002  0.8867  0.06077000000000001  1.0000
  O   O1        1.0  0.4905400000000002  0.56369  0.65364  1.0000
  O   O2        1.0  0.32951000000000025  0.6546500000000002  0.7584700000000002  1.0000
  O   O3        1.0  0.6347600000000001  0.48361  0.9533900000000002  1.0000
  O   O4        1.0  0.45103000000000015  0.3745400000000001  0.8050100000000002  1.0000
  O   O5        1.0  0.33301000000000003  0.91016  0.3426700000000001  1.0000
  O   O6        1.0  0.06477000000000004  0.8965600000000001  0.23934000000000005  1.0000
  O   O7        1.0  0.18323000000000003  0.5304300000000002  0.04724  1.0000
  O   O8        1.0  0.14704  0.56931  0.19495000000000007  1.0000
