data_image0
_chemical_formula_structural       Lu4H12C24O24
_chemical_formula_sum              "Lu4 H12 C24 O24"
_cell_length_a       8.14366
_cell_length_b       9.71358
_cell_length_c       17.7702
_cell_angle_alpha    89.99549
_cell_angle_beta     90.00676
_cell_angle_gamma    110.84844

_symmetry_space_group_name_H-M    'P 1'
_symmetry_Int_Tables_number       1

loop_
  _symmetry_equiv_pos_as_xyz
  'x,y,z'

loop_
  _atom_site_type_symbol
  _atom_site_label
  _atom_site_symmetry_multiplicity
  _atom_site_fract_x
  _atom_site_fract_y
  _atom_site_fract_z
  _atom_site_occupancy
  Lu  Lu1       1.0  0.84945  0.028350000000000004  0.24194999999999997  1.0000
  Lu  Lu2       1.0  0.15046000000000007  0.47187  0.74195  1.0000
  Lu  Lu3       1.0  0.15040000000000003  0.9721800000000002  0.75803  1.0000
  Lu  Lu4       1.0  0.84946  0.52835  0.25804  1.0000
  H   H1        1.0  0.88727  0.09326  0.9787699999999999  1.0000
  H   H2        1.0  0.29191  0.16506  0.31928  1.0000
  H   H3        1.0  0.39344000000000007  0.9039700000000002  0.26468  1.0000
  H   H4        1.0  0.11239999999999999  0.40666  0.47867999999999994  1.0000
  H   H5        1.0  0.70891  0.33625  0.81929  1.0000
  H   H6        1.0  0.6072600000000001  0.59726  0.76455  1.0000
  H   H7        1.0  0.11247000000000004  0.90697  0.02121  1.0000
  H   H8        1.0  0.70774  0.8359  0.68062  1.0000
  H   H9        1.0  0.60633  0.097  0.7354  1.0000
  H   H10       1.0  0.88755  0.593  0.52132  1.0000
  H   H11       1.0  0.29190000000000016  0.6650700000000002  0.18073  1.0000
  H   H12       1.0  0.3934500000000002  0.4039600000000001  0.23532999999999998  1.0000
  C   C1        1.0  0.90379  0.02352  0.09568  1.0000
  C   C2        1.0  0.94593  0.03206  0.01444  1.0000
  C   C3        1.0  0.56589  0.19036  0.2911899999999999  1.0000
  C   C4        1.0  0.37579  0.10491  0.30216  1.0000
  C   C5        1.0  0.30834  0.9611300000000002  0.28429  1.0000
  C   C6        1.0  0.11779000000000003  0.37317000000000006  0.21538  1.0000
  C   C7        1.0  0.09558  0.47609  0.5956999999999998  1.0000
  C   C8        1.0  0.05376000000000002  0.46773000000000003  0.51442  1.0000
  C   C9        1.0  0.43457000000000007  0.31027  0.79109  1.0000
  C   C10       1.0  0.62478  0.39612000000000014  0.80201  1.0000
  C   C11       1.0  0.69215  0.53996  0.78419  1.0000
  C   C12       1.0  0.8818900000000002  0.12742  0.71543  1.0000
  C   C13       1.0  0.09640000000000011  0.9768800000000001  0.90429  1.0000
  C   C14       1.0  0.05397999999999999  0.96823  0.98551  1.0000
  C   C15       1.0  0.43381  0.81006  0.70879  1.0000
  C   C16       1.0  0.6238  0.89592  0.69782  1.0000
  C   C17       1.0  0.69128  0.03969  0.71577  1.0000
  C   C18       1.0  0.88256  0.62809  0.7845899999999998  1.0000
  C   C19       1.0  0.9041000000000001  0.52365  0.40429  1.0000
  C   C20       1.0  0.94609  0.53194  0.48551999999999995  1.0000
  C   C21       1.0  0.56588  0.69036  0.20882  1.0000
  C   C22       1.0  0.3757800000000001  0.60491  0.19785  1.0000
  C   C23       1.0  0.30834  0.46112  0.21572  1.0000
  C   C24       1.0  0.11780000000000002  0.87317  0.2846199999999999  1.0000
  O   O1        1.0  0.96796  0.95219  0.14071  1.0000
  O   O2        1.0  0.80413  0.08994  0.12130999999999999  1.0000
  O   O3        1.0  0.67616  0.12417000000000002  0.29555  1.0000
  O   O4        1.0  0.6083700000000002  0.32689  0.2765099999999999  1.0000
  O   O5        1.0  0.006629999999999993  0.43114  0.19349999999999998  1.0000
  O   O6        1.0  0.07507  0.24116  0.23877999999999996  1.0000
  O   O7        1.0  0.03189  0.54782  0.64065  1.0000
  O   O8        1.0  0.19472  0.40931  0.62138  1.0000
  O   O9        1.0  0.32401  0.37623  0.79554  1.0000
  O   O10       1.0  0.39205000000000007  0.17368  0.77646  1.0000
  O   O11       1.0  0.9928  0.06921000000000001  0.69354  1.0000
  O   O12       1.0  0.9248500000000002  0.2595  0.7388099999999997  1.0000
  O   O13       1.0  0.03213000000000001  0.04817  0.85929  1.0000
  O   O14       1.0  0.19627000000000006  0.9106700000000001  0.87869  1.0000
  O   O15       1.0  0.32317  0.8759  0.7044  1.0000
  O   O16       1.0  0.3917700000000001  0.6735200000000001  0.72348  1.0000
  O   O17       1.0  0.99375  0.56998  0.8062199999999998  1.0000
  O   O18       1.0  0.92484  0.76035  0.76146  1.0000
  O   O19       1.0  0.9681200000000002  0.45222000000000007  0.35925  1.0000
  O   O20       1.0  0.80455  0.59017  0.37867  1.0000
  O   O21       1.0  0.67616  0.62417  0.20444999999999994  1.0000
  O   O22       1.0  0.60836  0.8268800000000001  0.2235  1.0000
  O   O23       1.0  0.006640000000000039  0.93114  0.3065  1.0000
  O   O24       1.0  0.07507  0.74118  0.26121  1.0000
