data_image0
_chemical_formula_structural       Zn3H24C30S2N6O8
_chemical_formula_sum              "Zn3 H24 C30 S2 N6 O8"
_cell_length_a       11.30724
_cell_length_b       11.33127
_cell_length_c       10.14701
_cell_angle_alpha    56.300899999999984
_cell_angle_beta     65.45015
_cell_angle_gamma    65.81828999999999

_space_group_name_H-M_alt    "P 1"
_space_group_IT_number       1

loop_
  _space_group_symop_operation_xyz
  'x, y, z'

loop_
  _atom_site_type_symbol
  _atom_site_label
  _atom_site_symmetry_multiplicity
  _atom_site_fract_x
  _atom_site_fract_y
  _atom_site_fract_z
  _atom_site_occupancy
  Zn  Zn1       1.0  0.0005899999999999878  0.01814000000000004  0.98032  1.0000
  Zn  Zn2       1.0  0.89945  0.2474400000000001  0.6909799999999998  1.0000
  Zn  Zn3       1.0  0.9935900000000001  0.49638  0.00794  1.0000
  H   H1        1.0  0.86929  0.11194  0.24994  1.0000
  H   H2        1.0  0.63985  0.18150999999999998  0.40368  1.0000
  H   H3        1.0  0.49487000000000003  0.10686999999999998  0.12807  1.0000
  H   H4        1.0  0.72925  0.03031000000000001  0.99582  1.0000
  H   H5        1.0  0.44915000000000005  0.25063  0.5106599999999998  1.0000
  H   H6        1.0  0.7945999999999998  0.6770500000000002  0.35035  1.0000
  H   H7        1.0  0.93029  0.7652200000000001  0.6019199999999998  1.0000
  H   H8        1.0  0.70521  0.84711  0.74205  1.0000
  H   H9        1.0  0.28091000000000005  0.4298400000000001  0.8280699999999998  1.0000
  H   H10       1.0  0.50462  0.4294299999999999  0.81569  1.0000
  H   H11       1.0  0.30577  0.59252  0.17162  1.0000
  H   H12       1.0  0.09152  0.59115  0.16247  1.0000
  H   H13       1.0  0.14048000000000005  0.9019700000000002  0.7347199999999998  1.0000
  H   H14       1.0  0.36953  0.8243599999999999  0.58945  1.0000
  H   H15       1.0  0.51475  0.9000600000000002  0.8633199999999998  1.0000
  H   H16       1.0  0.2796  0.98647  0.9872299999999999  1.0000
  H   H17       1.0  0.5586400000000001  0.7511599999999999  0.4857  1.0000
  H   H18       1.0  0.21034000000000003  0.32286  0.64481  1.0000
  H   H19       1.0  0.08320000000000001  0.23962  0.3807  1.0000
  H   H20       1.0  0.30943999999999994  0.16214  0.24092999999999998  1.0000
  H   H21       1.0  0.70672  0.59381  0.15337  1.0000
  H   H22       1.0  0.48214000000000007  0.60192  0.16025  1.0000
  H   H23       1.0  0.6816300000000001  0.40831000000000006  0.83239  1.0000
  H   H24       1.0  0.89583  0.40675  0.84363  1.0000
  C   C1        1.0  0.78297  0.10982000000000001  0.23007  1.0000
  C   C2        1.0  0.65325  0.15049999999999994  0.31352  1.0000
  C   C3        1.0  0.5438100000000001  0.15225999999999995  0.27998  1.0000
  C   C4        1.0  0.57333  0.10891000000000003  0.16180999999999995  1.0000
  C   C5        1.0  0.7051600000000001  0.06773000000000001  0.08445  1.0000
  C   C6        1.0  0.40373000000000003  0.19859000000000004  0.36232  1.0000
  C   C7        1.0  0.37155  0.24700999999999998  0.4769899999999999  1.0000
  C   C8        1.0  0.23797000000000001  0.28897000000000017  0.5518599999999998  1.0000
  C   C9        1.0  0.8461900000000001  0.76411  0.57648  1.0000
  C   C10       1.0  0.7163699999999997  0.81075  0.65722  1.0000
  C   C11       1.0  0.29231999999999997  0.4666500000000001  0.8998399999999998  1.0000
  C   C12       1.0  0.4169  0.46609000000000006  0.89536  1.0000
  C   C13       1.0  0.42738000000000004  0.5099600000000002  0.9943299999999999  1.0000
  C   C14       1.0  0.30735999999999997  0.55674  0.0912  1.0000
  C   C15       1.0  0.18606999999999987  0.5552400000000002  0.08892  1.0000
  C   C16       1.0  0.2263300000000001  0.90364  0.7563  1.0000
  C   C17       1.0  0.35628000000000004  0.8576999999999999  0.67746  1.0000
  C   C18       1.0  0.46670000000000006  0.85499  0.71077  1.0000
  C   C19       1.0  0.43625  0.9001400000000002  0.82766  1.0000
  C   C20       1.0  0.30401000000000017  0.94719  0.9003499999999998  1.0000
  C   C21       1.0  0.60687  0.8072900000000001  0.62827  1.0000
  C   C22       1.0  0.6371699999999999  0.7565400000000002  0.5162499999999998  1.0000
  C   C23       1.0  0.77022  0.71374  0.43995  1.0000
  C   C24       1.0  0.16636  0.2411100000000001  0.4076599999999999  1.0000
  C   C25       1.0  0.29667  0.1961  0.3285299999999999  1.0000
  C   C26       1.0  0.6949200000000002  0.55224  0.08662  1.0000
  C   C27       1.0  0.56989  0.55639  0.08851  1.0000
  C   C28       1.0  0.5590399999999999  0.5056100000000001  0.9964799999999999  1.0000
  C   C29       1.0  0.6793199999999999  0.4510400000000001  0.9067899999999998  1.0000
  C   C30       1.0  0.8009599999999999  0.4494600000000001  0.9112099999999999  1.0000
  S   S1        1.0  0.8899299999999999  0.7827900000000003  0.9600899999999998  1.0000
  S   S2        1.0  0.11615000000000003  0.2146  0.04786999999999999  1.0000
  N   N1        1.0  0.8090600000000001  0.06880999999999998  0.11679  1.0000
  N   N2        1.0  0.13609999999999997  0.2869300000000001  0.5175  1.0000
  N   N3        1.0  0.17828000000000002  0.5091599999999998  0.9960400000000001  1.0000
  N   N4        1.0  0.19920999999999991  0.9497800000000002  0.8657099999999998  1.0000
  N   N5        1.0  0.8751799999999998  0.7163599999999999  0.46853  1.0000
  N   N6        1.0  0.8096500000000002  0.49980999999999987  0.99916  1.0000
  O   O1        1.0  0.9580000000000002  0.8644499999999999  0.97462  1.0000
  O   O2        1.0  0.9759900000000001  0.7449300000000001  0.8227499999999998  1.0000
  O   O3        1.0  0.88733  0.63734  0.11844999999999997  1.0000
  O   O4        1.0  0.7529600000000001  0.86677  0.9403799999999998  1.0000
  O   O5        1.0  0.06505000000000001  0.09938  0.06832  1.0000
  O   O6        1.0  0.024639999999999995  0.26263  0.17817  1.0000
  O   O7        1.0  0.10145000000000005  0.35042000000000006  0.8851499999999998  1.0000
  O   O8        1.0  0.25673  0.15376  0.05956  1.0000
