data_image0
_chemical_formula_structural       Ag2H16C16N8
_chemical_formula_sum              "Ag2 H16 C16 N8"
_cell_length_a       4.71924
_cell_length_b       10.78378
_cell_length_c       11.24079
_cell_angle_alpha    69.31677
_cell_angle_beta     90.18157999999998
_cell_angle_gamma    100.78544

_symmetry_space_group_name_H-M    'P 1'
_symmetry_Int_Tables_number       1

loop_
  _symmetry_equiv_pos_as_xyz
  'x,y,z'

loop_
  _atom_site_type_symbol
  _atom_site_label
  _atom_site_symmetry_multiplicity
  _atom_site_fract_x
  _atom_site_fract_y
  _atom_site_fract_z
  _atom_site_occupancy
  Ag  Ag1       1.0  0.34373999999999993  0.61883  0.14272  1.0000
  Ag  Ag2       1.0  0.66792  0.38158  0.85734  1.0000
  H   H1        1.0  0.31167  0.8785  0.60675  1.0000
  H   H2        1.0  0.6720499999999999  0.5058899999999998  0.9907599999999999  1.0000
  H   H3        1.0  0.17167999999999997  0.49834000000000006  0.52828  1.0000
  H   H4        1.0  0.29407999999999995  0.8788599999999999  0.10162999999999998  1.0000
  H   H5        1.0  0.8238899999999999  0.98599  0.5048  1.0000
  H   H6        1.0  0.18308999999999997  0.61602  0.88551  1.0000
  H   H7        1.0  0.81147  0.97365  0.00252  1.0000
  H   H8        1.0  0.6139  0.4022799999999999  0.61694  1.0000
  H   H9        1.0  0.68699  0.12158999999999998  0.39325  1.0000
  H   H10       1.0  0.33884  0.49495999999999996  0.00921  1.0000
  H   H11       1.0  0.82195  0.50112  0.47175  1.0000
  H   H12       1.0  0.69873  0.12054000000000004  0.89833  1.0000
  H   H13       1.0  0.1751  0.013979999999999987  0.49526  1.0000
  H   H14       1.0  0.8274599999999999  0.38454000000000005  0.11440999999999998  1.0000
  H   H15       1.0  0.18166  0.02611000000000001  0.99749  1.0000
  H   H16       1.0  0.37922  0.59792  0.38303  1.0000
  C   C1        1.0  0.32172000000000006  0.8836500000000002  0.41864  1.0000
  C   C2        1.0  0.3519999999999999  0.95336  0.50927  1.0000
  C   C3        1.0  0.91717  0.58544  0.11808  1.0000
  C   C4        1.0  0.87519  0.48897999999999997  0.04543  1.0000
  C   C5        1.0  0.2855500000000001  0.38831000000000004  0.42101  1.0000
  C   C6        1.0  0.35774  0.5020499999999998  0.46413  1.0000
  C   C7        1.0  0.2957099999999999  0.8998199999999998  0.90829  1.0000
  C   C8        1.0  0.34230999999999995  0.9587099999999998  0.006610000000000001  1.0000
  C   C9        1.0  0.6771299999999999  0.11652000000000001  0.58159  1.0000
  C   C10       1.0  0.64694  0.0467  0.49079  1.0000
  C   C11       1.0  0.09455000000000004  0.4152900000000001  0.8817599999999999  1.0000
  C   C12       1.0  0.13572000000000006  0.5116  0.95444  1.0000
  C   C13       1.0  0.69727  0.10035  0.09135  1.0000
  C   C14       1.0  0.65082  0.04092999999999997  0.9933900000000001  1.0000
  C   C15       1.0  0.70845  0.61154  0.57863  1.0000
  C   C16       1.0  0.63616  0.4978499999999999  0.53563  1.0000
  N   N1        1.0  0.3024899999999999  0.8279099999999999  0.34637  1.0000
  N   N2        1.0  0.7654000000000001  0.6418900000000001  0.16036  1.0000
  N   N3        1.0  0.22813  0.29451999999999995  0.39027  1.0000
  N   N4        1.0  0.26428000000000007  0.8537  0.82861  1.0000
  N   N5        1.0  0.69673  0.17215000000000003  0.65378  1.0000
  N   N6        1.0  0.24606  0.35871  0.83954  1.0000
  N   N7        1.0  0.7283099999999999  0.14692  0.17045  1.0000
  N   N8        1.0  0.76592  0.7049500000000001  0.60981  1.0000
