data_image0
_chemical_formula_structural       Mg6H16C28N4O20
_chemical_formula_sum              "Mg6 H16 C28 N4 O20"
_cell_length_a       11.2087
_cell_length_b       11.15834
_cell_length_c       11.156220000000001
_cell_angle_alpha    70.97602
_cell_angle_beta     78.87793
_cell_angle_gamma    78.86636

_space_group_name_H-M_alt    "P 1"
_space_group_IT_number       1

loop_
  _space_group_symop_operation_xyz
  'x, y, z'

loop_
  _atom_site_type_symbol
  _atom_site_label
  _atom_site_symmetry_multiplicity
  _atom_site_fract_x
  _atom_site_fract_y
  _atom_site_fract_z
  _atom_site_occupancy
  Mg  Mg1       1.0  0.45929  0.12241  0.04969  1.0000
  Mg  Mg2       1.0  0.04054999999999991  0.9503  0.8774500000000001  1.0000
  Mg  Mg3       1.0  0.54071  0.8775999999999999  0.9503000000000001  1.0000
  Mg  Mg4       1.0  0.95944  0.0497  0.12255  1.0000
  Mg  Mg5       1.0  0.24907999999999994  0.09686999999999996  0.90358  1.0000
  Mg  Mg6       1.0  0.75091  0.90313  0.09642  1.0000
  H   H1        1.0  0.47515999999999997  0.11125000000000003  0.80602  1.0000
  H   H2        1.0  0.12256000000000002  0.04211  0.45296  1.0000
  H   H3        1.0  0.43995  0.157  0.52628  1.0000
  H   H4        1.0  0.5337000000000001  0.17257000000000006  0.29731  1.0000
  H   H5        1.0  0.023650000000000008  0.19474  0.88851  1.0000
  H   H6        1.0  0.3771699999999999  0.5472999999999997  0.9579200000000002  1.0000
  H   H7        1.0  0.05993999999999997  0.47362999999999994  0.8431300000000002  1.0000
  H   H8        1.0  0.9659899999999999  0.70266  0.82724  1.0000
  H   H9        1.0  0.52484  0.88875  0.19397000000000003  1.0000
  H   H10       1.0  0.8774399999999999  0.9578899999999999  0.54704  1.0000
  H   H11       1.0  0.56004  0.8430000000000001  0.47372  1.0000
  H   H12       1.0  0.4663000000000001  0.8274399999999997  0.7026800000000001  1.0000
  H   H13       1.0  0.9763399999999998  0.80527  0.11149  1.0000
  H   H14       1.0  0.62282  0.45271000000000006  0.04208  1.0000
  H   H15       1.0  0.9400599999999999  0.52638  0.15686  1.0000
  H   H16       1.0  0.03400999999999999  0.29734  0.17276  1.0000
  C   C1        1.0  0.27088  0.08430000000000001  0.29691  1.0000
  C   C2        1.0  0.22075999999999996  0.07862999999999998  0.6459700000000002  1.0000
  C   C3        1.0  0.21334999999999996  0.07158999999999996  0.42213000000000006  1.0000
  C   C4        1.0  0.27529  0.09651000000000003  0.50718  1.0000
  C   C5        1.0  0.3913  0.1355  0.46207  1.0000
  C   C6        1.0  0.20982  0.06188999999999998  0.19842000000000004  1.0000
  C   C7        1.0  0.44303  0.14425  0.33591000000000004  1.0000
  C   C8        1.0  0.22866999999999993  0.70324  0.9156500000000001  1.0000
  C   C9        1.0  0.27795  0.35391  0.92246  1.0000
  C   C10       1.0  0.28636  0.5780199999999999  0.92847  1.0000
  C   C11       1.0  0.2243199999999999  0.49297  0.90373  1.0000
  C   C12       1.0  0.10841999999999992  0.5380600000000001  0.86448  1.0000
  C   C13       1.0  0.28929  0.8019499999999999  0.93816  1.0000
  C   C14       1.0  0.056660000000000016  0.6641699999999998  0.85554  1.0000
  C   C15       1.0  0.7291100000000001  0.9156999999999998  0.70308  1.0000
  C   C16       1.0  0.77924  0.92137  0.35402  1.0000
  C   C17       1.0  0.7866399999999999  0.92842  0.57787  1.0000
  C   C18       1.0  0.7247099999999997  0.90349  0.49281  1.0000
  C   C19       1.0  0.6086999999999999  0.8644999999999999  0.5379300000000001  1.0000
  C   C20       1.0  0.79017  0.93811  0.8015800000000001  1.0000
  C   C21       1.0  0.55696  0.8557499999999998  0.6640800000000001  1.0000
  C   C22       1.0  0.77132  0.29677  0.08435000000000001  1.0000
  C   C23       1.0  0.72205  0.64609  0.07753  1.0000
  C   C24       1.0  0.7136399999999998  0.4219800000000001  0.07153  1.0000
  C   C25       1.0  0.77568  0.50704  0.09627  1.0000
  C   C26       1.0  0.8915699999999999  0.46195  0.13552  1.0000
  C   C27       1.0  0.7107099999999997  0.19805  0.06184  1.0000
  C   C28       1.0  0.94334  0.3358400000000001  0.14445  1.0000
  N   N1        1.0  0.38497  0.11818000000000001  0.25453  1.0000
  N   N2        1.0  0.11465999999999998  0.7455199999999997  0.8816600000000001  1.0000
  N   N3        1.0  0.61503  0.8818299999999999  0.74547  1.0000
  N   N4        1.0  0.88534  0.25449  0.11833000000000002  1.0000
  O   O1        1.0  0.44401999999999997  0.06479999999999994  0.8928700000000003  1.0000
  O   O2        1.0  0.09786  0.048780000000000004  0.2241  1.0000
  O   O3        1.0  0.27389  0.12408000000000002  0.7089  1.0000
  O   O4        1.0  0.12888999999999998  0.01845999999999997  0.68738  1.0000
  O   O5        1.0  0.27902  0.06027  0.09322  1.0000
  O   O6        1.0  0.05433999999999997  0.10769999999999995  0.9348100000000001  1.0000
  O   O7        1.0  0.40103  0.7762900000000001  0.95179  1.0000
  O   O8        1.0  0.22345  0.2909699999999999  0.8784  1.0000
  O   O9        1.0  0.37019  0.31217000000000006  0.98196  1.0000
  O   O10       1.0  0.21975999999999998  0.90718  0.93947  1.0000
  O   O11       1.0  0.5559799999999999  0.9352  0.10713  1.0000
  O   O12       1.0  0.9021399999999997  0.95123  0.7759  1.0000
  O   O13       1.0  0.7261  0.87593  0.29109  1.0000
  O   O14       1.0  0.8711  0.98154  0.31262000000000006  1.0000
  O   O15       1.0  0.7209699999999999  0.9397299999999998  0.9067800000000001  1.0000
  O   O16       1.0  0.9456499999999999  0.8923000000000001  0.06519  1.0000
  O   O17       1.0  0.59896  0.22371  0.04820000000000001  1.0000
  O   O18       1.0  0.77655  0.7090399999999999  0.12160000000000001  1.0000
  O   O19       1.0  0.62981  0.68784  0.01804  1.0000
  O   O20       1.0  0.78023  0.09283000000000001  0.06052  1.0000
