data_image0
_chemical_formula_structural       Gd2H18C36N6O12
_chemical_formula_sum              "Gd2 H18 C36 N6 O12"
_cell_length_a       9.61945
_cell_length_b       11.63241
_cell_length_c       13.565849999999998
_cell_angle_alpha    65.02777
_cell_angle_beta     85.44251
_cell_angle_gamma    78.32491

_symmetry_space_group_name_H-M    'P 1'
_symmetry_Int_Tables_number       1

loop_
  _symmetry_equiv_pos_as_xyz
  'x,y,z'

loop_
  _atom_site_type_symbol
  _atom_site_label
  _atom_site_symmetry_multiplicity
  _atom_site_fract_x
  _atom_site_fract_y
  _atom_site_fract_z
  _atom_site_occupancy
  Gd  Gd1       1.0  0.22803000000000004  0.5062399999999999  0.014700000000000003  1.0000
  Gd  Gd2       1.0  0.7719700000000004  0.49376  0.9853  1.0000
  H   H1        1.0  0.05689999999999999  0.24276  0.25305  1.0000
  H   H2        1.0  0.001599999999999998  0.12368000000000001  0.44951  1.0000
  H   H3        1.0  0.46820000000000017  0.9951799999999997  0.31441  1.0000
  H   H4        1.0  0.7443200000000001  0.69744  0.51341  1.0000
  H   H5        1.0  0.70426  0.57583  0.7127  1.0000
  H   H6        1.0  0.2936300000000001  0.8261499999999998  0.67044  1.0000
  H   H7        1.0  0.24940999999999994  0.5771699999999997  0.7314800000000001  1.0000
  H   H8        1.0  0.3288000000000001  0.6182999999999997  0.54086  1.0000
  H   H9        1.0  0.89657  0.43625  0.6722000000000001  1.0000
  H   H10       1.0  0.9430900000000004  0.7572399999999997  0.74695  1.0000
  H   H11       1.0  0.9983900000000001  0.87632  0.55049  1.0000
  H   H12       1.0  0.5317900000000001  0.004819999999999939  0.6855900000000001  1.0000
  H   H13       1.0  0.2556700000000001  0.30255999999999983  0.48659000000000013  1.0000
  H   H14       1.0  0.29573  0.42416999999999994  0.2873  1.0000
  H   H15       1.0  0.70637  0.17384999999999995  0.32956  1.0000
  H   H16       1.0  0.75058  0.42283  0.26852  1.0000
  H   H17       1.0  0.6711899999999998  0.3817000000000001  0.45914  1.0000
  H   H18       1.0  0.10342000000000003  0.5637499999999999  0.32780000000000004  1.0000
  C   C1        1.0  0.31705  0.20135999999999998  0.15515000000000004  1.0000
  C   C2        1.0  0.26821000000000006  0.12805  0.26884  1.0000
  C   C3        1.0  0.13477  0.16426999999999994  0.30737  1.0000
  C   C4        1.0  0.10469  0.09811999999999999  0.41718  1.0000
  C   C5        1.0  0.32397  0.96432  0.45019  1.0000
  C   C6        1.0  0.36358000000000007  0.02555999999999999  0.34144  1.0000
  C   C7        1.0  0.42560000000000037  0.8556599999999999  0.52823  1.0000
  C   C8        1.0  0.64571  0.7228299999999999  0.55124  1.0000
  C   C9        1.0  0.62407  0.65535  0.6622  1.0000
  C   C10       1.0  0.49542  0.69145  0.7069800000000002  1.0000
  C   C11       1.0  0.39427  0.79383  0.63912  1.0000
  C   C12       1.0  0.4688000000000001  0.6178399999999998  0.8250900000000001  1.0000
  C   C13       1.0  0.014030000000000025  0.4780499999999999  0.82899  1.0000
  C   C14       1.0  0.06765000000000006  0.5018499999999999  0.7171500000000001  1.0000
  C   C15       1.0  0.19023  0.5545099999999998  0.6792500000000001  1.0000
  C   C16       1.0  0.23272000000000004  0.5789799999999999  0.57245  1.0000
  C   C17       1.0  0.040440000000000004  0.50939  0.53958  1.0000
  C   C18       1.0  0.9919399999999999  0.47761  0.6464700000000001  1.0000
  C   C19       1.0  0.6828900000000002  0.7986499999999997  0.8448600000000003  1.0000
  C   C20       1.0  0.7317900000000002  0.87195  0.7311600000000001  1.0000
  C   C21       1.0  0.86522  0.8357399999999997  0.6926300000000002  1.0000
  C   C22       1.0  0.8953000000000003  0.9018699999999997  0.58282  1.0000
  C   C23       1.0  0.67603  0.035680000000000024  0.54981  1.0000
  C   C24       1.0  0.63641  0.97444  0.6585600000000001  1.0000
  C   C25       1.0  0.57439  0.14433999999999997  0.47178  1.0000
  C   C26       1.0  0.35429  0.27716999999999997  0.44876  1.0000
  C   C27       1.0  0.37592999999999993  0.34465  0.3378  1.0000
  C   C28       1.0  0.5045800000000001  0.30855  0.29302  1.0000
  C   C29       1.0  0.60572  0.20616999999999996  0.36088  1.0000
  C   C30       1.0  0.5311799999999999  0.38217  0.17491  1.0000
  C   C31       1.0  0.9859700000000005  0.5219499999999998  0.17101000000000002  1.0000
  C   C32       1.0  0.93234  0.49815  0.28285  1.0000
  C   C33       1.0  0.8097700000000001  0.44549  0.32075  1.0000
  C   C34       1.0  0.7672700000000002  0.42101999999999995  0.42755000000000004  1.0000
  C   C35       1.0  0.95955  0.49060999999999994  0.46042000000000005  1.0000
  C   C36       1.0  0.008050000000000014  0.52239  0.35353  1.0000
  N   N1        1.0  0.19618999999999995  5.000000000002589e-05  0.48825  1.0000
  N   N2        1.0  0.54972  0.8201899999999999  0.48529  1.0000
  N   N3        1.0  0.16  0.55814  0.50311  1.0000
  N   N4        1.0  0.8038100000000001  0.99995  0.51176  1.0000
  N   N5        1.0  0.45028000000000007  0.17981000000000003  0.51471  1.0000
  N   N6        1.0  0.83999  0.44185999999999986  0.49689  1.0000
  O   O1        1.0  0.43761  0.17153  0.12487  1.0000
  O   O2        1.0  0.22223  0.30314  0.09424000000000002  1.0000
  O   O3        1.0  0.34153  0.62873  0.8598800000000001  1.0000
  O   O4        1.0  0.5740800000000001  0.54193  0.88544  1.0000
  O   O5        1.0  0.07557000000000003  0.5142899999999998  0.8883700000000002  1.0000
  O   O6        1.0  0.90264  0.42809999999999987  0.8606500000000001  1.0000
  O   O7        1.0  0.56244  0.8284499999999999  0.8751100000000003  1.0000
  O   O8        1.0  0.7777700000000001  0.6968599999999997  0.9057600000000002  1.0000
  O   O9        1.0  0.6584700000000002  0.37127  0.14012  1.0000
  O   O10       1.0  0.4259199999999999  0.45807  0.11456  1.0000
  O   O11       1.0  0.9244300000000001  0.48571  0.11163000000000001  1.0000
  O   O12       1.0  0.09735000000000003  0.5719  0.13935  1.0000
