data_image0
_chemical_formula_structural       U8H8C28N4O24
_chemical_formula_sum              "U8 H8 C28 N4 O24"
_cell_length_a       9.84762
_cell_length_b       12.34112
_cell_length_c       14.45554
_cell_angle_alpha    90.07797
_cell_angle_beta     103.6243
_cell_angle_gamma    89.7344

_space_group_name_H-M_alt    "P 1"
_space_group_IT_number       1

loop_
  _space_group_symop_operation_xyz
  'x, y, z'

loop_
  _atom_site_type_symbol
  _atom_site_label
  _atom_site_symmetry_multiplicity
  _atom_site_fract_x
  _atom_site_fract_y
  _atom_site_fract_z
  _atom_site_occupancy
  U   U1        1.0  0.14031000000000005  0.07631  0.4883300000000001  1.0000
  U   U2        1.0  0.25003  0.58842  0.23923000000000005  1.0000
  U   U3        1.0  0.25353  0.09423  0.25719000000000003  1.0000
  U   U4        1.0  0.35851  0.57734  0.00533  1.0000
  U   U5        1.0  0.7472400000000001  0.9082100000000001  0.7412300000000003  1.0000
  U   U6        1.0  0.64052  0.42237  0.99376  1.0000
  U   U7        1.0  0.86051  0.9233100000000001  0.50962  1.0000
  U   U8        1.0  0.75096  0.41295  0.76007  1.0000
  H   H1        1.0  0.32781000000000005  0.81754  0.42442000000000013  1.0000
  H   H2        1.0  0.11570000000000001  0.94859  0.00401  1.0000
  H   H3        1.0  0.3832  0.45121  0.4953500000000001  1.0000
  H   H4        1.0  0.6160600000000002  0.54961  0.5041400000000003  1.0000
  H   H5        1.0  0.17126000000000002  0.31882  0.07456000000000003  1.0000
  H   H6        1.0  0.88431  0.05155  0.9960200000000002  1.0000
  H   H7        1.0  0.6724100000000001  0.1839  0.5755000000000002  1.0000
  H   H8        1.0  0.82854  0.6811000000000003  0.9256200000000002  1.0000
  C   C1        1.0  0.9164100000000001  0.13408  0.9864700000000002  1.0000
  C   C2        1.0  0.048380000000000103  0.43697000000000014  0.9152800000000002  1.0000
  C   C3        1.0  0.004970000000000079  0.3387  0.9504100000000002  1.0000
  C   C4        1.0  0.5809700000000001  0.21975000000000006  0.5303100000000001  1.0000
  C   C5        1.0  0.7334400000000001  0.15326  0.83205  1.0000
  C   C6        1.0  0.95133  0.56321  0.08470000000000003  1.0000
  C   C7        1.0  0.84493  0.19506  0.9092300000000001  1.0000
  C   C8        1.0  0.58404  0.63268  0.51316  1.0000
  C   C9        1.0  0.49426  0.83854  0.54779  1.0000
  C   C10       1.0  0.99493  0.6613500000000001  0.04964000000000001  1.0000
  C   C11       1.0  0.96683  0.82099  0.9503000000000003  1.0000
  C   C12       1.0  0.65488  0.6938800000000002  0.58857  1.0000
  C   C13       1.0  0.23280000000000003  0.3481  0.3336500000000001  1.0000
  C   C14       1.0  0.03447000000000001  0.17867000000000002  0.050310000000000014  1.0000
  C   C15       1.0  0.41922  0.78097  0.4692400000000001  1.0000
  C   C16       1.0  0.08379  0.8656100000000001  0.013740000000000004  1.0000
  C   C17       1.0  0.44958000000000004  0.93555  0.58514  1.0000
  C   C18       1.0  0.08107  0.28135  0.029980000000000003  1.0000
  C   C19       1.0  0.2654300000000001  0.84503  0.16802000000000006  1.0000
  C   C20       1.0  0.50572  0.16258  0.4518500000000001  1.0000
  C   C21       1.0  0.76792  0.6514100000000002  0.66645  1.0000
  C   C22       1.0  0.34414999999999996  0.30612  0.41072  1.0000
  C   C23       1.0  0.15535  0.80556  0.09131  1.0000
  C   C24       1.0  0.5505000000000001  0.06595  0.41458  1.0000
  C   C25       1.0  0.41520000000000007  0.36801000000000006  0.48669  1.0000
  C   C26       1.0  0.53389  0.32336  0.5508300000000003  1.0000
  C   C27       1.0  0.9191700000000003  0.71823  0.9702100000000002  1.0000
  C   C28       1.0  0.4645700000000001  0.6774  0.44829000000000013  1.0000
  N   N1        1.0  0.37911  0.19886  0.39609  1.0000
  N   N2        1.0  0.6215500000000002  0.80123  0.6038400000000003  1.0000
  N   N3        1.0  0.8791100000000003  0.30208  0.8942100000000002  1.0000
  N   N4        1.0  0.12068  0.6978600000000001  0.10599000000000003  1.0000
  O   O1        1.0  0.69385  0.05385  0.83263  1.0000
  O   O2        1.0  0.50387  0.45899  0.08414  1.0000
  O   O3        1.0  0.9822600000000005  0.95939  0.4150500000000001  1.0000
  O   O4        1.0  0.60245  0.38029  0.62464  1.0000
  O   O5        1.0  0.6687  0.0182  0.4564000000000001  1.0000
  O   O6        1.0  0.31881000000000004  0.7762800000000002  0.23592  1.0000
  O   O7        1.0  0.8300200000000001  0.51844  0.04198000000000002  1.0000
  O   O8        1.0  0.10412  0.12076  0.12717000000000003  1.0000
  O   O9        1.0  0.68264  0.22182  0.7641700000000002  1.0000
  O   O10       1.0  0.1696900000000001  0.48231  0.9580800000000003  1.0000
  O   O11       1.0  0.49704  0.54001  0.9142100000000002  1.0000
  O   O12       1.0  0.8100900000000002  0.55381  0.6659000000000003  1.0000
  O   O13       1.0  0.3313  0.9834400000000001  0.54274  1.0000
  O   O14       1.0  0.81593  0.71976  0.7349800000000002  1.0000
  O   O15       1.0  0.39589  0.62013  0.3749800000000001  1.0000
  O   O16       1.0  0.47048000000000006  0.026990000000000004  0.33707  1.0000
  O   O17       1.0  0.19012000000000007  0.44516  0.33228000000000013  1.0000
  O   O18       1.0  0.18346  0.27721  0.26455  1.0000
  O   O19       1.0  0.8985600000000004  0.87834  0.8748100000000001  1.0000
  O   O20       1.0  0.5290500000000002  0.9744700000000001  0.6611600000000002  1.0000
  O   O21       1.0  0.031100000000000023  0.52047  0.15939  1.0000
  O   O22       1.0  0.011240000000000024  0.03793  0.58855  1.0000
  O   O23       1.0  0.30535  0.9470300000000001  0.17013000000000006  1.0000
  O   O24       1.0  0.96925  0.47946  0.84108  1.0000
