data_image0
_chemical_formula_structural       V8P8H20C24O24F12
_chemical_formula_sum              "V8 P8 H20 C24 O24 F12"
_cell_length_a       9.18983
_cell_length_b       10.27493
_cell_length_c       19.54642
_cell_angle_alpha    89.65988
_cell_angle_beta     90.52357999999998
_cell_angle_gamma    112.81223

_symmetry_space_group_name_H-M    'P 1'
_symmetry_Int_Tables_number       1

loop_
  _symmetry_equiv_pos_as_xyz
  'x,y,z'

loop_
  _atom_site_type_symbol
  _atom_site_label
  _atom_site_symmetry_multiplicity
  _atom_site_fract_x
  _atom_site_fract_y
  _atom_site_fract_z
  _atom_site_occupancy
  V   V1        1.0  0.72935  0.24071  0.74471  1.0000
  V   V2        1.0  0.74322  0.47814  0.8859700000000001  1.0000
  V   V3        1.0  0.26911  0.26192  0.24271000000000004  1.0000
  V   V4        1.0  0.25677  0.022899999999999997  0.38303  1.0000
  V   V5        1.0  0.27353  0.75788  0.25618  1.0000
  V   V6        1.0  0.25398999999999994  0.5231099999999999  0.11388  1.0000
  V   V7        1.0  0.72933  0.74121  0.75656  1.0000
  V   V8        1.0  0.7423  0.97861  0.61416  1.0000
  P   P1        1.0  0.99784  0.31099999999999994  0.63004  1.0000
  P   P2        1.0  0.47562  0.17449  0.86781  1.0000
  P   P3        1.0  0.99942  0.18995999999999996  0.12739  1.0000
  P   P4        1.0  0.52418  0.32922  0.36634  1.0000
  P   P5        1.0  0.0037199999999999677  0.68884  0.36993  1.0000
  P   P6        1.0  0.52767  0.82626  0.13272  1.0000
  P   P7        1.0  0.0014599999999999182  0.8100499999999999  0.87189  1.0000
  P   P8        1.0  0.4744900000000001  0.67227  0.63183  1.0000
  H   H1        1.0  0.87534  0.53292  0.60747  1.0000
  H   H2        1.0  0.11626  0.31704  0.49408  1.0000
  H   H3        1.0  0.47896999999999995  0.75407  0.9882200000000001  1.0000
  H   H4        1.0  0.46648  0.89241  0.88563  1.0000
  H   H5        1.0  0.24680999999999995  0.9966699999999998  0.8395  1.0000
  H   H6        1.0  0.12689000000000009  0.9720400000000001  0.10861  1.0000
  H   H7        1.0  0.8808  0.18032  0.9888700000000001  1.0000
  H   H8        1.0  0.5212299999999999  0.7484399999999999  0.48712999999999995  1.0000
  H   H9        1.0  0.53655  0.61463  0.38444  1.0000
  H   H10       1.0  0.7566  0.50282  0.33777  1.0000
  H   H11       1.0  0.12453999999999998  0.46587999999999996  0.39248  1.0000
  H   H12       1.0  0.88366  0.6823399999999998  0.50585  1.0000
  H   H13       1.0  0.5228  0.24972  0.013940000000000001  1.0000
  H   H14       1.0  0.53669  0.11178999999999999  0.11644  1.0000
  H   H15       1.0  0.75717  0.0016600000000000002  0.16029  1.0000
  H   H16       1.0  0.87909  0.03093  0.8893799999999998  1.0000
  H   H17       1.0  0.12387  0.82251  0.00897  1.0000
  H   H18       1.0  0.47842  0.25245  0.5113  1.0000
  H   H19       1.0  0.46348999999999996  0.38633  0.61406  1.0000
  H   H20       1.0  0.24259000000000003  0.49708  0.66145  1.0000
  C   C1        1.0  0.48251  0.94047  0.93605  1.0000
  C   C2        1.0  0.99509  0.41645999999999994  0.55713  1.0000
  C   C3        1.0  0.92941  0.51889  0.56029  1.0000
  C   C4        1.0  0.06573000000000002  0.39694  0.49663999999999997  1.0000
  C   C5        1.0  0.4935  0.08007999999999998  0.9431099999999999  1.0000
  C   C6        1.0  0.48959000000000014  0.8626600000000001  0.9936800000000001  1.0000
  C   C7        1.0  0.51898  0.5641  0.43448000000000003  1.0000
  C   C8        1.0  0.0031499999999999974  0.08419  0.05546999999999999  1.0000
  C   C9        1.0  0.07238999999999994  0.9842699999999999  0.06069  1.0000
  C   C10       1.0  0.9333499999999999  0.10195  0.9936600000000001  1.0000
  C   C11       1.0  0.50752  0.42403  0.44108  1.0000
  C   C12       1.0  0.51064  0.63976  0.49231  1.0000
  C   C13       1.0  0.5195  0.06340999999999998  0.06606  1.0000
  C   C14       1.0  0.004349999999999995  0.58249  0.4426800000000001  1.0000
  C   C15       1.0  0.07001999999999999  0.48003  0.43951  1.0000
  C   C16       1.0  0.93372  0.60208  0.50319  1.0000
  C   C17       1.0  0.50827  0.92372  0.05893  1.0000
  C   C18       1.0  0.51177  0.14106999999999997  0.00837  1.0000
  C   C19       1.0  0.4804899999999999  0.4367500000000001  0.56397  1.0000
  C   C20       1.0  0.0009099999999999911  0.9184  0.94301  1.0000
  C   C21       1.0  0.9327299999999998  0.01888  0.93755  1.0000
  C   C22       1.0  0.07154999999999996  0.9011299999999999  0.00459  1.0000
  C   C23       1.0  0.4913  0.57659  0.55739  1.0000
  C   C24       1.0  0.48873  0.36115  0.50614  1.0000
  O   O1        1.0  0.88298  0.33756  0.68427  1.0000
  O   O2        1.0  0.16281  0.35555  0.65969  1.0000
  O   O3        1.0  0.9220800000000001  0.15536  0.60778  1.0000
  O   O4        1.0  0.52401  0.3321  0.88213  1.0000
  O   O5        1.0  0.30426999999999993  0.11062999999999999  0.84011  1.0000
  O   O6        1.0  0.58723  0.14873  0.81273  1.0000
  O   O7        1.0  0.11353  0.16287  0.18294  1.0000
  O   O8        1.0  0.83513  0.14736  0.15611  1.0000
  O   O9        1.0  0.07825000000000003  0.34529  0.10399000000000001  1.0000
  O   O10       1.0  0.47291  0.17127  0.38192  1.0000
  O   O11       1.0  0.69557  0.38895  0.34002  1.0000
  O   O12       1.0  0.41424  0.35677  0.31  1.0000
  O   O13       1.0  0.11797999999999996  0.66095  0.31578  1.0000
  O   O14       1.0  0.84017  0.6483499999999999  0.33986  1.0000
  O   O15       1.0  0.08405000000000001  0.8440500000000001  0.39277  1.0000
  O   O16       1.0  0.47321  0.66932  0.11497000000000002  1.0000
  O   O17       1.0  0.69968  0.88654  0.15964  1.0000
  O   O18       1.0  0.4205999999999999  0.8510799999999998  0.19028  1.0000
  O   O19       1.0  0.8875700000000001  0.83745  0.81606  1.0000
  O   O20       1.0  0.1652500000000001  0.8497400000000002  0.84336  1.0000
  O   O21       1.0  0.9196  0.65538  0.89622  1.0000
  O   O22       1.0  0.52679  0.82978  0.61473  1.0000
  O   O23       1.0  0.30473  0.61292  0.65964  1.0000
  O   O24       1.0  0.58643  0.64736  0.68826  1.0000
  F   F1        1.0  0.80017  0.40865  0.80191  1.0000
  F   F2        1.0  0.65672  0.08425  0.68397  1.0000
  F   F3        1.0  0.79363  0.3893  0.95482  1.0000
  F   F4        1.0  0.19254  0.09755  0.30203  1.0000
  F   F5        1.0  0.34346  0.41557  0.18051  1.0000
  F   F6        1.0  0.19937  0.10439  0.45158  1.0000
  F   F7        1.0  0.1996  0.59097  0.19815  1.0000
  F   F8        1.0  0.34324  0.91649  0.31591  1.0000
  F   F9        1.0  0.19240999999999997  0.61111  0.04831  1.0000
  F   F10       1.0  0.80077  0.9086399999999999  0.69808  1.0000
  F   F11       1.0  0.6555  0.58815  0.81966  1.0000
  F   F12       1.0  0.7934599999999999  0.9024199999999999  0.54166  1.0000
