data_image0
_chemical_formula_structural       Ag8H20C44O16
_chemical_formula_sum              "Ag8 H20 C44 O16"
_cell_length_a       8.83362
_cell_length_b       11.22405
_cell_length_c       12.78639
_cell_angle_alpha    94.83166
_cell_angle_beta     88.46395
_cell_angle_gamma    79.71433

_space_group_name_H-M_alt    "P 1"
_space_group_IT_number       1

loop_
  _space_group_symop_operation_xyz
  'x, y, z'

loop_
  _atom_site_type_symbol
  _atom_site_label
  _atom_site_symmetry_multiplicity
  _atom_site_fract_x
  _atom_site_fract_y
  _atom_site_fract_z
  _atom_site_occupancy
  Ag  Ag1       1.0  0.007400000000000026  0.9591299999999998  0.33845999999999987  1.0000
  Ag  Ag2       1.0  0.11208  0.16699  0.27488  1.0000
  Ag  Ag3       1.0  0.10052999999999997  0.98849  0.07823  1.0000
  Ag  Ag4       1.0  0.24186999999999997  0.98775  0.49308  1.0000
  Ag  Ag5       1.0  0.99259  0.04086999999999999  0.6615399999999999  1.0000
  Ag  Ag6       1.0  0.8879100000000001  0.83301  0.72512  1.0000
  Ag  Ag7       1.0  0.8994599999999997  0.011510000000000006  0.9217699999999999  1.0000
  Ag  Ag8       1.0  0.7581199999999999  0.01224999999999999  0.50693  1.0000
  H   H1        1.0  0.48338  0.70256  0.29644  1.0000
  H   H2        1.0  0.71758  0.56747  0.21328  1.0000
  H   H3        1.0  0.47150999999999993  0.93096  0.043799999999999985  1.0000
  H   H4        1.0  0.6905299999999996  0.78803  0.9522  1.0000
  H   H5        1.0  0.76492  0.4278799999999999  0.05559999999999999  1.0000
  H   H6        1.0  0.63477  0.24147000000000002  0.54443  1.0000
  H   H7        1.0  0.36218  0.32946  0.58726  1.0000
  H   H8        1.0  0.59838  0.38917  0.24414  1.0000
  H   H9        1.0  0.32310000000000005  0.47678  0.28742  1.0000
  H   H10       1.0  0.8454200000000003  0.37574  0.5932799999999999  1.0000
  H   H11       1.0  0.5166199999999997  0.29744  0.7035599999999997  1.0000
  H   H12       1.0  0.28241  0.4325300000000001  0.78672  1.0000
  H   H13       1.0  0.52848  0.06903999999999998  0.9561999999999998  1.0000
  H   H14       1.0  0.30947  0.21197  0.0478  1.0000
  H   H15       1.0  0.23507000000000003  0.5721199999999997  0.94441  1.0000
  H   H16       1.0  0.36522999999999994  0.75853  0.4555799999999999  1.0000
  H   H17       1.0  0.6378099999999998  0.67054  0.41274  1.0000
  H   H18       1.0  0.40161  0.61083  0.7558599999999998  1.0000
  H   H19       1.0  0.67689  0.52322  0.71259  1.0000
  H   H20       1.0  0.15457  0.62426  0.40671999999999997  1.0000
  C   C1        1.0  0.33952  0.9154699999999999  0.23554999999999995  1.0000
  C   C2        1.0  0.4685900000000001  0.82898  0.17877999999999997  1.0000
  C   C3        1.0  0.5337199999999999  0.72267  0.2232  1.0000
  C   C4        1.0  0.66178  0.64573  0.17495  1.0000
  C   C5        1.0  0.52615  0.8511799999999999  0.08041999999999999  1.0000
  C   C6        1.0  0.64991  0.77123  0.029439999999999997  1.0000
  C   C7        1.0  0.72409  0.6698  0.07797  1.0000
  C   C8        1.0  0.8639699999999999  0.58615  0.032729999999999995  1.0000
  C   C9        1.0  0.8687  0.46044000000000007  0.03261  1.0000
  C   C10       1.0  0.99922  0.62468  0.99849  1.0000
  C   C11       1.0  0.010289999999999999  0.75626  0.99865  1.0000
  C   C12       1.0  0.79398  0.24102  0.35987  1.0000
  C   C13       1.0  0.63419  0.30564  0.3893999999999999  1.0000
  C   C14       1.0  0.5662299999999999  0.29096  0.4868699999999999  1.0000
  C   C15       1.0  0.4131  0.3411  0.51143  1.0000
  C   C16       1.0  0.5462299999999998  0.37642  0.31942  1.0000
  C   C17       1.0  0.39138999999999996  0.42566  0.34401  1.0000
  C   C18       1.0  0.32113  0.40572  0.4394  1.0000
  C   C19       1.0  0.15599  0.45025000000000004  0.4667  1.0000
  C   C20       1.0  0.06460999999999996  0.38095  0.52027  1.0000
  C   C21       1.0  0.91306  0.43201  0.55376  1.0000
  C   C22       1.0  0.11490999999999998  0.24871999999999997  0.5361  1.0000
  C   C23       1.0  0.66048  0.08454  0.76446  1.0000
  C   C24       1.0  0.53141  0.17102  0.82122  1.0000
  C   C25       1.0  0.46627  0.27733  0.7768  1.0000
  C   C26       1.0  0.33821  0.35427  0.8250499999999997  1.0000
  C   C27       1.0  0.47385  0.14882  0.91958  1.0000
  C   C28       1.0  0.35007999999999995  0.22877  0.97056  1.0000
  C   C29       1.0  0.27591  0.3302  0.92203  1.0000
  C   C30       1.0  0.13603000000000004  0.41385  0.96727  1.0000
  C   C31       1.0  0.13130000000000003  0.53956  0.9673899999999999  1.0000
  C   C32       1.0  0.0007699999999999982  0.37533  0.0015099999999999996  1.0000
  C   C33       1.0  0.9897099999999999  0.24374000000000004  0.00135  1.0000
  C   C34       1.0  0.20600999999999997  0.75898  0.64013  1.0000
  C   C35       1.0  0.36581  0.69436  0.6106  1.0000
  C   C36       1.0  0.4337599999999999  0.70904  0.51313  1.0000
  C   C37       1.0  0.58689  0.6589  0.4885699999999999  1.0000
  C   C38       1.0  0.45376  0.62358  0.68058  1.0000
  C   C39       1.0  0.6086100000000001  0.57434  0.6559899999999999  1.0000
  C   C40       1.0  0.67887  0.59429  0.5606  1.0000
  C   C41       1.0  0.8440099999999998  0.54975  0.5333  1.0000
  C   C42       1.0  0.93538  0.61905  0.47972999999999993  1.0000
  C   C43       1.0  0.08694  0.56799  0.4462499999999999  1.0000
  C   C44       1.0  0.8850900000000002  0.75129  0.4639  1.0000
  O   O1        1.0  0.2716000000000001  0.8786799999999999  0.31309  1.0000
  O   O2        1.0  0.30303  0.02097  0.2013  1.0000
  O   O3        1.0  0.09791000000000005  0.7958199999999997  0.06508  1.0000
  O   O4        1.0  0.93211  0.81577  0.9311499999999998  1.0000
  O   O5        1.0  0.84092  0.1401  0.40162  1.0000
  O   O6        1.0  0.87712  0.28419  0.29621  1.0000
  O   O7        1.0  0.06877999999999998  0.21322  0.62049  1.0000
  O   O8        1.0  0.19714999999999996  0.18098  0.46120999999999995  1.0000
  O   O9        1.0  0.72839  0.12132  0.68691  1.0000
  O   O10       1.0  0.6969599999999997  0.97903  0.7987  1.0000
  O   O11       1.0  0.90208  0.20417999999999994  0.9349199999999999  1.0000
  O   O12       1.0  0.06788  0.18422999999999998  0.06885  1.0000
  O   O13       1.0  0.15907999999999997  0.8599000000000001  0.59838  1.0000
  O   O14       1.0  0.12287000000000001  0.71581  0.7037899999999999  1.0000
  O   O15       1.0  0.93122  0.78678  0.37950999999999996  1.0000
  O   O16       1.0  0.80284  0.8190199999999999  0.53879  1.0000
