data_image0
_chemical_formula_structural       Eu4H12C36O24
_chemical_formula_sum              "Eu4 H12 C36 O24"
_cell_length_a       10.57499
_cell_length_b       10.57499
_cell_length_c       14.45558
_cell_angle_alpha    90.0
_cell_angle_beta     90.0
_cell_angle_gamma    90.0

_space_group_name_H-M_alt    "P 1"
_space_group_IT_number       1

loop_
  _space_group_symop_operation_xyz
  'x, y, z'

loop_
  _atom_site_type_symbol
  _atom_site_label
  _atom_site_symmetry_multiplicity
  _atom_site_fract_x
  _atom_site_fract_y
  _atom_site_fract_z
  _atom_site_occupancy
  Eu  Eu1       1.0  0.13416  0.86584  0.12499  1.0000
  Eu  Eu2       1.0  0.86584  0.13416  0.625  1.0000
  Eu  Eu3       1.0  0.13416  0.13416  0.37500999999999995  1.0000
  Eu  Eu4       1.0  0.86584  0.86584  0.87501  1.0000
  H   H1        1.0  0.93399  0.45731  0.85879  1.0000
  H   H2        1.0  0.066  0.54269  0.35879  1.0000
  H   H3        1.0  0.54269  0.934  0.10878999999999998  1.0000
  H   H4        1.0  0.45731  0.066  0.60879  1.0000
  H   H5        1.0  0.066  0.45731  0.14121  1.0000
  H   H6        1.0  0.93399  0.54269  0.64121  1.0000
  H   H7        1.0  0.45731  0.934  0.89121  1.0000
  H   H8        1.0  0.54269  0.066  0.39121  1.0000
  H   H9        1.0  0.0  0.10504  0.0  1.0000
  H   H10       1.0  0.0  0.8949599999999999  0.5  1.0000
  H   H11       1.0  0.89495  0.0  0.25  1.0000
  H   H12       1.0  0.10504  0.0  0.75  1.0000
  C   C1        1.0  0.9623000000000002  0.40582  0.92056  1.0000
  C   C2        1.0  0.96242  0.2735  0.9205  1.0000
  C   C3        1.0  0.92374  0.20201  0.83591  1.0000
  C   C4        1.0  0.03769  0.59418  0.42056  1.0000
  C   C5        1.0  0.03758  0.7265  0.4205  1.0000
  C   C6        1.0  0.07626  0.79799  0.33591  1.0000
  C   C7        1.0  0.59418  0.9623100000000001  0.17056  1.0000
  C   C8        1.0  0.7265  0.96242  0.1705  1.0000
  C   C9        1.0  0.79798  0.92374  0.08591  1.0000
  C   C10       1.0  0.40582  0.03769  0.67056  1.0000
  C   C11       1.0  0.2735  0.03758  0.6705  1.0000
  C   C12       1.0  0.20202  0.07626  0.58591  1.0000
  C   C13       1.0  0.03769  0.40582  0.07943999999999998  1.0000
  C   C14       1.0  0.03758  0.2735  0.07951  1.0000
  C   C15       1.0  0.07626  0.20201  0.16409  1.0000
  C   C16       1.0  0.9623000000000002  0.59418  0.57944  1.0000
  C   C17       1.0  0.96242  0.7265  0.57951  1.0000
  C   C18       1.0  0.92374  0.79799  0.66409  1.0000
  C   C19       1.0  0.40582  0.9623100000000001  0.82944  1.0000
  C   C20       1.0  0.2735  0.96242  0.82951  1.0000
  C   C21       1.0  0.20202  0.92374  0.9140899999999998  1.0000
  C   C22       1.0  0.59418  0.03769  0.32944  1.0000
  C   C23       1.0  0.7265  0.03758  0.32951  1.0000
  C   C24       1.0  0.79798  0.07626  0.41409  1.0000
  C   C25       1.0  0.0  0.6128  0.0  1.0000
  C   C26       1.0  0.0  0.47182  0.0  1.0000
  C   C27       1.0  0.0  0.20774  0.0  1.0000
  C   C28       1.0  0.0  0.3872  0.5  1.0000
  C   C29       1.0  0.0  0.52818  0.5  1.0000
  C   C30       1.0  0.0  0.79226  0.5  1.0000
  C   C31       1.0  0.3872  0.0  0.25  1.0000
  C   C32       1.0  0.52817  0.0  0.25  1.0000
  C   C33       1.0  0.79226  0.0  0.25  1.0000
  C   C34       1.0  0.6128  0.0  0.75  1.0000
  C   C35       1.0  0.47183  0.0  0.75  1.0000
  C   C36       1.0  0.20774  0.0  0.75  1.0000
  O   O1        1.0  0.08087  0.66942  0.05057999999999999  1.0000
  O   O2        1.0  0.91263  0.26245  0.75978  1.0000
  O   O3        1.0  0.90477  0.08338  0.84153  1.0000
  O   O4        1.0  0.91913  0.33057  0.55058  1.0000
  O   O5        1.0  0.08737  0.73755  0.25978  1.0000
  O   O6        1.0  0.09522000000000001  0.9166200000000001  0.34153  1.0000
  O   O7        1.0  0.33057  0.08087  0.30058  1.0000
  O   O8        1.0  0.73754  0.91263  0.00978  1.0000
  O   O9        1.0  0.9166200000000001  0.9047800000000001  0.09153  1.0000
  O   O10       1.0  0.66943  0.91913  0.80058  1.0000
  O   O11       1.0  0.26246  0.08737  0.50978  1.0000
  O   O12       1.0  0.08338  0.09522000000000001  0.59153  1.0000
  O   O13       1.0  0.91913  0.66942  0.94942  1.0000
  O   O14       1.0  0.08737  0.26245  0.24022  1.0000
  O   O15       1.0  0.09522000000000001  0.08338  0.15847  1.0000
  O   O16       1.0  0.08087  0.33057  0.44942  1.0000
  O   O17       1.0  0.91263  0.73755  0.74022  1.0000
  O   O18       1.0  0.90477  0.9166200000000001  0.65847  1.0000
  O   O19       1.0  0.66943  0.08086  0.69942  1.0000
  O   O20       1.0  0.26246  0.91263  0.99022  1.0000
  O   O21       1.0  0.08338  0.9047800000000001  0.90848  1.0000
  O   O22       1.0  0.33057  0.91913  0.19942  1.0000
  O   O23       1.0  0.73754  0.08737  0.49022  1.0000
  O   O24       1.0  0.9166200000000001  0.09522000000000001  0.40848  1.0000
