data_image0
_chemical_formula_structural       Zn2H12C32O18
_chemical_formula_sum              "Zn2 H12 C32 O18"
_cell_length_a       7.54343
_cell_length_b       7.54359
_cell_length_c       25.71161
_cell_angle_alpha    90.0
_cell_angle_beta     90.0
_cell_angle_gamma    101.005

_symmetry_space_group_name_H-M    'P 1'
_symmetry_Int_Tables_number       1

loop_
  _symmetry_equiv_pos_as_xyz
  'x,y,z'

loop_
  _atom_site_type_symbol
  _atom_site_label
  _atom_site_symmetry_multiplicity
  _atom_site_fract_x
  _atom_site_fract_y
  _atom_site_fract_z
  _atom_site_occupancy
  Zn  Zn1       1.0  0.28936  0.28936  0.0  1.0000
  Zn  Zn2       1.0  0.71064  0.71064  0.4999899999999999  1.0000
  H   H1        1.0  0.29453000000000007  0.1119  0.8502  1.0000
  H   H2        1.0  0.35426  0.9760700000000002  0.7639599999999998  1.0000
  H   H3        1.0  0.2832800000000001  0.45094  0.8355899999999999  1.0000
  H   H4        1.0  0.7054600000000001  0.8881  0.3502  1.0000
  H   H5        1.0  0.6457400000000002  0.023940000000000006  0.26396  1.0000
  H   H6        1.0  0.7167200000000002  0.5490600000000002  0.3355899999999999  1.0000
  H   H7        1.0  0.88809  0.7054700000000003  0.6497999999999998  1.0000
  H   H8        1.0  0.023930000000000003  0.64574  0.73603  1.0000
  H   H9        1.0  0.5490600000000002  0.71672  0.6643999999999999  1.0000
  H   H10       1.0  0.11190000000000005  0.29454000000000014  0.1498  1.0000
  H   H11       1.0  0.9760700000000002  0.35426  0.23604  1.0000
  H   H12       1.0  0.4509300000000001  0.28328  0.1644  1.0000
  C   C1        1.0  0.25624000000000013  0.85948  0.89096  1.0000
  C   C2        1.0  0.2885  0.9672100000000002  0.84612  1.0000
  C   C3        1.0  0.32126  0.89277  0.79851  1.0000
  C   C4        1.0  0.3219600000000001  0.7058900000000002  0.79569  1.0000
  C   C5        1.0  0.28543  0.59513  0.8389899999999998  1.0000
  C   C6        1.0  0.2488  0.67  0.8867099999999998  1.0000
  C   C7        1.0  0.2288500000000001  0.94808  0.9419599999999998  1.0000
  C   C8        1.0  0.20424000000000006  0.53879  0.9305999999999998  1.0000
  C   C9        1.0  0.7437500000000002  0.14052000000000006  0.39096  1.0000
  C   C10       1.0  0.7114900000000002  0.03279  0.3461199999999999  1.0000
  C   C11       1.0  0.67874  0.10723  0.29851  1.0000
  C   C12       1.0  0.67804  0.29411000000000004  0.29569  1.0000
  C   C13       1.0  0.7145700000000005  0.40487  0.33899  1.0000
  C   C14       1.0  0.7512000000000002  0.3300000000000001  0.38672  1.0000
  C   C15       1.0  0.7711400000000003  0.051920000000000015  0.4419699999999999  1.0000
  C   C16       1.0  0.7957600000000002  0.4612100000000001  0.43059999999999987  1.0000
  C   C17       1.0  0.1405200000000001  0.7437600000000002  0.6090299999999998  1.0000
  C   C18       1.0  0.03278999999999999  0.71149  0.6538699999999998  1.0000
  C   C19       1.0  0.10723  0.67874  0.7014899999999998  1.0000
  C   C20       1.0  0.29412  0.6780500000000003  0.7042999999999998  1.0000
  C   C21       1.0  0.40486999999999995  0.71457  0.66101  1.0000
  C   C22       1.0  0.3300000000000001  0.7512  0.6132799999999999  1.0000
  C   C23       1.0  0.05192000000000003  0.77115  0.55803  1.0000
  C   C24       1.0  0.46121  0.79576  0.5694  1.0000
  C   C25       1.0  0.8594800000000002  0.25624  0.10904  1.0000
  C   C26       1.0  0.96721  0.2885100000000001  0.15388  1.0000
  C   C27       1.0  0.8927700000000004  0.3212600000000001  0.20148999999999995  1.0000
  C   C28       1.0  0.70588  0.32196000000000013  0.20430999999999994  1.0000
  C   C29       1.0  0.5951300000000003  0.28543  0.16101  1.0000
  C   C30       1.0  0.67  0.2488  0.11328  1.0000
  C   C31       1.0  0.9480800000000003  0.22886  0.05803  1.0000
  C   C32       1.0  0.53879  0.20424  0.06939999999999999  1.0000
  O   O1        1.0  0.30447000000000013  0.11628  0.94494  1.0000
  O   O2        1.0  0.13431000000000004  0.8589600000000002  0.9761899999999998  1.0000
  O   O3        1.0  0.3305  0.52769  0.9631  1.0000
  O   O4        1.0  0.053500000000000034  0.4352400000000001  0.9297  1.0000
  O   O5        1.0  0.6955200000000002  0.88372  0.4449399999999999  1.0000
  O   O6        1.0  0.8656800000000002  0.14104000000000005  0.4761899999999999  1.0000
  O   O7        1.0  0.6695000000000002  0.47231  0.4631099999999999  1.0000
  O   O8        1.0  0.9465000000000002  0.56476  0.42969999999999997  1.0000
  O   O9        1.0  0.88371  0.69553  0.55505  1.0000
  O   O10       1.0  0.14104000000000003  0.8656900000000002  0.52381  1.0000
  O   O11       1.0  0.4723100000000001  0.6695  0.53689  1.0000
  O   O12       1.0  0.5647600000000003  0.9465000000000002  0.5702999999999999  1.0000
  O   O13       1.0  0.11628  0.30448  0.055059999999999984  1.0000
  O   O14       1.0  0.8589500000000002  0.13432  0.02381  1.0000
  O   O15       1.0  0.52769  0.3305  0.03688999999999999  1.0000
  O   O16       1.0  0.4352400000000001  0.0535  0.07029999999999999  1.0000
  O   O17       1.0  0.37013  0.62988  0.7499999999999999  1.0000
  O   O18       1.0  0.62986  0.37012  0.24999999999999994  1.0000
