data_image0
_chemical_formula_structural       Cu4H20C36O16
_chemical_formula_sum              "Cu4 H20 C36 O16"
_cell_length_a       10.45553
_cell_length_b       15.44255
_cell_length_c       15.442559999999999
_cell_angle_alpha    75.42277
_cell_angle_beta     70.65041999999998
_cell_angle_gamma    70.65041

_symmetry_space_group_name_H-M    'P 1'
_symmetry_Int_Tables_number       1

loop_
  _symmetry_equiv_pos_as_xyz
  'x,y,z'

loop_
  _atom_site_type_symbol
  _atom_site_label
  _atom_site_symmetry_multiplicity
  _atom_site_fract_x
  _atom_site_fract_y
  _atom_site_fract_z
  _atom_site_occupancy
  Cu  Cu1       1.0  0.08722999999999992  0.4580200000000001  0.04328  1.0000
  Cu  Cu2       1.0  0.9127800000000001  0.5419700000000001  0.95672  1.0000
  Cu  Cu3       1.0  0.9127799999999997  0.9567200000000002  0.54198  1.0000
  Cu  Cu4       1.0  0.08722999999999999  0.04328000000000001  0.45802  1.0000
  H   H1        1.0  0.4099399999999997  0.4346  0.76764  1.0000
  H   H2        1.0  0.18177999999999986  0.6745500000000002  0.565  1.0000
  H   H3        1.0  1.000000000010384e-05  0.13096000000000005  0.8690399999999998  1.0000
  H   H4        1.0  0.8878699999999998  0.9342900000000002  0.2649  1.0000
  H   H5        1.0  0.8182299999999999  0.4350000000000001  0.32545  1.0000
  H   H6        1.0  0.18178000000000016  0.565  0.6745499999999998  1.0000
  H   H7        1.0  0.40993999999999986  0.7676400000000002  0.4346  1.0000
  H   H8        1.0  0.5900599999999999  0.5654  0.23236  1.0000
  H   H9        1.0  0.8182299999999999  0.32545000000000013  0.4349999999999999  1.0000
  H   H10       1.0  0.07859  0.17659000000000002  0.06587  1.0000
  H   H11       1.0  0.9214100000000001  0.8234  0.93413  1.0000
  H   H12       1.0  0.8878699999999998  0.26490000000000014  0.93429  1.0000
  H   H13       1.0  9.999999999923326e-06  0.86904  0.13096  1.0000
  H   H14       1.0  0.11213999999999993  0.7351000000000001  0.06571  1.0000
  H   H15       1.0  0.07859  0.06587000000000001  0.17659  1.0000
  H   H16       1.0  0.5900599999999999  0.23235000000000006  0.5653999999999999  1.0000
  H   H17       1.0  0.5  0.3689299999999999  0.63106  1.0000
  H   H18       1.0  0.11214000000000002  0.06571000000000003  0.7350999999999999  1.0000
  H   H19       1.0  0.49999999999999983  0.6310600000000002  0.36894  1.0000
  H   H20       1.0  0.9214099999999993  0.9341200000000002  0.82341  1.0000
  C   C1        1.0  9.999999999923326e-06  0.9266600000000003  0.07334  1.0000
  C   C2        1.0  0.9558300000000001  0.25822  0.97718  1.0000
  C   C3        1.0  0.19307999999999978  0.8460300000000002  0.4892999999999999  1.0000
  C   C4        1.0  0.30756  0.75889  0.47745  1.0000
  C   C5        1.0  0.28668999999999994  0.5194600000000003  0.67488  1.0000
  C   C6        1.0  0.019550000000000026  0.01996000000000002  0.17535999999999993  1.0000
  C   C7        1.0  0.029520000000000005  0.011809999999999998  0.65364  1.0000
  C   C8        1.0  0.012370000000000004  0.01012  0.0856  1.0000
  C   C9        1.0  0.6924499999999997  0.5225500000000001  0.2411  1.0000
  C   C10       1.0  0.9804599999999998  0.9800400000000004  0.8246399999999998  1.0000
  C   C11       1.0  0.2866899999999999  0.6748700000000002  0.51946  1.0000
  C   C12       1.0  0.9804600000000004  0.82463  0.98004  1.0000
  C   C13       1.0  0.8069300000000001  0.51069  0.15397  1.0000
  C   C14       1.0  0.6067800000000001  0.49009  0.4144699999999999  1.0000
  C   C15       1.0  0.3075600000000001  0.47744  0.7589  1.0000
  C   C16       1.0  0.029509999999999866  0.6536300000000003  0.01182  1.0000
  C   C17       1.0  0.6924500000000001  0.24110000000000004  0.52255  1.0000
  C   C18       1.0  0.0441799999999999  0.7417700000000003  0.02282  1.0000
  C   C19       1.0  0.98764  0.98987  0.9143999999999998  1.0000
  C   C20       1.0  0.49999999999999983  0.5734100000000002  0.4265899999999999  1.0000
  C   C21       1.0  0.71332  0.48053000000000007  0.32512  1.0000
  C   C22       1.0  0.9704900000000002  0.3463600000000001  0.9881799999999997  1.0000
  C   C23       1.0  0.19307999999999992  0.4893000000000002  0.84603  1.0000
  C   C24       1.0  0.04418  0.02282  0.74177  1.0000
  C   C25       1.0  0.39322999999999997  0.5099000000000002  0.58553  1.0000
  C   C26       1.0  0.012370000000000004  0.08560000000000002  0.010119999999999997  1.0000
  C   C27       1.0  0.60678  0.41446000000000005  0.49009  1.0000
  C   C28       1.0  0.5  0.4265900000000002  0.5734099999999998  1.0000
  C   C29       1.0  0.9876399999999996  0.9144000000000002  0.98987  1.0000
  C   C30       1.0  0.95583  0.9771700000000002  0.25823  1.0000
  C   C31       1.0  0.71332  0.32512  0.48054  1.0000
  C   C32       1.0  0.8069299999999997  0.15396000000000004  0.5107  1.0000
  C   C33       1.0  9.999999999918016e-06  0.07334  0.92666  1.0000
  C   C34       1.0  0.39323000000000036  0.5855299999999999  0.5099  1.0000
  C   C35       1.0  0.97049  0.98818  0.34636  1.0000
  C   C36       1.0  0.01955  0.17536  0.01996  1.0000
  O   O1        1.0  0.7693199999999999  0.54624  0.07853  1.0000
  O   O2        1.0  0.93254  0.4675600000000001  0.15977999999999998  1.0000
  O   O3        1.0  0.94258  0.9676800000000002  0.6577699999999997  1.0000
  O   O4        1.0  0.7693199999999999  0.07853  0.54624  1.0000
  O   O5        1.0  0.06746999999999992  0.8402100000000001  0.53244  1.0000
  O   O6        1.0  0.89408  0.9511100000000002  0.42071  1.0000
  O   O7        1.0  0.94258  0.6577600000000002  0.96768  1.0000
  O   O8        1.0  0.057429999999999946  0.34223  0.03232  1.0000
  O   O9        1.0  0.8940800000000002  0.42070000000000013  0.9511199999999999  1.0000
  O   O10       1.0  0.10592999999999997  0.04888000000000001  0.57929  1.0000
  O   O11       1.0  0.2306899999999998  0.9214600000000002  0.45376  1.0000
  O   O12       1.0  0.10592999999999984  0.5792900000000002  0.04888  1.0000
  O   O13       1.0  0.06747000000000002  0.53243  0.84022  1.0000
  O   O14       1.0  0.2306899999999999  0.45376  0.92147  1.0000
  O   O15       1.0  0.93254  0.15978000000000006  0.46756  1.0000
  O   O16       1.0  0.057430000000000016  0.032320000000000015  0.3422299999999999  1.0000
