data_image0
_chemical_formula_structural       Gd2Mn3H4C28N8O24
_chemical_formula_sum              "Gd2 Mn3 H4 C28 N8 O24"
_cell_length_a       8.41802
_cell_length_b       9.8082
_cell_length_c       11.55435
_cell_angle_alpha    83.96836999999998
_cell_angle_beta     102.28798000000002
_cell_angle_gamma    106.84101

_space_group_name_H-M_alt    "P 1"
_space_group_IT_number       1

loop_
  _space_group_symop_operation_xyz
  'x, y, z'

loop_
  _atom_site_type_symbol
  _atom_site_label
  _atom_site_symmetry_multiplicity
  _atom_site_fract_x
  _atom_site_fract_y
  _atom_site_fract_z
  _atom_site_occupancy
  Gd  Gd1       1.0  0.8552799999999999  0.22141  0.24866  1.0000
  Gd  Gd2       1.0  0.1562499999999999  0.78164  0.75735  1.0000
  Mn  Mn1       1.0  0.7418599999999997  0.5518100000000001  0.12398999999999999  1.0000
  Mn  Mn2       1.0  0.24092000000000005  0.43744999999999995  0.89287  1.0000
  Mn  Mn3       1.0  0.53502  0.012540000000000003  0.44317  1.0000
  H   H1        1.0  0.83399  0.027370000000000002  0.80997  1.0000
  H   H2        1.0  0.6198799999999998  0.72289  0.38043  1.0000
  H   H3        1.0  0.12951  0.95583  0.19613  1.0000
  H   H4        1.0  0.41637  0.2812  0.60385  1.0000
  C   C1        1.0  0.47751  0.69435  0.00447  1.0000
  C   C2        1.0  0.59644  0.8400699999999999  0.99431  1.0000
  C   C3        1.0  0.78188  0.99797  0.8907300000000001  1.0000
  C   C4        1.0  0.6969799999999999  0.2877  0.48885  1.0000
  C   C5        1.0  0.7484299999999999  0.44655  0.50186  1.0000
  C   C6        1.0  0.8381600000000001  0.08697999999999999  0.9874200000000001  1.0000
  C   C7        1.0  0.9766600000000001  0.22404  0.99607  1.0000
  C   C8        1.0  0.64225  0.9329499999999998  0.08751  1.0000
  C   C9        1.0  0.5512099999999999  0.9114  0.19012  1.0000
  C   C10       1.0  0.69114  0.66211  0.44394  1.0000
  C   C11       1.0  0.80731  0.72571  0.54301  1.0000
  C   C12       1.0  0.8461699999999998  0.87799  0.57993  1.0000
  C   C13       1.0  0.87754  0.51223  0.59358  1.0000
  C   C14       1.0  0.0015299999999999737  0.43995  0.66775  1.0000
  C   C15       1.0  0.5059  0.29512  0.01954  1.0000
  C   C16       1.0  0.38356000000000007  0.15  0.02488  1.0000
  C   C17       1.0  0.18805000000000005  0.98778  0.11823  1.0000
  C   C18       1.0  0.31819999999999987  0.71435  0.51681  1.0000
  C   C19       1.0  0.27378999999999987  0.55649  0.49698  1.0000
  C   C20       1.0  0.13985000000000003  0.9024200000000001  0.01964  1.0000
  C   C21       1.0  0.002519999999999963  0.76453  0.0030900000000000003  1.0000
  C   C22       1.0  0.34293  0.062039999999999984  0.92884  1.0000
  C   C23       1.0  0.43824999999999986  0.08689000000000001  0.8276  1.0000
  C   C24       1.0  0.34104  0.34294  0.54452  1.0000
  C   C25       1.0  0.22268000000000002  0.28198  0.44528  1.0000
  C   C26       1.0  0.19352  0.13697000000000004  0.39659999999999995  1.0000
  C   C27       1.0  0.14205  0.49207  0.40592000000000006  1.0000
  C   C28       1.0  0.017240000000000002  0.56397  0.33249  1.0000
  N   N1        1.0  0.6629300000000001  0.87317  0.8954900000000001  1.0000
  N   N2        1.0  0.76543  0.05403000000000001  0.08278  1.0000
  N   N3        1.0  0.6606299999999998  0.52345  0.42440000000000005  1.0000
  N   N4        1.0  0.9016899999999999  0.64947  0.61332  1.0000
  N   N5        1.0  0.30885999999999986  0.11283  0.11996  1.0000
  N   N6        1.0  0.2202199999999999  0.94023  0.92817  1.0000
  N   N7        1.0  0.36624  0.47928000000000004  0.56966  1.0000
  N   N8        1.0  0.11909999999999998  0.35597000000000006  0.3828  1.0000
  O   O1        1.0  0.5226799999999998  0.60775  0.08538  1.0000
  O   O2        1.0  0.34134000000000003  0.6597  0.92588  1.0000
  O   O3        1.0  0.06354  0.25342  0.91456  1.0000
  O   O4        1.0  2.000000000000138e-05  0.29929  0.0844  1.0000
  O   O5        1.0  0.61932  0.007760000000000001  0.26998  1.0000
  O   O6        1.0  0.4205  0.81298  0.18872  1.0000
  O   O7        1.0  0.71243  0.24042  0.39267  1.0000
  O   O8        1.0  0.6279499999999998  0.20637  0.56521  1.0000
  O   O9        1.0  0.76202  0.95973  0.52474  1.0000
  O   O10       1.0  0.9685200000000002  0.9131100000000001  0.66851  1.0000
  O   O11       1.0  0.10393  0.52019  0.75406  1.0000
  O   O12       1.0  0.007949999999999981  0.3221  0.64568  1.0000
  O   O13       1.0  0.4618  0.38669999999999993  0.94331  1.0000
  O   O14       1.0  0.6436799999999998  0.32700999999999997  0.0972  1.0000
  O   O15       1.0  0.9062999999999998  0.73204  0.07932  1.0000
  O   O16       1.0  0.99066  0.6937799999999998  0.9146700000000001  1.0000
  O   O17       1.0  0.37548000000000004  0.99285  0.74818  1.0000
  O   O18       1.0  0.56899  0.18795000000000006  0.83415  1.0000
  O   O19       1.0  0.26298  0.75312  0.59763  1.0000
  O   O20       1.0  0.41387999999999997  0.7939  0.45185  1.0000
  O   O21       1.0  0.30624  0.07257000000000001  0.42289999999999994  1.0000
  O   O22       1.0  0.05046000000000002  0.09266000000000002  0.32591  1.0000
  O   O23       1.0  0.9052199999999998  0.47888  0.25242  1.0000
  O   O24       1.0  0.017590000000000026  0.68588  0.34832  1.0000
