data_image0
_chemical_formula_structural       SmH3C3O6
_chemical_formula_sum              "Sm1 H3 C3 O6"
_cell_length_a       6.78342
_cell_length_b       6.55116
_cell_length_c       6.68289
_cell_angle_alpha    63.445
_cell_angle_beta     69.60898999999999
_cell_angle_gamma    68.96857

_space_group_name_H-M_alt    "P 1"
_space_group_IT_number       1

loop_
  _space_group_symop_operation_xyz
  'x, y, z'

loop_
  _atom_site_type_symbol
  _atom_site_label
  _atom_site_symmetry_multiplicity
  _atom_site_fract_x
  _atom_site_fract_y
  _atom_site_fract_z
  _atom_site_occupancy
  Sm  Sm1       1.0  0.9884599999999999  0.3650600000000001  0.66029  1.0000
  H   H1        1.0  0.06293999999999998  0.30156  0.13194  1.0000
  H   H2        1.0  0.9234799999999997  0.8631099999999999  0.71049  1.0000
  H   H3        1.0  0.48297000000000007  0.4535899999999999  0.54763  1.0000
  C   C1        1.0  0.9274699999999999  0.46184000000000003  0.12338  1.0000
  C   C2        1.0  0.05333000000000002  0.8847099999999999  0.54856  1.0000
  C   C3        1.0  0.47424999999999995  0.29066999999999993  0.70635  1.0000
  O   O1        1.0  0.63648  0.19539000000000004  0.8006199999999999  1.0000
  O   O2        1.0  0.8447400000000005  0.53498  0.94519  1.0000
  O   O3        1.0  0.87482  0.53009  0.28963  1.0000
  O   O4        1.0  0.29751  0.22463000000000002  0.7710699999999999  1.0000
  O   O5        1.0  0.12067000000000001  0.07569999999999998  0.46824  1.0000
  O   O6        1.0  0.11698000000000001  0.7086099999999999  0.48356  1.0000
