data_image0
_chemical_formula_structural       Zn3H12C32N4O18
_chemical_formula_sum              "Zn3 H12 C32 N4 O18"
_cell_length_a       9.48604
_cell_length_b       10.26266
_cell_length_c       11.43872
_cell_angle_alpha    111.61611
_cell_angle_beta     90.69998
_cell_angle_gamma    105.12168

_space_group_name_H-M_alt    "P 1"
_space_group_IT_number       1

loop_
  _space_group_symop_operation_xyz
  'x, y, z'

loop_
  _atom_site_type_symbol
  _atom_site_label
  _atom_site_symmetry_multiplicity
  _atom_site_fract_x
  _atom_site_fract_y
  _atom_site_fract_z
  _atom_site_occupancy
  Zn  Zn1       1.0  0.03849999999999999  0.31868  0.74962  1.0000
  Zn  Zn2       1.0  0.96148  0.68128  0.25034  1.0000
  Zn  Zn3       1.0  0.99999  0.0  0.49998  1.0000
  H   H1        1.0  0.56105  0.28344  0.70861  1.0000
  H   H2        1.0  0.24432  0.16053  0.3843  1.0000
  H   H3        1.0  0.65465  0.052160000000000005  0.33231  1.0000
  H   H4        1.0  0.23101000000000002  0.77055  0.04118  1.0000
  H   H5        1.0  0.0044399999999999535  0.7705199999999999  0.71301  1.0000
  H   H6        1.0  0.2116  0.18029  0.0208  1.0000
  H   H7        1.0  0.43898  0.71657  0.29142  1.0000
  H   H8        1.0  0.7557  0.8394700000000002  0.6157  1.0000
  H   H9        1.0  0.34535  0.94781  0.66769  1.0000
  H   H10       1.0  0.76899  0.22952000000000014  0.9587900000000001  1.0000
  H   H11       1.0  0.9955699999999998  0.22947  0.28698  1.0000
  H   H12       1.0  0.78841  0.8196900000000001  0.9791800000000002  1.0000
  C   C1        1.0  0.7717  0.16843  0.57534  1.0000
  C   C2        1.0  0.62545  0.17096  0.52587  1.0000
  C   C3        1.0  0.52987  0.23341000000000003  0.60648  1.0000
  C   C4        1.0  0.39134  0.22768  0.55544  1.0000
  C   C5        1.0  0.3515  0.16726  0.42455  1.0000
  C   C6        1.0  0.44821999999999995  0.10552  0.34676  1.0000
  C   C7        1.0  0.58319  0.10404  0.39521  1.0000
  C   C8        1.0  0.2852  0.28462  0.64149  1.0000
  C   C9        1.0  0.23595  0.98609  0.04414  1.0000
  C   C10       1.0  0.19855999999999996  0.83109  0.99045  1.0000
  C   C11       1.0  0.11430999999999998  0.75543  0.8729200000000001  1.0000
  C   C12       1.0  0.06759000000000004  0.83099  0.8063200000000001  1.0000
  C   C13       1.0  0.10169999999999998  0.9843200000000001  0.86031  1.0000
  C   C14       1.0  0.18427999999999997  0.061539999999999984  0.9788  1.0000
  C   C15       1.0  0.07998  0.59322  0.81337  1.0000
  C   C16       1.0  0.048249999999999994  0.06333999999999998  0.78977  1.0000
  C   C17       1.0  0.22833  0.83156  0.42467  1.0000
  C   C18       1.0  0.37457999999999997  0.82902  0.47414  1.0000
  C   C19       1.0  0.47015  0.7665800000000002  0.39353  1.0000
  C   C20       1.0  0.6086699999999999  0.7723099999999999  0.44456  1.0000
  C   C21       1.0  0.64852  0.8327300000000001  0.57545  1.0000
  C   C22       1.0  0.55181  0.8945  0.65325  1.0000
  C   C23       1.0  0.41682  0.8959400000000001  0.60479  1.0000
  C   C24       1.0  0.7148100000000001  0.71537  0.35851  1.0000
  C   C25       1.0  0.76399  0.013859999999999954  0.9558499999999999  1.0000
  C   C26       1.0  0.80143  0.16891  0.00952  1.0000
  C   C27       1.0  0.8856999999999999  0.24456000000000003  0.12708  1.0000
  C   C28       1.0  0.93241  0.169  0.19369  1.0000
  C   C29       1.0  0.8983199999999999  0.015680000000000003  0.1397  1.0000
  C   C30       1.0  0.81573  0.9384400000000002  0.02121  1.0000
  C   C31       1.0  0.92006  0.40679000000000004  0.18662  1.0000
  C   C32       1.0  0.95175  0.9366500000000001  0.21022  1.0000
  N   N1        1.0  0.403  0.027659999999999994  0.21194  1.0000
  N   N2        1.0  0.30729  0.0728  0.16459  1.0000
  N   N3        1.0  0.5969500000000001  0.9723300000000001  0.78809  1.0000
  N   N4        1.0  0.69267  0.92716  0.83539  1.0000
  O   O1        1.0  0.83359  0.08551999999999996  0.49452  1.0000
  O   O2        1.0  0.82076  0.24756000000000003  0.69117  1.0000
  O   O3        1.0  0.14386000000000002  0.22629000000000002  0.59997  1.0000
  O   O4        1.0  0.32922  0.3835500000000001  0.74787  1.0000
  O   O5        1.0  0.07791  0.52113  0.8849  1.0000
  O   O6        1.0  0.05676  0.52899  0.69419  1.0000
  O   O7        1.0  0.9766  0.98702  0.68077  1.0000
  O   O8        1.0  0.07851000000000001  0.20187000000000002  0.8465500000000001  1.0000
  O   O9        1.0  0.45845  0.92704  0.15252  1.0000
  O   O10       1.0  0.16647  0.91453  0.50548  1.0000
  O   O11       1.0  0.17924000000000004  0.75241  0.30887  1.0000
  O   O12       1.0  0.8561500000000001  0.77368  0.40002999999999994  1.0000
  O   O13       1.0  0.67081  0.61649  0.25215  1.0000
  O   O14       1.0  0.92212  0.47886  0.11505  1.0000
  O   O15       1.0  0.9432  0.4709  0.30579  1.0000
  O   O16       1.0  0.023380000000000005  0.01300000000000001  0.31923  1.0000
  O   O17       1.0  0.9214900000000001  0.79812  0.15343  1.0000
  O   O18       1.0  0.54157  0.07302999999999998  0.8475  1.0000
