data_image0
_chemical_formula_structural       Dy2CuH12C32N4O24
_chemical_formula_sum              "Dy2 Cu1 H12 C32 N4 O24"
_cell_length_a       10.27622
_cell_length_b       10.51123
_cell_length_c       11.479939999999997
_cell_angle_alpha    82.86838
_cell_angle_beta     74.2501
_cell_angle_gamma    70.43229000000001

_symmetry_space_group_name_H-M    'P 1'
_symmetry_Int_Tables_number       1

loop_
  _symmetry_equiv_pos_as_xyz
  'x,y,z'

loop_
  _atom_site_type_symbol
  _atom_site_label
  _atom_site_symmetry_multiplicity
  _atom_site_fract_x
  _atom_site_fract_y
  _atom_site_fract_z
  _atom_site_occupancy
  Dy  Dy1       1.0  0.5858  0.59285  0.63674  1.0000
  Dy  Dy2       1.0  0.41858000000000006  0.40631999999999996  0.36124  1.0000
  Cu  Cu1       1.0  3.9999999999998065e-05  0.49958  0.49975  1.0000
  H   H1        1.0  0.37427999999999995  0.98067  0.46863  1.0000
  H   H2        1.0  0.9882199999999999  0.17756  0.35183  1.0000
  H   H3        1.0  0.17426  0.74358  0.3389  1.0000
  H   H4        1.0  0.6638800000000001  0.4879299999999999  0.94777  1.0000
  H   H5        1.0  0.91328  0.32601  0.21095  1.0000
  H   H6        1.0  0.12317000000000007  0.33626  0.82938  1.0000
  H   H7        1.0  0.62578  0.01812  0.53124  1.0000
  H   H8        1.0  0.01173999999999994  0.82266  0.64814  1.0000
  H   H9        1.0  0.8251199999999999  0.25639  0.66087  1.0000
  H   H10       1.0  0.33622  0.51229  0.05172999999999999  1.0000
  H   H11       1.0  0.08706999999999995  0.67349  0.78856  1.0000
  H   H12       1.0  0.8773000000000002  0.66381  0.17005  1.0000
  C   C1        1.0  0.28393  0.84831  0.40871  1.0000
  C   C2        1.0  0.2903199999999999  0.97456  0.43077  1.0000
  C   C3        1.0  0.18441999999999995  0.09233  0.4085  1.0000
  C   C4        1.0  0.07327000000000003  0.08586  0.36345  1.0000
  C   C5        1.0  0.07369000000000002  0.96087  0.33585  1.0000
  C   C6        1.0  0.17696999999999996  0.84121  0.35797  1.0000
  C   C7        1.0  0.3877999999999999  0.71985  0.44279999999999997  1.0000
  C   C8        1.0  0.18045000000000005  0.22992  0.43342  1.0000
  C   C9        1.0  0.8942800000000001  0.4197699999999999  0.87574  1.0000
  C   C10       1.0  0.7681999999999999  0.44297  0.96807  1.0000
  C   C11       1.0  0.7778  0.4061699999999999  0.08802  1.0000
  C   C12       1.0  0.90968  0.35032  0.11691  1.0000
  C   C13       1.0  0.032369999999999996  0.32513  0.022909999999999996  1.0000
  C   C14       1.0  0.027040000000000054  0.35779  0.9026399999999999  1.0000
  C   C15       1.0  0.89162  0.45689  0.7462799999999999  1.0000
  C   C16       1.0  0.64904  0.41341  0.18731  1.0000
  C   C17       1.0  0.71576  0.15157  0.59066  1.0000
  C   C18       1.0  0.70961  0.025099999999999997  0.56877  1.0000
  C   C19       1.0  0.8153900000000001  0.90743  0.5915  1.0000
  C   C20       1.0  0.9265099999999998  0.91418  0.63646  1.0000
  C   C21       1.0  0.9259099999999999  0.03925  0.6639  1.0000
  C   C22       1.0  0.82258  0.15881  0.64143  1.0000
  C   C23       1.0  0.6109500000000001  0.27948  0.55703  1.0000
  C   C24       1.0  0.81953  0.76968  0.56687  1.0000
  C   C25       1.0  0.10589999999999997  0.57991  0.12394  1.0000
  C   C26       1.0  0.23186  0.55721  0.03171  1.0000
  C   C27       1.0  0.22201999999999997  0.59379  0.91195  1.0000
  C   C28       1.0  0.09048000000000003  0.64962  0.88272  1.0000
  C   C29       1.0  0.9679199999999999  0.675  0.97673  1.0000
  C   C30       1.0  0.9733300000000001  0.64214  0.09689  1.0000
  C   C31       1.0  0.10832  0.5417  0.25338  1.0000
  C   C32       1.0  0.3511400000000001  0.58579  0.8128999999999998  1.0000
  N   N1        1.0  0.95683  0.95626  0.28659  1.0000
  N   N2        1.0  0.17234  0.26352  0.05094  1.0000
  N   N3        1.0  0.04276999999999999  0.04377000000000001  0.71326  1.0000
  N   N4        1.0  0.82801  0.73655  0.94896  1.0000
  O   O1        1.0  0.37304999999999977  0.60774  0.42497  1.0000
  O   O2        1.0  0.4839499999999999  0.726  0.48915999999999993  1.0000
  O   O3        1.0  0.29545  0.25448999999999994  0.42565  1.0000
  O   O4        1.0  0.05479  0.31371  0.45932999999999996  1.0000
  O   O5        1.0  0.8707299999999999  0.06519  0.26294  1.0000
  O   O6        1.0  0.9506199999999999  0.84314  0.27329  1.0000
  O   O7        1.0  0.010079999999999987  0.44637  0.66962  1.0000
  O   O8        1.0  0.7717000000000003  0.49444999999999995  0.71858  1.0000
  O   O9        1.0  0.52641  0.44746  0.16306  1.0000
  O   O10       1.0  0.66061  0.37898999999999994  0.296  1.0000
  O   O11       1.0  0.17608  0.25065  0.15929  1.0000
  O   O12       1.0  0.27843  0.22964  0.96472  1.0000
  O   O13       1.0  0.62473  0.39184  0.57575  1.0000
  O   O14       1.0  0.51638  0.27092  0.51019  1.0000
  O   O15       1.0  0.7045999999999999  0.74477  0.57431  1.0000
  O   O16       1.0  0.94479  0.68571  0.54094  1.0000
  O   O17       1.0  0.12888000000000002  0.93491  0.73685  1.0000
  O   O18       1.0  0.04893000000000006  0.15691  0.7266599999999999  1.0000
  O   O19       1.0  0.98944  0.55358  0.33004  1.0000
  O   O20       1.0  0.22796  0.50174  0.28134  1.0000
  O   O21       1.0  0.47225  0.55777  0.8382299999999999  1.0000
  O   O22       1.0  0.33983  0.61438  0.70361  1.0000
  O   O23       1.0  0.82412  0.74943  0.84041  1.0000
  O   O24       1.0  0.72202  0.77042  0.03494  1.0000
