data_image0
_chemical_formula_structural       La4H36C30O24
_chemical_formula_sum              "La4 H36 C30 O24"
_cell_length_a       9.17804
_cell_length_b       10.180419999999998
_cell_length_c       16.31758
_cell_angle_alpha    102.82401999999999
_cell_angle_beta     108.52533
_cell_angle_gamma    99.14909

_space_group_name_H-M_alt    "P 1"
_space_group_IT_number       1

loop_
  _space_group_symop_operation_xyz
  'x, y, z'

loop_
  _atom_site_type_symbol
  _atom_site_label
  _atom_site_symmetry_multiplicity
  _atom_site_fract_x
  _atom_site_fract_y
  _atom_site_fract_z
  _atom_site_occupancy
  La  La1       1.0  0.64561  0.46780999999999995  0.62136  1.0000
  La  La2       1.0  0.8127399999999999  0.39706  0.87417  1.0000
  La  La3       1.0  0.35438  0.5322  0.37864  1.0000
  La  La4       1.0  0.18725  0.60295  0.12583  1.0000
  H   H1        1.0  0.33773  0.004309999999999987  0.57407  1.0000
  H   H2        1.0  0.33833999999999986  0.0370799999999999  0.6854199999999999  1.0000
  H   H3        1.0  0.55518  0.91946  0.7306  1.0000
  H   H4        1.0  0.39517  0.80671  0.63447  1.0000
  H   H5        1.0  0.54903  0.8899799999999999  0.53766  1.0000
  H   H6        1.0  0.7137599999999998  0.97038  0.64257  1.0000
  H   H7        1.0  0.4991  0.11278  0.99404  1.0000
  H   H8        1.0  0.4776  0.04224999999999997  0.88152  1.0000
  H   H9        1.0  0.27447  0.1798  0.83118  1.0000
  H   H10       1.0  0.21160000000000007  0.05293999999999997  0.87897  1.0000
  H   H11       1.0  0.27849999999999997  0.23492999999999997  0.02528  1.0000
  H   H12       1.0  0.36363  0.3616699999999999  0.9855  1.0000
  H   H13       1.0  0.48963  0.70321  0.86416  1.0000
  H   H14       1.0  0.44412  0.53067  0.86827  1.0000
  H   H15       1.0  0.22788  0.6526  0.73345  1.0000
  H   H16       1.0  0.20614  0.63677  0.83508  1.0000
  H   H17       1.0  0.18151999999999996  0.39439  0.6757  1.0000
  H   H18       1.0  0.16418999999999986  0.37689999999999996  0.77912  1.0000
  H   H19       1.0  0.66227  0.99569  0.42593  1.0000
  H   H20       1.0  0.66165  0.9629199999999999  0.31458  1.0000
  H   H21       1.0  0.44482  0.08054999999999997  0.2694  1.0000
  H   H22       1.0  0.6048199999999998  0.19328999999999996  0.36552999999999997  1.0000
  H   H23       1.0  0.45095999999999997  0.11002000000000005  0.46234000000000003  1.0000
  H   H24       1.0  0.28623  0.02963000000000001  0.35743  1.0000
  H   H25       1.0  0.50089  0.88723  0.00596  1.0000
  H   H26       1.0  0.5224  0.9577599999999998  0.11848  1.0000
  H   H27       1.0  0.7255299999999999  0.8202099999999999  0.16881999999999997  1.0000
  H   H28       1.0  0.7883999999999999  0.9470599999999999  0.12102999999999998  1.0000
  H   H29       1.0  0.72149  0.76508  0.97472  1.0000
  H   H30       1.0  0.6363600000000001  0.63834  0.0145  1.0000
  H   H31       1.0  0.51037  0.29679999999999995  0.13584  1.0000
  H   H32       1.0  0.55587  0.46933  0.13173  1.0000
  H   H33       1.0  0.77211  0.34741  0.26655  1.0000
  H   H34       1.0  0.79385  0.36324  0.16491  1.0000
  H   H35       1.0  0.81847  0.60562  0.3243  1.0000
  H   H36       1.0  0.8358099999999999  0.62311  0.22087  1.0000
  C   C1        1.0  0.53568  0.16228  0.67485  1.0000
  C   C2        1.0  0.41393  0.024340000000000014  0.64491  1.0000
  C   C3        1.0  0.48949999999999994  0.9029899999999998  0.65849  1.0000
  C   C4        1.0  0.60471  0.8866299999999999  0.60725  1.0000
  C   C5        1.0  0.64496  0.74883  0.60374  1.0000
  C   C6        1.0  0.59459  0.25385000000000013  0.93398  1.0000
  C   C7        1.0  0.46647999999999995  0.1335099999999999  0.92804  1.0000
  C   C8        1.0  0.29725000000000007  0.15194000000000013  0.8945400000000001  1.0000
  C   C9        1.0  0.2707000000000001  0.26477000000000006  0.96344  1.0000
  C   C10       1.0  0.1156  0.30424999999999996  0.93205  1.0000
  C   C11       1.0  0.49951  0.55483  0.75516  1.0000
  C   C12       1.0  0.4226699999999999  0.5964  0.8227899999999999  1.0000
  C   C13       1.0  0.24659000000000003  0.59067  0.78132  1.0000
  C   C14       1.0  0.14647000000000004  0.43984999999999996  0.73174  1.0000
  C   C15       1.0  0.97349  0.43749  0.6955  1.0000
  C   C16       1.0  0.46432  0.83773  0.32515  1.0000
  C   C17       1.0  0.58607  0.97567  0.35508  1.0000
  C   C18       1.0  0.51049  0.09702000000000001  0.34151  1.0000
  C   C19       1.0  0.39529  0.11337999999999998  0.39275  1.0000
  C   C20       1.0  0.35504  0.25117999999999996  0.39625999999999995  1.0000
  C   C21       1.0  0.4054  0.74615  0.06602  1.0000
  C   C22       1.0  0.53351  0.8664999999999999  0.07196  1.0000
  C   C23       1.0  0.70275  0.84806  0.10546  1.0000
  C   C24       1.0  0.7292999999999998  0.73524  0.03656  1.0000
  C   C25       1.0  0.88439  0.69576  0.06794  1.0000
  C   C26       1.0  0.50049  0.44518  0.24484  1.0000
  C   C27       1.0  0.57732  0.40360999999999997  0.17721  1.0000
  C   C28       1.0  0.75341  0.40932999999999997  0.21868  1.0000
  C   C29       1.0  0.85352  0.56016  0.26826  1.0000
  C   C30       1.0  0.02649999999999998  0.56252  0.3045  1.0000
  O   O1        1.0  0.6497699999999998  0.19292  0.75013  1.0000
  O   O2        1.0  0.51774  0.24033  0.62277  1.0000
  O   O3        1.0  0.7556699999999998  0.73234  0.66729  1.0000
  O   O4        1.0  0.55431  0.64077  0.53559  1.0000
  O   O5        1.0  0.74052  0.2524299999999999  0.96838  1.0000
  O   O6        1.0  0.55533  0.35025  0.89909  1.0000
  O   O7        1.0  0.09440999999999997  0.4065099999999999  0.98813  1.0000
  O   O8        1.0  0.00948999999999996  0.24552  0.85525  1.0000
  O   O9        1.0  0.63562  0.52331  0.78209  1.0000
  O   O10       1.0  0.43575999999999987  0.55304  0.67376  1.0000
  O   O11       1.0  0.9023  0.46555  0.75228  1.0000
  O   O12       1.0  0.89799  0.41512  0.61145  1.0000
  O   O13       1.0  0.35022  0.80708  0.24987  1.0000
  O   O14       1.0  0.48226  0.7596700000000001  0.37723  1.0000
  O   O15       1.0  0.24432000000000004  0.26767  0.33271000000000006  1.0000
  O   O16       1.0  0.44569  0.35924  0.46441  1.0000
  O   O17       1.0  0.25948  0.74758  0.03162  1.0000
  O   O18       1.0  0.44466000000000006  0.64976  0.10091  1.0000
  O   O19       1.0  0.9055800000000002  0.59349  0.01187  1.0000
  O   O20       1.0  0.9904999999999999  0.75449  0.14475  1.0000
  O   O21       1.0  0.36438  0.4767  0.21791  1.0000
  O   O22       1.0  0.56423  0.44697  0.32623  1.0000
  O   O23       1.0  0.09768999999999997  0.5344599999999999  0.24772  1.0000
  O   O24       1.0  0.102  0.5848900000000001  0.38855  1.0000
