data_image0
_chemical_formula_structural       Zn4H12C32N6O22
_chemical_formula_sum              "Zn4 H12 C32 N6 O22"
_cell_length_a       7.03996
_cell_length_b       14.60129
_cell_length_c       18.45683
_cell_angle_alpha    105.65586999999998
_cell_angle_beta     90.01491
_cell_angle_gamma    104.22303

_space_group_name_H-M_alt    "P 1"
_space_group_IT_number       1

loop_
  _space_group_symop_operation_xyz
  'x, y, z'

loop_
  _atom_site_type_symbol
  _atom_site_label
  _atom_site_symmetry_multiplicity
  _atom_site_fract_x
  _atom_site_fract_y
  _atom_site_fract_z
  _atom_site_occupancy
  Zn  Zn1       1.0  0.8000199999999997  0.9215799999999998  0.80122  1.0000
  Zn  Zn2       1.0  0.87556  0.07581000000000003  0.69829  1.0000
  Zn  Zn3       1.0  0.19996999999999998  0.07841  0.19877  1.0000
  Zn  Zn4       1.0  0.12441000000000003  0.92418  0.30171  1.0000
  H   H1        1.0  0.88375  0.89342  0.01825  1.0000
  H   H2        1.0  0.7571599999999999  0.67177  0.1377  1.0000
  H   H3        1.0  0.53274  0.60269  0.90519  1.0000
  H   H4        1.0  0.98847  0.10732999999999998  0.48274  1.0000
  H   H5        1.0  0.08930999999999996  0.32912  0.36337  1.0000
  H   H6        1.0  0.9252499999999999  0.39677  0.59464  1.0000
  H   H7        1.0  0.11622999999999997  0.10657000000000003  0.9817499999999999  1.0000
  H   H8        1.0  0.24283000000000002  0.32822  0.8623  1.0000
  H   H9        1.0  0.4672499999999999  0.3973  0.09481  1.0000
  H   H10       1.0  0.011510000000000006  0.89267  0.51726  1.0000
  H   H11       1.0  0.91067  0.67087  0.63662  1.0000
  H   H12       1.0  0.07473000000000006  0.60323  0.40536  1.0000
  C   C1        1.0  0.8134599999999997  0.81872  0.01931  1.0000
  C   C2        1.0  0.9517300000000001  0.8643600000000001  0.15248999999999996  1.0000
  C   C3        1.0  0.8326299999999998  0.79056  0.08514  1.0000
  C   C4        1.0  0.74321  0.69445  0.08683  1.0000
  C   C5        1.0  0.7054999999999998  0.7513299999999999  0.9545699999999999  1.0000
  C   C6        1.0  0.6351  0.6274900000000001  0.02183  1.0000
  C   C7        1.0  0.6157699999999997  0.6554599999999999  0.9553099999999999  1.0000
  C   C8        1.0  0.69057  0.78368  0.88409  1.0000
  C   C9        1.0  0.99358  0.1819  0.48146999999999995  1.0000
  C   C10       1.0  0.09081  0.13765  0.34873  1.0000
  C   C11       1.0  0.043340000000000004  0.21047000000000002  0.41591  1.0000
  C   C12       1.0  0.05037000000000001  0.30636  0.41408  1.0000
  C   C13       1.0  0.9505899999999998  0.24867  0.54571  1.0000
  C   C14       1.0  0.007109999999999945  0.3727899999999999  0.4786099999999999  1.0000
  C   C15       1.0  0.95715  0.34442  0.54483  1.0000
  C   C16       1.0  0.9024699999999998  0.21656  0.6163  1.0000
  C   C17       1.0  0.18652  0.18127  0.98068  1.0000
  C   C18       1.0  0.04826  0.13563  0.8475  1.0000
  C   C19       1.0  0.16735000000000003  0.20943000000000006  0.91486  1.0000
  C   C20       1.0  0.25678  0.30554  0.91316  1.0000
  C   C21       1.0  0.29448  0.24866  0.04543  1.0000
  C   C22       1.0  0.36488  0.3725  0.97816  1.0000
  C   C23       1.0  0.3842199999999999  0.34453  0.04469  1.0000
  C   C24       1.0  0.30943  0.21631  0.11589999999999999  1.0000
  C   C25       1.0  0.0063999999999999856  0.8181  0.51853  1.0000
  C   C26       1.0  0.9091799999999998  0.8623399999999999  0.6512699999999998  1.0000
  C   C27       1.0  0.95664  0.78952  0.58408  1.0000
  C   C28       1.0  0.9496199999999999  0.69363  0.58592  1.0000
  C   C29       1.0  0.04939000000000003  0.75133  0.45429  1.0000
  C   C30       1.0  0.99287  0.6272  0.52139  1.0000
  C   C31       1.0  0.04283000000000006  0.6555700000000001  0.45516  1.0000
  C   C32       1.0  0.09751000000000004  0.78344  0.3837  1.0000
  N   N1        1.0  0.5498  0.53219  0.02729  1.0000
  N   N2        1.0  0.018269999999999988  0.46791  0.47291999999999995  1.0000
  N   N3        1.0  0.4501800000000001  0.46780000000000005  0.97271  1.0000
  N   N4        1.0  0.98171  0.5320900000000002  0.52707  1.0000
  N   N5        1.0  0.46993  0.9996200000000001  0.74939  1.0000
  N   N6        1.0  0.53006  0.0003699999999999912  0.2506  1.0000
  O   O1        1.0  0.029550000000000017  0.94897  0.14471  1.0000
  O   O2        1.0  0.96586  0.83629  0.21153  1.0000
  O   O3        1.0  0.7892499999999999  0.87352  0.89002  1.0000
  O   O4        1.0  0.53009  0.93957  0.77819  1.0000
  O   O5        1.0  0.59091  0.72664  0.82646  1.0000
  O   O6        1.0  0.08652999999999998  0.05347999999999998  0.35667999999999994  1.0000
  O   O7        1.0  0.13299  0.16626  0.28985  1.0000
  O   O8        1.0  0.90527  0.12627  0.61061  1.0000
  O   O9        1.0  0.5895  0.05995  0.72029  1.0000
  O   O10       1.0  0.86591  0.27516  0.67399  1.0000
  O   O11       1.0  0.97043  0.05102000000000005  0.85529  1.0000
  O   O12       1.0  0.03412000000000001  0.1637  0.78847  1.0000
  O   O13       1.0  0.21072999999999997  0.12647  0.10998  1.0000
  O   O14       1.0  0.46991  0.060430000000000005  0.2218  1.0000
  O   O15       1.0  0.40908  0.27335  0.17354  1.0000
  O   O16       1.0  0.91346  0.94651  0.64332  1.0000
  O   O17       1.0  0.867  0.83373  0.71014  1.0000
  O   O18       1.0  0.09471999999999997  0.87373  0.38937999999999995  1.0000
  O   O19       1.0  0.41047999999999984  0.94004  0.2797  1.0000
  O   O20       1.0  0.13407  0.72484  0.326  1.0000
  O   O21       1.0  0.29488000000000003  0.99958  0.74934  1.0000
  O   O22       1.0  0.7051199999999997  0.0004099999999999966  0.25066  1.0000
