data_image0
_chemical_formula_structural       Tb2H22C44O16
_chemical_formula_sum              "Tb2 H22 C44 O16"
_cell_length_a       10.2772
_cell_length_b       11.1052
_cell_length_c       11.352820000000001
_cell_angle_alpha    105.17222
_cell_angle_beta     104.72686
_cell_angle_gamma    97.67216

_symmetry_space_group_name_H-M    'P 1'
_symmetry_Int_Tables_number       1

loop_
  _symmetry_equiv_pos_as_xyz
  'x,y,z'

loop_
  _atom_site_type_symbol
  _atom_site_label
  _atom_site_symmetry_multiplicity
  _atom_site_fract_x
  _atom_site_fract_y
  _atom_site_fract_z
  _atom_site_occupancy
  Tb  Tb1       1.0  0.4010099999999999  0.44558000000000003  0.60531  1.0000
  Tb  Tb2       1.0  0.59738  0.54779  0.38892999999999994  1.0000
  H   H1        1.0  0.65797  0.8439300000000001  0.51196  1.0000
  H   H2        1.0  0.8483099999999999  0.28149  0.91545  1.0000
  H   H3        1.0  0.69147  0.36819  0.77287  1.0000
  H   H4        1.0  0.03018000000000001  0.51865  0.65667  1.0000
  H   H5        1.0  0.21973999999999996  0.23111  0.80077  1.0000
  H   H6        1.0  0.3486399999999999  0.09507999999999996  0.9055499999999999  1.0000
  H   H7        1.0  0.16128  0.18277  0.20766999999999997  1.0000
  H   H8        1.0  0.029909999999999992  0.31569  0.10120999999999998  1.0000
  H   H9        1.0  0.28704  0.88193  0.96854  1.0000
  H   H10       1.0  0.41613999999999995  0.75311  0.08476  1.0000
  H   H11       1.0  0.56437  0.08156999999999998  0.42415  1.0000
  H   H12       1.0  0.34423  0.15224  0.48103  1.0000
  H   H13       1.0  0.15133  0.71515  0.08024999999999999  1.0000
  H   H14       1.0  0.30944  0.62998  0.22309  1.0000
  H   H15       1.0  0.9709099999999999  0.47589999999999993  0.33777  1.0000
  H   H16       1.0  0.7793399999999999  0.7636100000000001  0.19263  1.0000
  H   H17       1.0  0.65035  0.8990099999999999  0.08684  1.0000
  H   H18       1.0  0.8373  0.80888  0.78461  1.0000
  H   H19       1.0  0.96951  0.6775700000000001  0.89264  1.0000
  H   H20       1.0  0.71188  0.11042  0.02341  1.0000
  H   H21       1.0  0.58435  0.23983999999999997  0.9065599999999999  1.0000
  H   H22       1.0  0.43584  0.9117600000000001  0.56713  1.0000
  C   C1        1.0  0.23471  0.4817199999999999  0.8363  1.0000
  C   C2        1.0  0.08246000000000002  0.4291  0.80431  1.0000
  C   C3        1.0  0.030129999999999987  0.35404  0.87249  1.0000
  C   C4        1.0  0.8892  0.33615999999999996  0.8613399999999999  1.0000
  C   C5        1.0  0.7997699999999996  0.38273  0.77889  1.0000
  C   C6        1.0  0.84931  0.44403999999999993  0.7007  1.0000
  C   C7        1.0  0.9912000000000002  0.46791000000000005  0.7149099999999999  1.0000
  C   C8        1.0  0.7545699999999999  0.48274  0.60316  1.0000
  C   C9        1.0  0.11571999999999995  0.28377  0.94351  1.0000
  C   C10       1.0  0.20707  0.22077  0.89014  1.0000
  C   C11       1.0  0.27857999999999994  0.14309000000000002  0.9481699999999998  1.0000
  C   C12       1.0  0.26472  0.1293  0.06406  1.0000
  C   C13       1.0  0.17442999999999997  0.19307  0.11844999999999999  1.0000
  C   C14       1.0  0.09971999999999999  0.26756  0.05814  1.0000
  C   C15       1.0  0.34735  0.05353000000000001  0.13013  1.0000
  C   C16       1.0  0.34823999999999994  0.9257799999999999  0.06845  1.0000
  C   C17       1.0  0.42074  0.8531  0.13367  1.0000
  C   C18       1.0  0.49829  0.9095799999999999  0.26338999999999996  1.0000
  C   C19       1.0  0.50245  0.03799  0.32475  1.0000
  C   C20       1.0  0.4268399999999999  0.10860999999999998  0.25993  1.0000
  C   C21       1.0  0.43785  0.24530999999999997  0.33228  1.0000
  C   C22       1.0  0.56567  0.83477  0.34039  1.0000
  C   C23       1.0  0.76652  0.51255  0.16045  1.0000
  C   C24       1.0  0.9181800000000002  0.56623  0.19091  1.0000
  C   C25       1.0  0.96987  0.64149  0.12266  1.0000
  C   C26       1.0  0.11104  0.66051  0.13464  1.0000
  C   C27       1.0  0.20114  0.61455  0.21729999999999997  1.0000
  C   C28       1.0  0.15175999999999998  0.5520699999999998  0.29491999999999996  1.0000
  C   C29       1.0  0.009799999999999984  0.52755  0.28016  1.0000
  C   C30       1.0  0.24534999999999998  0.51141  0.39164  1.0000
  C   C31       1.0  0.88363  0.71051  0.05039  1.0000
  C   C32       1.0  0.79194  0.77355  0.10312  1.0000
  C   C33       1.0  0.72018  0.85056  0.04427999999999999  1.0000
  C   C34       1.0  0.7338399999999999  0.8632299999999999  0.9279599999999999  1.0000
  C   C35       1.0  0.82431  0.7992799999999999  0.87411  1.0000
  C   C36       1.0  0.8995999999999998  0.7257799999999999  0.9354299999999999  1.0000
  C   C37       1.0  0.65172  0.9390499999999999  0.8615599999999999  1.0000
  C   C38       1.0  0.65117  0.06682000000000002  0.92335  1.0000
  C   C39       1.0  0.57963  0.13981000000000005  0.85793  1.0000
  C   C40       1.0  0.50247  0.08374000000000001  0.7281399999999999  1.0000
  C   C41       1.0  0.4975299999999999  0.95523  0.6666399999999999  1.0000
  C   C42       1.0  0.57249  0.88432  0.73169  1.0000
  C   C43       1.0  0.56158  0.74772  0.65928  1.0000
  C   C44       1.0  0.43589  0.15941  0.65191  1.0000
  O   O1        1.0  0.28493  0.45957  0.7392399999999999  1.0000
  O   O2        1.0  0.29981999999999986  0.5463499999999999  0.9473399999999997  1.0000
  O   O3        1.0  0.54334  0.7153  0.30238  1.0000
  O   O4        1.0  0.6484999999999999  0.9030999999999999  0.45691999999999994  1.0000
  O   O5        1.0  0.50544  0.33042  0.30316  1.0000
  O   O6        1.0  0.38165  0.26589  0.42323  1.0000
  O   O7        1.0  0.62318  0.46129000000000003  0.58831  1.0000
  O   O8        1.0  0.8002599999999999  0.5340699999999999  0.5292399999999999  1.0000
  O   O9        1.0  0.7199  0.53305  0.25984  1.0000
  O   O10       1.0  0.69913  0.44858  0.04971999999999999  1.0000
  O   O11       1.0  0.46071  0.27903  0.69074  1.0000
  O   O12       1.0  0.35158999999999996  0.09226  0.53582  1.0000
  O   O13       1.0  0.49283999999999994  0.66224  0.68707  1.0000
  O   O14       1.0  0.61886  0.72774  0.56918  1.0000
  O   O15       1.0  0.37724  0.5331  0.40832  1.0000
  O   O16       1.0  0.19879999999999998  0.45789  0.46382  1.0000
