data_image0
_chemical_formula_structural       Cd2H16C16O16
_chemical_formula_sum              "Cd2 H16 C16 O16"
_cell_length_a       7.21956
_cell_length_b       9.84814
_cell_length_c       12.71525
_cell_angle_alpha    83.84600000000002
_cell_angle_beta     73.27585
_cell_angle_gamma    68.09955

_symmetry_space_group_name_H-M    'P 1'
_symmetry_Int_Tables_number       1

loop_
  _symmetry_equiv_pos_as_xyz
  'x,y,z'

loop_
  _atom_site_type_symbol
  _atom_site_label
  _atom_site_symmetry_multiplicity
  _atom_site_fract_x
  _atom_site_fract_y
  _atom_site_fract_z
  _atom_site_occupancy
  Cd  Cd1       1.0  0.37373  0.25199  0.25095  1.0000
  Cd  Cd2       1.0  0.62628  0.74801  0.74905  1.0000
  H   H1        1.0  0.87749  0.39628  0.04897  1.0000
  H   H2        1.0  0.11186000000000003  0.34844  0.94261  1.0000
  H   H3        1.0  0.07488999999999994  0.10335  0.04813000000000001  1.0000
  H   H4        1.0  0.94721  0.15125  0.9422700000000002  1.0000
  H   H5        1.0  0.72726  0.39479  0.45089  1.0000
  H   H6        1.0  0.5409299999999999  0.34886  0.5578  1.0000
  H   H7        1.0  0.82129  0.10486  0.45153000000000004  1.0000
  H   H8        1.0  0.9007  0.1512  0.55768  1.0000
  H   H9        1.0  0.12250999999999988  0.60371  0.9510300000000003  1.0000
  H   H10       1.0  0.8881500000000001  0.65155  0.057380000000000014  1.0000
  H   H11       1.0  0.9251200000000004  0.8966499999999998  0.9518600000000003  1.0000
  H   H12       1.0  0.0528  0.84875  0.05772  1.0000
  H   H13       1.0  0.2727499999999999  0.6052  0.5491000000000001  1.0000
  H   H14       1.0  0.4590799999999998  0.65113  0.44219000000000014  1.0000
  H   H15       1.0  0.17870999999999998  0.89514  0.5484600000000001  1.0000
  H   H16       1.0  0.09930999999999993  0.8488  0.4423200000000001  1.0000
  C   C1        1.0  0.13848  0.37238  0.10239  1.0000
  C   C2        1.0  0.021710000000000007  0.41974  0.014490000000000001  1.0000
  C   C3        1.0  0.75929  0.12787  0.1025  1.0000
  C   C4        1.0  0.96453  0.08029  0.01429  1.0000
  C   C5        1.0  0.48908  0.37264  0.39801000000000003  1.0000
  C   C6        1.0  0.55889  0.4196  0.4856  1.0000
  C   C7        1.0  0.11324000000000002  0.12732  0.39755  1.0000
  C   C8        1.0  0.9552099999999999  0.08037  0.48558  1.0000
  C   C9        1.0  0.8615299999999999  0.62762  0.89761  1.0000
  C   C10       1.0  0.9783  0.58026  0.98551  1.0000
  C   C11       1.0  0.24070999999999973  0.87213  0.8975000000000002  1.0000
  C   C12       1.0  0.035479999999999914  0.9197000000000001  0.9857000000000001  1.0000
  C   C13       1.0  0.5109300000000001  0.62735  0.60199  1.0000
  C   C14       1.0  0.44112  0.5804  0.51439  1.0000
  C   C15       1.0  0.88677  0.87268  0.6024500000000002  1.0000
  C   C16       1.0  0.04480000000000005  0.9196200000000001  0.51442  1.0000
  O   O1        1.0  0.22182000000000002  0.23447999999999997  0.11847000000000002  1.0000
  O   O2        1.0  0.27661  0.03303  0.34314  1.0000
  O   O3        1.0  0.65986  0.26574  0.11901000000000003  1.0000
  O   O4        1.0  0.38047  0.46701  0.34366  1.0000
  O   O5        1.0  0.54619  0.23467999999999997  0.38159  1.0000
  O   O6        1.0  0.6926  0.03321  0.15689  1.0000
  O   O7        1.0  0.07279999999999989  0.26535  0.3812200000000001  1.0000
  O   O8        1.0  0.15004  0.46688  0.15706000000000003  1.0000
  O   O9        1.0  0.7781900000000005  0.76552  0.8815200000000002  1.0000
  O   O10       1.0  0.7233899999999999  0.96696  0.65686  1.0000
  O   O11       1.0  0.34014000000000005  0.73425  0.8809900000000003  1.0000
  O   O12       1.0  0.6195400000000001  0.53298  0.65633  1.0000
  O   O13       1.0  0.45380999999999994  0.76532  0.6184100000000001  1.0000
  O   O14       1.0  0.30740000000000006  0.96678  0.8431100000000001  1.0000
  O   O15       1.0  0.9272100000000002  0.73464  0.61877  1.0000
  O   O16       1.0  0.8499699999999999  0.53311  0.84294  1.0000
