data_image0
_chemical_formula_structural       Zn8H12C36O24
_chemical_formula_sum              "Zn8 H12 C36 O24"
_cell_length_a       14.59572
_cell_length_b       14.60109
_cell_length_c       14.59172
_cell_angle_alpha    90.0
_cell_angle_beta     90.0
_cell_angle_gamma    90.0

_space_group_name_H-M_alt    "P 1"
_space_group_IT_number       1

loop_
  _space_group_symop_operation_xyz
  'x, y, z'

loop_
  _atom_site_type_symbol
  _atom_site_label
  _atom_site_symmetry_multiplicity
  _atom_site_fract_x
  _atom_site_fract_y
  _atom_site_fract_z
  _atom_site_occupancy
  Zn  Zn1       1.0  0.20099  0.799  0.29894  1.0000
  Zn  Zn2       1.0  0.08067  0.9217000000000002  0.4222600000000001  1.0000
  Zn  Zn3       1.0  0.2990099999999999  0.201  0.79893  1.0000
  Zn  Zn4       1.0  0.4193399999999999  0.0783  0.92226  1.0000
  Zn  Zn5       1.0  0.79901  0.29899  0.20107  1.0000
  Zn  Zn6       1.0  0.9193299999999998  0.42173  0.07782  1.0000
  Zn  Zn7       1.0  0.7009899999999999  0.70101  0.70106  1.0000
  Zn  Zn8       1.0  0.5806799999999998  0.57827  0.57781  1.0000
  H   H1        1.0  0.4361399999999999  0.77716  0.4867  1.0000
  H   H2        1.0  0.06386  0.22284000000000007  0.9867  1.0000
  H   H3        1.0  0.56386  0.27715  0.01328  1.0000
  H   H4        1.0  0.9361399999999998  0.7228500000000001  0.51328  1.0000
  H   H5        1.0  0.4870499999999999  0.43589  0.77648  1.0000
  H   H6        1.0  0.98706  0.06411  0.22351  1.0000
  H   H7        1.0  0.012949999999999996  0.5641100000000002  0.27649  1.0000
  H   H8        1.0  0.51295  0.93589  0.7235100000000002  1.0000
  H   H9        1.0  0.7769099999999998  0.4865  0.43611  1.0000
  H   H10       1.0  0.2231  0.9865  0.06389  1.0000
  H   H11       1.0  0.27689999999999987  0.013500000000000003  0.56389  1.0000
  H   H12       1.0  0.72309  0.5135  0.93611  1.0000
  C   C1        1.0  0.34999999999999987  0.8936  0.51682  1.0000
  C   C2        1.0  0.42420999999999986  0.83478  0.5323  1.0000
  C   C3        1.0  0.28666  0.87755  0.43902  1.0000
  C   C4        1.0  0.15  0.10640000000000001  0.01682  1.0000
  C   C5        1.0  0.07578999999999997  0.16522  0.0323  1.0000
  C   C6        1.0  0.21333999999999995  0.12245  0.93901  1.0000
  C   C7        1.0  0.65  0.3936  0.98316  1.0000
  C   C8        1.0  0.57579  0.33478  0.9676900000000002  1.0000
  C   C9        1.0  0.7133499999999998  0.37755  0.06097  1.0000
  C   C10       1.0  0.8500099999999998  0.6064  0.48316  1.0000
  C   C11       1.0  0.9242099999999999  0.66522  0.46769  1.0000
  C   C12       1.0  0.7866499999999997  0.6224500000000002  0.5609600000000002  1.0000
  C   C13       1.0  0.5170799999999998  0.3498500000000001  0.89319  1.0000
  C   C14       1.0  0.53241  0.42413  0.83435  1.0000
  C   C15       1.0  0.4394399999999999  0.28609  0.87761  1.0000
  C   C16       1.0  0.017079999999999998  0.15015  0.1068  1.0000
  C   C17       1.0  0.032409999999999994  0.07587000000000002  0.16564  1.0000
  C   C18       1.0  0.9394399999999999  0.21391  0.12238  1.0000
  C   C19       1.0  0.9829199999999998  0.65015  0.3932000000000001  1.0000
  C   C20       1.0  0.9675899999999998  0.57587  0.33435  1.0000
  C   C21       1.0  0.060559999999999996  0.7139100000000002  0.37762  1.0000
  C   C22       1.0  0.48292  0.84985  0.6068  1.0000
  C   C23       1.0  0.4675899999999999  0.92413  0.6656400000000002  1.0000
  C   C24       1.0  0.56056  0.78609  0.62238  1.0000
  C   C25       1.0  0.8934299999999998  0.51686  0.34996  1.0000
  C   C26       1.0  0.8345999999999998  0.53203  0.42426  1.0000
  C   C27       1.0  0.8776199999999997  0.4392  0.28621  1.0000
  C   C28       1.0  0.10657999999999997  0.01686  0.15004  1.0000
  C   C29       1.0  0.16539999999999996  0.03203  0.07574  1.0000
  C   C30       1.0  0.12237999999999999  0.9392  0.2138  1.0000
  C   C31       1.0  0.39342  0.9831400000000002  0.6500400000000002  1.0000
  C   C32       1.0  0.3346  0.9679700000000002  0.57574  1.0000
  C   C33       1.0  0.37762  0.06080000000000001  0.7138  1.0000
  C   C34       1.0  0.60658  0.48314  0.84996  1.0000
  C   C35       1.0  0.6654  0.46797  0.92426  1.0000
  C   C36       1.0  0.62238  0.5608  0.78621  1.0000
  O   O1        1.0  0.29978  0.8057  0.38863  1.0000
  O   O2        1.0  0.22247999999999996  0.93523  0.4246  1.0000
  O   O3        1.0  0.20021999999999995  0.1943  0.88863  1.0000
  O   O4        1.0  0.27752  0.06477  0.9246  1.0000
  O   O5        1.0  0.7002299999999998  0.3057  0.11137  1.0000
  O   O6        1.0  0.7775299999999998  0.43524000000000007  0.07535  1.0000
  O   O7        1.0  0.79977  0.6943  0.61137  1.0000
  O   O8        1.0  0.7224799999999998  0.56476  0.57535  1.0000
  O   O9        1.0  0.38869  0.29955  0.80598  1.0000
  O   O10       1.0  0.4254399999999999  0.22184  0.93522  1.0000
  O   O11       1.0  0.8886899999999998  0.20045000000000002  0.19401  1.0000
  O   O12       1.0  0.9254399999999998  0.27818  0.06478  1.0000
  O   O13       1.0  0.11130999999999998  0.70045  0.30598  1.0000
  O   O14       1.0  0.07456999999999997  0.7781600000000001  0.43523000000000006  1.0000
  O   O15       1.0  0.61131  0.79955  0.69401  1.0000
  O   O16       1.0  0.57456  0.72183  0.56478  1.0000
  O   O17       1.0  0.8059099999999998  0.3886100000000001  0.29971  1.0000
  O   O18       1.0  0.93496  0.42532  0.22168  1.0000
  O   O19       1.0  0.19409  0.88861  0.20029  1.0000
  O   O20       1.0  0.06504999999999998  0.9253200000000001  0.27833  1.0000
  O   O21       1.0  0.30591  0.11139  0.70029  1.0000
  O   O22       1.0  0.43494999999999995  0.07468  0.77833  1.0000
  O   O23       1.0  0.69409  0.61139  0.79971  1.0000
  O   O24       1.0  0.5650399999999998  0.57468  0.72168  1.0000
