data_image0
_chemical_formula_structural       Mg3H8C24S4O16
_chemical_formula_sum              "Mg3 H8 C24 S4 O16"
_cell_length_a       9.66144
_cell_length_b       10.44504
_cell_length_c       11.80479
_cell_angle_alpha    108.31137999999999
_cell_angle_beta     92.57185
_cell_angle_gamma    118.30500000000002

_symmetry_space_group_name_H-M    'P 1'
_symmetry_Int_Tables_number       1

loop_
  _symmetry_equiv_pos_as_xyz
  'x,y,z'

loop_
  _atom_site_type_symbol
  _atom_site_label
  _atom_site_symmetry_multiplicity
  _atom_site_fract_x
  _atom_site_fract_y
  _atom_site_fract_z
  _atom_site_occupancy
  Mg  Mg1       1.0  0.55573  0.10224000000000003  0.33857000000000004  1.0000
  Mg  Mg2       1.0  0.4442699999999999  0.8977499999999999  0.66143  1.0000
  Mg  Mg3       1.0  0.5  0.0  0.0  1.0000
  H   H1        1.0  0.6996600000000001  0.8071600000000002  0.9874100000000001  1.0000
  H   H2        1.0  0.94308  0.7546400000000001  0.9501400000000001  1.0000
  H   H3        1.0  0.53047  0.72431  0.14393  1.0000
  H   H4        1.0  0.60861  0.50329  0.05817  1.0000
  H   H5        1.0  0.30034  0.19284  0.01259  1.0000
  H   H6        1.0  0.05691999999999999  0.24536  0.04986  1.0000
  H   H7        1.0  0.46953  0.27569000000000005  0.8560700000000001  1.0000
  H   H8        1.0  0.39139  0.4967  0.9418200000000001  1.0000
  C   C1        1.0  0.47690999999999995  0.79036  0.39053  1.0000
  C   C2        1.0  0.5880200000000001  0.3235100000000001  0.20784000000000002  1.0000
  C   C3        1.0  0.74735  0.03888  0.22246  1.0000
  C   C4        1.0  0.85355  0.98433  0.1671  1.0000
  C   C5        1.0  0.07666999999999993  0.9371199999999998  0.13171  1.0000
  C   C6        1.0  0.23923000000000014  0.9562200000000001  0.14403000000000002  1.0000
  C   C7        1.0  0.81604  0.86678  0.05126000000000001  1.0000
  C   C8        1.0  0.94262  0.83847  0.032420000000000004  1.0000
  C   C9        1.0  0.57902  0.46681999999999996  0.22922000000000003  1.0000
  C   C10       1.0  0.51659  0.67599  0.31143  1.0000
  C   C11       1.0  0.54326  0.65626  0.19254  1.0000
  C   C12       1.0  0.58142  0.53863  0.14701  1.0000
  C   C13       1.0  0.52309  0.20964  0.60946  1.0000
  C   C14       1.0  0.41198  0.67649  0.79216  1.0000
  C   C15       1.0  0.2526499999999998  0.9611199999999999  0.77754  1.0000
  C   C16       1.0  0.14645000000000005  0.01567000000000008  0.8329000000000001  1.0000
  C   C17       1.0  0.92333  0.06287999999999999  0.86829  1.0000
  C   C18       1.0  0.7607699999999998  0.04378000000000004  0.85597  1.0000
  C   C19       1.0  0.18397000000000002  0.13322000000000003  0.9487400000000001  1.0000
  C   C20       1.0  0.05737999999999999  0.16151999999999994  0.9675800000000001  1.0000
  C   C21       1.0  0.42099000000000003  0.53318  0.77078  1.0000
  C   C22       1.0  0.48341  0.32401  0.68857  1.0000
  C   C23       1.0  0.4567400000000001  0.3437400000000001  0.8074600000000001  1.0000
  C   C24       1.0  0.41859000000000024  0.4613700000000002  0.8529900000000002  1.0000
  S   S1        1.0  0.04417000000000001  0.05978000000000002  0.25106  1.0000
  S   S2        1.0  0.53692  0.54975  0.36528000000000005  1.0000
  S   S3        1.0  0.95584  0.94021  0.7489400000000002  1.0000
  S   S4        1.0  0.46308  0.45025  0.63472  1.0000
  O   O1        1.0  0.47323  0.88716  0.34948  1.0000
  O   O2        1.0  0.7877100000000001  0.11973000000000002  0.33646  1.0000
  O   O3        1.0  0.44876999999999995  0.7781  0.4918  1.0000
  O   O4        1.0  0.63128  0.306  0.30228  1.0000
  O   O5        1.0  0.32688999999999996  0.03223999999999997  0.25303  1.0000
  O   O6        1.0  0.27786000000000005  0.9026300000000002  0.04675000000000001  1.0000
  O   O7        1.0  0.6126  0.9956800000000001  0.15502000000000002  1.0000
  O   O8        1.0  0.54442  0.22813  0.09690000000000001  1.0000
  O   O9        1.0  0.52677  0.11282999999999996  0.65052  1.0000
  O   O10       1.0  0.21230000000000004  0.88027  0.66354  1.0000
  O   O11       1.0  0.55123  0.22189  0.5082  1.0000
  O   O12       1.0  0.36871999999999994  0.6940000000000001  0.69772  1.0000
  O   O13       1.0  0.6731200000000002  0.9677600000000001  0.7469700000000001  1.0000
  O   O14       1.0  0.72214  0.09736000000000006  0.9532500000000002  1.0000
  O   O15       1.0  0.3874  0.0043199999999999975  0.84498  1.0000
  O   O16       1.0  0.4555800000000001  0.7718700000000001  0.9031000000000001  1.0000
