data_image0
_chemical_formula_structural       Ni4H24C40N12
_chemical_formula_sum              "Ni4 H24 C40 N12"
_cell_length_a       6.13026
_cell_length_b       7.56981
_cell_length_c       28.03493
_cell_angle_alpha    90.01124999999999
_cell_angle_beta     86.63178
_cell_angle_gamma    89.99821

_symmetry_space_group_name_H-M    'P 1'
_symmetry_Int_Tables_number       1

loop_
  _symmetry_equiv_pos_as_xyz
  'x,y,z'

loop_
  _atom_site_type_symbol
  _atom_site_label
  _atom_site_symmetry_multiplicity
  _atom_site_fract_x
  _atom_site_fract_y
  _atom_site_fract_z
  _atom_site_occupancy
  Ni  Ni1       1.0  0.99488  0.55256  0.24882999999999994  1.0000
  Ni  Ni2       1.0  0.49478  0.049329999999999985  0.24883999999999995  1.0000
  Ni  Ni3       1.0  0.9950000000000001  0.44729999999999986  0.7487999999999999  1.0000
  Ni  Ni4       1.0  0.4950900000000001  0.9506399999999998  0.7487999999999999  1.0000
  H   H1        1.0  0.43236000000000013  0.4726299999999999  0.28708  1.0000
  H   H2        1.0  0.55823  0.5250199999999999  0.70966  1.0000
  H   H3        1.0  0.13966000000000006  0.65152  0.49397999999999986  1.0000
  H   H4        1.0  0.85973  0.3500399999999999  0.50259  1.0000
  H   H5        1.0  0.39413000000000004  0.56268  0.63423  1.0000
  H   H6        1.0  0.864  0.68304  0.35088999999999987  1.0000
  H   H7        1.0  0.60111  0.4370499999999999  0.36208  1.0000
  H   H8        1.0  0.13067000000000006  0.3178999999999999  0.6468799999999998  1.0000
  H   H9        1.0  0.28708  0.6094399999999998  0.57077  1.0000
  H   H10       1.0  0.7118300000000002  0.3921399999999999  0.4257699999999999  1.0000
  H   H11       1.0  0.99026  0.3349699999999999  0.56659  1.0000
  H   H12       1.0  0.009480000000000027  0.6684399999999998  0.4307299999999999  1.0000
  H   H13       1.0  0.55776  0.47477999999999987  0.20971  1.0000
  H   H14       1.0  0.43220000000000003  0.52751  0.7870599999999999  1.0000
  H   H15       1.0  0.8595100000000001  0.65005  0.00269  1.0000
  H   H16       1.0  0.13973  0.34826  0.99393  1.0000
  H   H17       1.0  0.6010500000000001  0.5630699999999997  0.86207  1.0000
  H   H18       1.0  0.13046  0.6815099999999997  0.14699  1.0000
  H   H19       1.0  0.39357  0.4376  0.13429  1.0000
  H   H20       1.0  0.86386  0.3172799999999999  0.85088  1.0000
  H   H21       1.0  0.7120800000000002  0.6077099999999999  0.9258399999999998  1.0000
  H   H22       1.0  0.2867  0.3904999999999999  0.07074  1.0000
  H   H23       1.0  0.009520000000000054  0.3316499999999999  0.9306899999999998  1.0000
  H   H24       1.0  0.99007  0.6648999999999998  0.06673  1.0000
  C   C1        1.0  0.6769600000000001  0.8695399999999998  0.26507  1.0000
  C   C2        1.0  0.34141  0.50846  0.3198399999999999  1.0000
  C   C3        1.0  0.65125  0.4903399999999999  0.67704  1.0000
  C   C4        1.0  0.2959  0.5846199999999998  0.4956  1.0000
  C   C5        1.0  0.40987000000000007  0.52438  0.45192999999999994  1.0000
  C   C6        1.0  0.7033000000000001  0.41678  0.501  1.0000
  C   C7        1.0  0.58906  0.4768699999999999  0.5446899999999999  1.0000
  C   C8        1.0  0.32142  0.5452099999999998  0.40631  1.0000
  C   C9        1.0  0.5580900000000001  0.5079199999999998  0.63375  1.0000
  C   C10       1.0  0.67609  0.45579999999999987  0.59046  1.0000
  C   C11       1.0  0.024450000000000034  0.6269  0.35582999999999987  1.0000
  C   C12       1.0  0.43715000000000015  0.4919599999999999  0.36287999999999987  1.0000
  C   C13       1.0  0.97038  0.37369  0.64159  1.0000
  C   C14       1.0  0.38032  0.56145  0.53922  1.0000
  C   C15       1.0  0.61878  0.43997999999999987  0.45736  1.0000
  C   C16       1.0  0.8878  0.3820499999999999  0.5968899999999998  1.0000
  C   C17       1.0  0.10972  0.6197499999999999  0.40027  1.0000
  C   C18       1.0  0.30492  0.22506999999999994  0.23219999999999993  1.0000
  C   C19       1.0  0.68602  0.22454  0.26522999999999997  1.0000
  C   C20       1.0  0.31167000000000006  0.8703199999999998  0.23267999999999994  1.0000
  C   C21       1.0  0.65086  0.5094999999999997  0.17711999999999997  1.0000
  C   C22       1.0  0.34128  0.4917399999999999  0.81983  1.0000
  C   C23       1.0  0.70313  0.5832399999999998  0.0010799999999999998  1.0000
  C   C24       1.0  0.5886800000000001  0.52326  0.044749999999999984  1.0000
  C   C25       1.0  0.29591999999999996  0.4152399999999999  0.99558  1.0000
  C   C26       1.0  0.40995  0.4755899999999999  0.9519299999999998  1.0000
  C   C27       1.0  0.67561  0.5442999999999999  0.09054  1.0000
  C   C28       1.0  0.4371  0.5081699999999998  0.86286  1.0000
  C   C29       1.0  0.32146000000000013  0.45491  0.9062999999999998  1.0000
  C   C30       1.0  0.97005  0.6259799999999998  0.14169  1.0000
  C   C31       1.0  0.5576  0.4922  0.13381999999999997  1.0000
  C   C32       1.0  0.024390000000000002  0.37332  0.85581  1.0000
  C   C33       1.0  0.6188  0.5599999999999999  0.9574099999999998  1.0000
  C   C34       1.0  0.38002  0.4386099999999999  0.03922999999999999  1.0000
  C   C35       1.0  0.10972000000000004  0.3804399999999999  0.90025  1.0000
  C   C36       1.0  0.88744  0.6178199999999998  0.09698999999999998  1.0000
  C   C37       1.0  0.3123900000000001  0.12974999999999998  0.7325799999999998  1.0000
  C   C38       1.0  0.6858  0.7751499999999998  0.76528  1.0000
  C   C39       1.0  0.30494  0.7750799999999998  0.7322  1.0000
  C   C40       1.0  0.67719  0.13039999999999993  0.76517  1.0000
  N   N1        1.0  0.7823  0.7435599999999998  0.27189  1.0000
  N   N2        1.0  0.8581  0.43284999999999996  0.68184  1.0000
  N   N3        1.0  0.7954800000000002  0.34829  0.27217  1.0000
  N   N4        1.0  0.13424999999999998  0.5660599999999998  0.31547  1.0000
  N   N5        1.0  0.19580999999999996  0.3490399999999999  0.22523  1.0000
  N   N6        1.0  0.20526000000000003  0.74484  0.22608999999999996  1.0000
  N   N7        1.0  0.13415  0.4341199999999999  0.81545  1.0000
  N   N8        1.0  0.8578000000000002  0.5667499999999998  0.18191999999999997  1.0000
  N   N9        1.0  0.20593000000000009  0.25513  0.7259299999999997  1.0000
  N   N10       1.0  0.19570000000000007  0.6512599999999997  0.7251799999999998  1.0000
  N   N11       1.0  0.7951499999999999  0.6511799999999998  0.77209  1.0000
  N   N12       1.0  0.7825800000000002  0.2563799999999999  0.7719  1.0000
