data_image0
_chemical_formula_structural       Zn4H18C50N8O13
_chemical_formula_sum              "Zn4 H18 C50 N8 O13"
_cell_length_a       13.1073
_cell_length_b       19.73848
_cell_length_c       19.80641
_cell_angle_alpha    84.99966999999998
_cell_angle_beta     87.25971
_cell_angle_gamma    87.51332

_space_group_name_H-M_alt    "P 1"
_space_group_IT_number       1

loop_
  _space_group_symop_operation_xyz
  'x, y, z'

loop_
  _atom_site_type_symbol
  _atom_site_label
  _atom_site_symmetry_multiplicity
  _atom_site_fract_x
  _atom_site_fract_y
  _atom_site_fract_z
  _atom_site_occupancy
  Zn  Zn1       1.0  0.3226699999999999  0.23393  0.06217  1.0000
  Zn  Zn2       1.0  0.48805999999999994  0.35165  0.05565  1.0000
  Zn  Zn3       1.0  0.50567  0.24001999999999998  0.94778  1.0000
  Zn  Zn4       1.0  0.32159  0.35556000000000004  0.94163  1.0000
  H   H1        1.0  0.2857899999999999  0.20804  0.40569  1.0000
  H   H2        1.0  0.30388  0.031709999999999995  0.93617  1.0000
  H   H3        1.0  0.54223  0.89708  0.0892  1.0000
  H   H4        1.0  0.3386499999999999  0.24480999999999997  0.50074  1.0000
  H   H5        1.0  0.82903  0.21575999999999998  0.86405  1.0000
  H   H6        1.0  0.80519  0.37185  0.0733  1.0000
  H   H7        1.0  0.83232  0.15136999999999995  0.9334600000000001  1.0000
  H   H8        1.0  0.5421499999999998  0.38467  0.60579  1.0000
  H   H9        1.0  0.53632  0.37949000000000005  0.72974  1.0000
  H   H10       1.0  0.018070000000000003  0.22241000000000005  0.8616999999999999  1.0000
  H   H11       1.0  0.3115299999999998  0.90665  0.9394700000000001  1.0000
  H   H12       1.0  0.9935099999999998  0.37265  0.07369  1.0000
  H   H13       1.0  0.33097999999999994  0.7993500000000002  0.94738  1.0000
  H   H14       1.0  0.5370599999999999  0.02321  0.08397  1.0000
  H   H15       1.0  0.50715  0.36181  0.25866  1.0000
  H   H16       1.0  0.48914  0.79697  0.05739999999999999  1.0000
  H   H17       1.0  0.50377  0.55768  0.06613  1.0000
  H   H18       1.0  0.50995  0.36395  0.38225  1.0000
  C   C1        1.0  0.4191299999999999  0.3023  0.81922  1.0000
  C   C2        1.0  0.42194  0.30387  0.74303  1.0000
  C   C3        1.0  0.45884  0.32842  0.29152  1.0000
  C   C4        1.0  0.4600899999999999  0.32941  0.36144  1.0000
  C   C5        1.0  0.39761999999999986  0.28606  0.40454  1.0000
  C   C6        1.0  0.33467999999999987  0.24225  0.37397  1.0000
  C   C7        1.0  0.33305  0.2412  0.30321  1.0000
  C   C8        1.0  0.3631  0.26477  0.6374  1.0000
  C   C9        1.0  0.35879999999999995  0.26303  0.70959  1.0000
  C   C10       1.0  0.4876999999999999  0.3472  0.70448  1.0000
  C   C11       1.0  0.49072  0.3498  0.63419  1.0000
  C   C12       1.0  0.43023  0.30917  0.59806  1.0000
  C   C13       1.0  0.3918199999999999  0.28201000000000004  0.47837  1.0000
  C   C14       1.0  0.44188999999999995  0.31709  0.52273  1.0000
  C   C15       1.0  0.4008699999999999  0.48029  0.99349  1.0000
  C   C16       1.0  0.39457  0.55632  0.98963  1.0000
  C   C17       1.0  0.45468999999999987  0.58901  0.03221  1.0000
  C   C18       1.0  0.45386  0.65984  0.03262  1.0000
  C   C19       1.0  0.3906499999999999  0.70301  0.98873  1.0000
  C   C20       1.0  0.32937  0.66877  0.9453200000000002  1.0000
  C   C21       1.0  0.33064999999999994  0.59688  0.9453400000000001  1.0000
  C   C22       1.0  0.36140999999999995  0.9316200000000001  0.9711199999999999  1.0000
  C   C23       1.0  0.3574199999999999  0.0023300000000000074  0.9686899999999999  1.0000
  C   C24       1.0  0.48826  0.9972899999999999  0.052450000000000004  1.0000
  C   C25       1.0  0.49105  0.92664  0.05518  1.0000
  C   C26       1.0  0.42816000000000004  0.8923899999999999  0.0144  1.0000
  C   C27       1.0  0.3838799999999999  0.7764699999999999  0.98437  1.0000
  C   C28       1.0  0.43581999999999993  0.8186  0.02024  1.0000
  C   C29       1.0  0.3998099999999999  0.28712  0.18502  1.0000
  C   C30       1.0  0.39642  0.28505  0.26093  1.0000
  C   C31       1.0  0.13405999999999998  0.29626  0.00237  1.0000
  C   C32       1.0  0.019759999999999996  0.29618  0.00236  1.0000
  C   C33       1.0  0.4202799999999999  0.11132  0.00787  1.0000
  C   C34       1.0  0.4216  0.03525  0.00918  1.0000
  C   C35       1.0  0.96874  0.25474  0.9631  1.0000
  C   C36       1.0  0.86253  0.2540899999999999  0.96275  1.0000
  C   C37       1.0  0.851  0.33852  0.04187  1.0000
  C   C38       1.0  0.95763  0.33881  0.04218  1.0000
  C   C39       1.0  0.9850399999999998  0.20188000000000003  0.911  1.0000
  C   C40       1.0  0.8628799999999998  0.20007  0.9128100000000001  1.0000
  C   C41       1.0  0.68657  0.29647  0.00183  1.0000
  C   C42       1.0  0.7999099999999999  0.29607  0.00183  1.0000
  C   C43       1.0  0.29743  0.2204  0.6087  1.0000
  C   C44       1.0  0.26461  0.70839  0.89992  1.0000
  C   C45       1.0  0.26577999999999996  0.56872  0.90002  1.0000
  C   C46       1.0  0.26573  0.19518000000000002  0.27796  1.0000
  C   C47       1.0  0.28866999999999987  0.22093  0.74935  1.0000
  C   C48       1.0  0.04111  0.13914  0.93215  1.0000
  C   C49       1.0  0.51343  0.36694  0.49736  1.0000
  C   C50       1.0  0.5197999999999999  0.68488  0.0792  1.0000
  N   N1        1.0  0.24286999999999995  0.18321000000000004  0.58675  1.0000
  N   N2        1.0  0.21243  0.74201  0.86296  1.0000
  N   N3        1.0  0.20994999999999991  0.55073  0.86151  1.0000
  N   N4        1.0  0.20779  0.15603  0.26347  1.0000
  N   N5        1.0  0.23151000000000002  0.18901  0.78492  1.0000
  N   N6        1.0  0.08669999999999999  0.08896  0.94933  1.0000
  N   N7        1.0  0.5726199999999998  0.40797000000000005  0.47877  1.0000
  N   N8        1.0  0.57553  0.70165  0.11853000000000001  1.0000
  O   O1        1.0  0.40883  0.29579  0.0013  1.0000
  O   O2        1.0  0.34388999999999986  0.24644000000000002  0.15838  1.0000
  O   O3        1.0  0.6363299999999998  0.33654  0.03985  1.0000
  O   O4        1.0  0.48391  0.14171000000000003  0.96606  1.0000
  O   O5        1.0  0.45927999999999986  0.33018  0.1537  1.0000
  O   O6        1.0  0.3577599999999999  0.13808  0.04999  1.0000
  O   O7        1.0  0.64879  0.25609  0.9630899999999999  1.0000
  O   O8        1.0  0.4847399999999999  0.26242  0.8487500000000001  1.0000
  O   O9        1.0  0.17616000000000007  0.3400499999999999  0.9599299999999998  1.0000
  O   O10       1.0  0.35317999999999994  0.34269  0.8449699999999999  1.0000
  O   O11       1.0  0.17699999999999994  0.25283  0.04413  1.0000
  O   O12       1.0  0.45958  0.45067  0.03761  1.0000
  O   O13       1.0  0.34801  0.45156999999999997  0.9527600000000002  1.0000
