data_image0
_chemical_formula_structural       Sr4Ni4H24C24O36
_chemical_formula_sum              "Sr4 Ni4 H24 C24 O36"
_cell_length_a       6.42028
_cell_length_b       11.94505
_cell_length_c       16.07984
_cell_angle_alpha    89.9924
_cell_angle_beta     119.76139
_cell_angle_gamma    90.30977

_symmetry_space_group_name_H-M    'P 1'
_symmetry_Int_Tables_number       1

loop_
  _symmetry_equiv_pos_as_xyz
  'x,y,z'

loop_
  _atom_site_type_symbol
  _atom_site_label
  _atom_site_symmetry_multiplicity
  _atom_site_fract_x
  _atom_site_fract_y
  _atom_site_fract_z
  _atom_site_occupancy
  Sr  Sr1       1.0  0.19787000000000002  0.60332  0.44222  1.0000
  Sr  Sr2       1.0  0.80782  0.10495  0.05802  1.0000
  Sr  Sr3       1.0  0.8036499999999999  0.39772  0.55828  1.0000
  Sr  Sr4       1.0  0.19978000000000004  0.89527  0.94285  1.0000
  Ni  Ni1       1.0  0.22591  0.7536800000000002  0.697  1.0000
  Ni  Ni2       1.0  0.78128  0.25732  0.80268  1.0000
  Ni  Ni3       1.0  0.77699  0.24603  0.30409  1.0000
  Ni  Ni4       1.0  0.22226999999999997  0.74664  0.19861999999999996  1.0000
  H   H1        1.0  0.53464  0.53967  0.78468  1.0000
  H   H2        1.0  0.82718  0.54126  0.79437  1.0000
  H   H3        1.0  0.56006  0.55314  0.09349  1.0000
  H   H4        1.0  0.82182  0.52771  0.0859  1.0000
  H   H5        1.0  0.14948000000000006  0.3552  0.48972  1.0000
  H   H6        1.0  0.30966  0.38771000000000005  0.59635  1.0000
  H   H7        1.0  0.46906999999999993  0.04425  0.71304  1.0000
  H   H8        1.0  0.17976  0.04164  0.7058  1.0000
  H   H9        1.0  0.4436  0.05968000000000001  0.40616  1.0000
  H   H10       1.0  0.18596  0.027400000000000004  0.41501  1.0000
  H   H11       1.0  0.8531000000000001  0.8558500000000001  0.01411  1.0000
  H   H12       1.0  0.69607  0.88536  0.90664  1.0000
  H   H13       1.0  0.47094  0.4606500000000001  0.21571999999999997  1.0000
  H   H14       1.0  0.1778  0.46059000000000005  0.20493  1.0000
  H   H15       1.0  0.44259  0.45002000000000003  0.90706  1.0000
  H   H16       1.0  0.18305000000000013  0.47619  0.9151200000000002  1.0000
  H   H17       1.0  0.85312  0.6450200000000001  0.51221  1.0000
  H   H18       1.0  0.69309  0.6135300000000001  0.40528  1.0000
  H   H19       1.0  0.5360399999999998  0.9582000000000003  0.28748  1.0000
  H   H20       1.0  0.82678  0.9600200000000001  0.29564  1.0000
  H   H21       1.0  0.56227  0.9422000000000003  0.59459  1.0000
  H   H22       1.0  0.8235500000000001  0.97289  0.58754  1.0000
  H   H23       1.0  0.15381000000000009  0.14517  0.98697  1.0000
  H   H24       1.0  0.31408  0.11535  0.09397999999999998  1.0000
  C   C1        1.0  0.5328599999999998  0.6006800000000001  0.66292  1.0000
  C   C2        1.0  0.66179  0.5876  0.7706  1.0000
  C   C3        1.0  0.71993  0.6971  0.8258  1.0000
  C   C4        1.0  0.89413  0.58908  0.2219  1.0000
  C   C5        1.0  0.73751  0.58674  0.11313  1.0000
  C   C6        1.0  0.70951  0.69746  0.06272  1.0000
  C   C7        1.0  0.4767600000000002  0.10102  0.83744  1.0000
  C   C8        1.0  0.34433  0.08977  0.72949  1.0000
  C   C9        1.0  0.28383  0.20132  0.67746  1.0000
  C   C10       1.0  0.10691000000000002  0.09191  0.27904  1.0000
  C   C11       1.0  0.26521  0.08984000000000002  0.38783  1.0000
  C   C12       1.0  0.28972  0.19936000000000004  0.43969  1.0000
  C   C13       1.0  0.46954  0.40008  0.33721  1.0000
  C   C14       1.0  0.34251  0.4133900000000001  0.22952  1.0000
  C   C15       1.0  0.28347  0.30319  0.17528  1.0000
  C   C16       1.0  0.10786999999999994  0.41434000000000004  0.77926  1.0000
  C   C17       1.0  0.26571  0.41612  0.888  1.0000
  C   C18       1.0  0.29338999999999993  0.30512  0.93842  1.0000
  C   C19       1.0  0.53105  0.90024  0.16365  1.0000
  C   C20       1.0  0.66156  0.91247  0.27165  1.0000
  C   C21       1.0  0.71979  0.8013000000000001  0.32404  1.0000
  C   C22       1.0  0.8962199999999999  0.90709  0.72213  1.0000
  C   C23       1.0  0.7401300000000001  0.9109100000000002  0.61328  1.0000
  C   C24       1.0  0.71371  0.80162  0.56095  1.0000
  O   O1        1.0  0.3419800000000003  0.66177  0.6239  1.0000
  O   O2        1.0  0.6034599999999998  0.5507400000000001  0.61231  1.0000
  O   O3        1.0  0.9314799999999999  0.71646  0.88864  1.0000
  O   O4        1.0  0.54346  0.76629  0.80644  1.0000
  O   O5        1.0  0.09371999999999996  0.64589  0.26168  1.0000
  O   O6        1.0  0.83144  0.53278  0.27178  1.0000
  O   O7        1.0  0.90479  0.7573200000000001  0.08983  1.0000
  O   O8        1.0  0.5101999999999999  0.72751  0.9969  1.0000
  O   O9        1.0  0.1809899999999999  0.41826000000000013  0.53581  1.0000
  O   O10       1.0  0.6684299999999999  0.1625  0.87635  1.0000
  O   O11       1.0  0.40605  0.050080000000000006  0.88782  1.0000
  O   O12       1.0  0.07092  0.22128  0.61736  1.0000
  O   O13       1.0  0.4597300000000001  0.27192000000000005  0.69656  1.0000
  O   O14       1.0  0.9110199999999999  0.15047  0.23963  1.0000
  O   O15       1.0  0.16652  0.03406  0.22912  1.0000
  O   O16       1.0  0.09165999999999996  0.2546300000000001  0.41588  1.0000
  O   O17       1.0  0.48893999999999993  0.23240000000000002  0.50419  1.0000
  O   O18       1.0  0.82386  0.91728  0.96702  1.0000
  O   O19       1.0  0.65929  0.3383400000000001  0.37645  1.0000
  O   O20       1.0  0.39772  0.4498400000000001  0.38762  1.0000
  O   O21       1.0  0.07186000000000001  0.28357000000000004  0.11265  1.0000
  O   O22       1.0  0.45916999999999997  0.23322000000000004  0.1954  1.0000
  O   O23       1.0  0.9116099999999999  0.35499  0.73945  1.0000
  O   O24       1.0  0.16648  0.47294000000000014  0.72933  1.0000
  O   O25       1.0  0.09693000000000002  0.24647000000000002  0.91287  1.0000
  O   O26       1.0  0.49315  0.2733300000000001  0.0026  1.0000
  O   O27       1.0  0.82109  0.5823700000000002  0.46561  1.0000
  O   O28       1.0  0.33869  0.83896  0.12471  1.0000
  O   O29       1.0  0.60336  0.9496700000000001  0.11321  1.0000
  O   O30       1.0  0.9326  0.7797800000000003  0.38334  1.0000
  O   O31       1.0  0.5414400000000001  0.7327500000000001  0.3054700000000001  1.0000
  O   O32       1.0  0.09360999999999992  0.8496300000000001  0.76153  1.0000
  O   O33       1.0  0.83375  0.96256  0.77225  1.0000
  O   O34       1.0  0.9109600000000003  0.7452900000000002  0.58549  1.0000
  O   O35       1.0  0.51401  0.76951  0.49608  1.0000
  O   O36       1.0  0.18629  0.08303  0.03377  1.0000
