data_image0
_chemical_formula_structural       Ce2H24C42O12
_chemical_formula_sum              "Ce2 H24 C42 O12"
_cell_length_a       8.4861
_cell_length_b       14.4917
_cell_length_c       15.414679999999999
_cell_angle_alpha    116.02107
_cell_angle_beta     106.12323
_cell_angle_gamma    90.0113

_space_group_name_H-M_alt    "P 1"
_space_group_IT_number       1

loop_
  _space_group_symop_operation_xyz
  'x, y, z'

loop_
  _atom_site_type_symbol
  _atom_site_label
  _atom_site_symmetry_multiplicity
  _atom_site_fract_x
  _atom_site_fract_y
  _atom_site_fract_z
  _atom_site_occupancy
  Ce  Ce1       1.0  0.95747  0.9904300000000003  0.46084  1.0000
  Ce  Ce2       1.0  0.49764  0.009620000000000045  0.5397900000000001  1.0000
  H   H1        1.0  0.80888  0.19750000000000006  0.32200000000000006  1.0000
  H   H2        1.0  0.7959100000000002  0.36012  0.30561000000000005  1.0000
  H   H3        1.0  0.43203000000000014  0.4414100000000002  0.46504000000000006  1.0000
  H   H4        1.0  0.4492900000000001  0.27976  0.48222000000000004  1.0000
  H   H5        1.0  0.68317  0.45957  0.24369  1.0000
  H   H6        1.0  0.72667  0.63421  0.25438  1.0000
  H   H7        1.0  0.5872600000000002  0.76953  0.52722  1.0000
  H   H8        1.0  0.5523800000000002  0.59756  0.5208  1.0000
  H   H9        1.0  0.17607000000000006  0.28781000000000007  0.7680500000000001  1.0000
  H   H10       1.0  0.24943000000000007  0.45846000000000015  0.9208800000000001  1.0000
  H   H11       1.0  0.7805900000000002  0.4150200000000001  0.96511  1.0000
  H   H12       1.0  0.7044900000000002  0.2469200000000001  0.8080200000000002  1.0000
  H   H13       1.0  0.49176000000000003  0.8010400000000001  0.6785600000000003  1.0000
  H   H14       1.0  0.4928600000000001  0.6382200000000003  0.6944300000000002  1.0000
  H   H15       1.0  0.96852  0.55899  0.5353  1.0000
  H   H16       1.0  0.9705800000000001  0.72064  0.51794  1.0000
  H   H17       1.0  0.44235000000000013  0.53929  0.7553700000000001  1.0000
  H   H18       1.0  0.47478  0.36476  0.74479  1.0000
  H   H19       1.0  0.05970000000000006  0.22981000000000004  0.47211  1.0000
  H   H20       1.0  0.03158000000000002  0.40196  0.4787600000000001  1.0000
  H   H21       1.0  0.40211  0.7186800000000001  0.23495000000000005  1.0000
  H   H22       1.0  0.32874000000000003  0.54744  0.08269000000000003  1.0000
  H   H23       1.0  0.81154  0.58237  0.03344  1.0000
  H   H24       1.0  0.8868300000000002  0.75205  0.18886  1.0000
  C   C1        1.0  0.65265  0.13540000000000008  0.4216700000000001  1.0000
  C   C2        1.0  0.6329200000000001  0.22926000000000007  0.40511000000000014  1.0000
  C   C3        1.0  0.7273200000000002  0.25175  0.35329  1.0000
  C   C4        1.0  0.7184700000000002  0.34284  0.34371  1.0000
  C   C5        1.0  0.61562  0.41466  0.3859100000000001  1.0000
  C   C6        1.0  0.51686  0.3894500000000002  0.4345700000000001  1.0000
  C   C7        1.0  0.52513  0.2981200000000001  0.4439400000000001  1.0000
  C   C8        1.0  0.6193600000000002  0.5154300000000003  0.38325000000000004  1.0000
  C   C9        1.0  0.6642600000000001  0.52722  0.3067700000000001  1.0000
  C   C10       1.0  0.6863400000000002  0.62449  0.31136000000000014  1.0000
  C   C11       1.0  0.66185  0.7130000000000002  0.3918300000000001  1.0000
  C   C12       1.0  0.6083700000000002  0.70154  0.4653000000000001  1.0000
  C   C13       1.0  0.5880700000000001  0.6041600000000003  0.46105  1.0000
  C   C14       1.0  0.70712  0.8166700000000001  0.40134000000000003  1.0000
  C   C15       1.0  0.8887100000000002  0.15570000000000006  0.6844300000000002  1.0000
  C   C16       1.0  0.9357600000000001  0.2566100000000001  0.7785100000000001  1.0000
  C   C17       1.0  0.08998000000000007  0.3165700000000001  0.8113700000000003  1.0000
  C   C18       1.0  0.13109000000000015  0.4119200000000001  0.8978800000000002  1.0000
  C   C19       1.0  0.0204199999999999  0.45012  0.95468  1.0000
  C   C20       1.0  0.8665  0.38866000000000006  0.9212600000000001  1.0000
  C   C21       1.0  0.8242  0.29357  0.83436  1.0000
  C   C22       1.0  0.23733  0.86415  0.57853  1.0000
  C   C23       1.0  0.23220000000000005  0.77033  0.5951  1.0000
  C   C24       1.0  0.37803000000000003  0.74728  0.64709  1.0000
  C   C25       1.0  0.3775900000000001  0.6560800000000001  0.6563900000000001  1.0000
  C   C26       1.0  0.23167  0.58466  0.61395  1.0000
  C   C27       1.0  0.08446000000000001  0.6105900000000001  0.5655700000000001  1.0000
  C   C28       1.0  0.08458999999999998  0.70197  0.55629  1.0000
  C   C29       1.0  0.23744000000000004  0.48371  0.61623  1.0000
  C   C30       1.0  0.3595700000000001  0.47164000000000017  0.6924400000000003  1.0000
  C   C31       1.0  0.37677000000000005  0.37434000000000006  0.6878100000000001  1.0000
  C   C32       1.0  0.2706300000000001  0.2859600000000001  0.6074400000000002  1.0000
  C   C33       1.0  0.14331000000000008  0.29772  0.53405  1.0000
  C   C34       1.0  0.12746  0.39513  0.53839  1.0000
  C   C35       1.0  0.30424  0.18187  0.59768  1.0000
  C   C36       1.0  0.19362000000000007  0.84621  0.31585  1.0000
  C   C37       1.0  0.14924  0.74584  0.22145  1.0000
  C   C38       1.0  0.27322  0.6879499999999998  0.19041  1.0000
  C   C39       1.0  0.23128  0.59237  0.10425  1.0000
  C   C40       1.0  0.06439  0.55169  0.04624  1.0000
  C   C41       1.0  0.94106  0.61105  0.07793000000000001  1.0000
  C   C42       1.0  0.9822900000000001  0.7068  0.16409  1.0000
  O   O1        1.0  0.7691200000000002  0.08354000000000007  0.3965800000000001  1.0000
  O   O2        1.0  0.55614  0.11167000000000005  0.46127  1.0000
  O   O3        1.0  0.7054800000000002  0.89997  0.48232000000000014  1.0000
  O   O4        1.0  0.76156  0.82417  0.33579  1.0000
  O   O5        1.0  0.98351  0.12967999999999993  0.62856  1.0000
  O   O6        1.0  0.7534800000000001  0.09970000000000011  0.6632400000000003  1.0000
  O   O7        1.0  0.37977000000000016  0.9165000000000002  0.60602  1.0000
  O   O8        1.0  0.10231000000000001  0.88748  0.53664  1.0000
  O   O9        1.0  0.22213000000000005  0.09915000000000004  0.51567  1.0000
  O   O10       1.0  0.42189  0.17345000000000002  0.66413  1.0000
  O   O11       1.0  0.3418800000000001  0.8703800000000002  0.37606000000000006  1.0000
  O   O12       1.0  0.07969000000000008  0.9031900000000005  0.33295000000000013  1.0000
