data_image0
_chemical_formula_structural       Mn4H16Au4C32N12O8
_chemical_formula_sum              "Mn4 H16 Au4 C32 N12 O8"
_cell_length_a       7.94331
_cell_length_b       11.27911
_cell_length_c       13.47676
_cell_angle_alpha    64.55063
_cell_angle_beta     89.22471
_cell_angle_gamma    90.48683

_space_group_name_H-M_alt    "P 1"
_space_group_IT_number       1

loop_
  _space_group_symop_operation_xyz
  'x, y, z'

loop_
  _atom_site_type_symbol
  _atom_site_label
  _atom_site_symmetry_multiplicity
  _atom_site_fract_x
  _atom_site_fract_y
  _atom_site_fract_z
  _atom_site_occupancy
  Mn  Mn1       1.0  0.7080599999999998  0.43532999999999983  0.7495300000000003  1.0000
  Mn  Mn2       1.0  0.7930599999999998  0.8172199999999998  0.7485600000000001  1.0000
  Mn  Mn3       1.0  0.2794799999999999  0.57416  0.25271  1.0000
  Mn  Mn4       1.0  0.22076999999999994  0.17265  0.25365  1.0000
  H   H1        1.0  0.9130999999999998  0.22114000000000003  0.71466  1.0000
  H   H2        1.0  0.05192999999999998  0.18461999999999998  0.56414  1.0000
  H   H3        1.0  0.8046399999999998  0.5299099999999999  0.3325700000000001  1.0000
  H   H4        1.0  0.66609  0.54795  0.49391  1.0000
  H   H5        1.0  0.5899099999999998  0.06778999999999998  0.71245  1.0000
  H   H6        1.0  0.4466499999999999  0.2513  0.56266  1.0000
  H   H7        1.0  0.6948199999999998  0.13756  0.33089  1.0000
  H   H8        1.0  0.8375799999999998  0.9623600000000002  0.49058  1.0000
  H   H9        1.0  0.08379999999999997  0.78877  0.28886  1.0000
  H   H10       1.0  0.9436199999999998  0.82096  0.43991  1.0000
  H   H11       1.0  0.17252999999999993  0.4625300000000001  0.66823  1.0000
  H   H12       1.0  0.3138299999999999  0.4495300000000001  0.50622  1.0000
  H   H13       1.0  0.41543999999999986  0.92138  0.29065  1.0000
  H   H14       1.0  0.5582199999999998  0.7402900000000001  0.4406800000000001  1.0000
  H   H15       1.0  0.32768999999999987  0.8697399999999998  0.66884  1.0000
  H   H16       1.0  0.18327999999999994  0.04239000000000002  0.50811  1.0000
  Au  Au1       1.0  0.24894999999999992  0.10257000000000001  0.79628  1.0000
  Au  Au2       1.0  0.7514299999999998  0.8992  0.20131000000000002  1.0000
  Au  Au3       1.0  0.9946999999999999  0.011159999999999979  0.99575  1.0000
  Au  Au4       1.0  0.5057499999999998  0.9929099999999998  0.99595  1.0000
  C   C1        1.0  0.3980299999999999  0.25200999999999996  0.78717  1.0000
  C   C2        1.0  0.8814299999999998  0.18378000000000003  0.91415  1.0000
  C   C3        1.0  0.8907099999999998  0.28692  0.62921  1.0000
  C   C4        1.0  0.96861  0.26721  0.54489  1.0000
  C   C5        1.0  0.9426099999999997  0.35689  0.43612  1.0000
  C   C6        1.0  0.8307199999999998  0.45945  0.41618  1.0000
  C   C7        1.0  0.7544799999999998  0.47033000000000025  0.50528  1.0000
  C   C8        1.0  0.03981999999999999  0.34632  0.34443000000000007  1.0000
  C   C9        1.0  0.10114999999999999  0.9631900000000001  0.7851800000000001  1.0000
  C   C10       1.0  0.6158599999999997  0.9010300000000001  0.9140800000000001  1.0000
  C   C11       1.0  0.6112499999999997  0.08646999999999998  0.62715  1.0000
  C   C12       1.0  0.5309899999999997  0.18853000000000003  0.54339  1.0000
  C   C13       1.0  0.55561  0.20662000000000003  0.43487  1.0000
  C   C14       1.0  0.6688699999999997  0.12518999999999997  0.41431000000000007  1.0000
  C   C15       1.0  0.7475999999999998  0.02714999999999998  0.50281  1.0000
  C   C16       1.0  0.4565599999999999  0.30752  0.34463  1.0000
  C   C17       1.0  0.6134799999999998  0.7471  0.20803  1.0000
  C   C18       1.0  0.10882999999999997  0.83808  0.07439  1.0000
  C   C19       1.0  0.10269999999999996  0.7195299999999998  0.37387  1.0000
  C   C20       1.0  0.024159999999999997  0.7369999999999998  0.45885  1.0000
  C   C21       1.0  0.04354999999999999  0.64263  0.56762  1.0000
  C   C22       1.0  0.15125999999999995  0.5372700000000001  0.5854  1.0000
  C   C23       1.0  0.22922999999999993  0.5291000000000002  0.49596  1.0000
  C   C24       1.0  0.9478199999999998  0.64958  0.65949  1.0000
  C   C25       1.0  0.8894499999999997  0.04313000000000003  0.20996  1.0000
  C   C26       1.0  0.3959399999999999  0.08808  0.07545  1.0000
  C   C27       1.0  0.39661999999999986  0.90584  0.37546  1.0000
  C   C28       1.0  0.47671999999999987  0.80474  0.45982000000000006  1.0000
  C   C29       1.0  0.45765  0.79138  0.56795  1.0000
  C   C30       1.0  0.3487599999999999  0.8779400000000002  0.58618  1.0000
  C   C31       1.0  0.2691099999999999  0.9739900000000001  0.49748000000000003  1.0000
  C   C32       1.0  0.5541899999999997  0.6941  0.65881  1.0000
  N   N1        1.0  0.5007199999999998  0.33188  0.77838  1.0000
  N   N2        1.0  0.8172499999999998  0.28362  0.8589  1.0000
  N   N3        1.0  0.78688  0.38812  0.61072  1.0000
  N   N4        1.0  0.9988599999999999  0.89293  0.77559  1.0000
  N   N5        1.0  0.6801699999999998  0.85646  0.85886  1.0000
  N   N6        1.0  0.7162599999999998  0.004549999999999987  0.60829  1.0000
  N   N7        1.0  0.5216099999999998  0.6626700000000002  0.21264  1.0000
  N   N8        1.0  0.17239999999999994  0.73614  0.12356  1.0000
  N   N9        1.0  0.20318999999999995  0.61647  0.39043  1.0000
  N   N10       1.0  0.9825499999999998  0.12156000000000003  0.21521  1.0000
  N   N11       1.0  0.33452  0.14098  0.12511  1.0000
  N   N12       1.0  0.2948  0.99154  0.39227000000000006  1.0000
  O   O1        1.0  0.08408999999999997  0.23145000000000004  0.3601  1.0000
  O   O2        1.0  0.07524999999999997  0.45208  0.25961  1.0000
  O   O3        1.0  0.4075299999999999  0.40526000000000006  0.36068  1.0000
  O   O4        1.0  0.42478  0.28707  0.2608  1.0000
  O   O5        1.0  0.90911  0.7648  0.64926  1.0000
  O   O6        1.0  0.9081099999999998  0.54247  0.7449000000000001  1.0000
  O   O7        1.0  0.59395  0.5885000000000002  0.65017  1.0000
  O   O8        1.0  0.5919599999999998  0.71772  0.74158  1.0000
