data_image0
_chemical_formula_structural       Cd2H8C16O8
_chemical_formula_sum              "Cd2 H8 C16 O8"
_cell_length_a       7.096
_cell_length_b       8.69818
_cell_length_c       10.16888
_cell_angle_alpha    120.20860000000002
_cell_angle_beta     110.4428
_cell_angle_gamma    92.80528

_symmetry_space_group_name_H-M    'P 1'
_symmetry_Int_Tables_number       1

loop_
  _symmetry_equiv_pos_as_xyz
  'x,y,z'

loop_
  _atom_site_type_symbol
  _atom_site_label
  _atom_site_symmetry_multiplicity
  _atom_site_fract_x
  _atom_site_fract_y
  _atom_site_fract_z
  _atom_site_occupancy
  Cd  Cd1       1.0  0.7466499999999998  0.92043  0.5071  1.0000
  Cd  Cd2       1.0  0.2533399999999999  0.07955999999999998  0.4928999999999999  1.0000
  H   H1        1.0  0.3635099999999999  0.1555700000000001  0.85291  1.0000
  H   H2        1.0  0.24786999999999998  0.18121  0.06753  1.0000
  H   H3        1.0  0.7246499999999998  0.36205  0.7086  1.0000
  H   H4        1.0  0.36556  0.48399  0.047559999999999984  1.0000
  H   H5        1.0  0.6364899999999999  0.84442  0.14708999999999994  1.0000
  H   H6        1.0  0.7521199999999998  0.81878  0.93247  1.0000
  H   H7        1.0  0.27535  0.6379399999999998  0.2914  1.0000
  H   H8        1.0  0.6344299999999999  0.5159999999999999  0.9524299999999998  1.0000
  C   C1        1.0  0.6275799999999998  0.96521  0.74793  1.0000
  C   C2        1.0  0.5620399999999998  0.9833999999999998  0.8777899999999997  1.0000
  C   C3        1.0  0.4200399999999998  0.0859199999999999  0.9162599999999997  1.0000
  C   C4        1.0  0.35776999999999987  0.10229999999999997  0.037269999999999984  1.0000
  C   C5        1.0  0.10030999999999984  0.3078499999999999  0.7167699999999998  1.0000
  C   C6        1.0  0.049319999999999975  0.41166  0.8626  1.0000
  C   C7        1.0  0.84342  0.42184999999999984  0.8363099999999998  1.0000
  C   C8        1.0  0.20603999999999995  0.49100000000000005  0.02708  1.0000
  C   C9        1.0  0.37241  0.03477999999999992  0.2520599999999999  1.0000
  C   C10       1.0  0.43796  0.016589999999999983  0.12219999999999998  1.0000
  C   C11       1.0  0.57995  0.91408  0.08373999999999997  1.0000
  C   C12       1.0  0.6422199999999998  0.8976899999999999  0.9627199999999998  1.0000
  C   C13       1.0  0.8996800000000001  0.69214  0.28323  1.0000
  C   C14       1.0  0.9506799999999997  0.58833  0.13739  1.0000
  C   C15       1.0  0.15657  0.57814  0.16368999999999995  1.0000
  C   C16       1.0  0.7939599999999997  0.5089899999999998  0.9729099999999998  1.0000
  O   O1        1.0  0.76583  0.8816299999999998  0.7205899999999997  1.0000
  O   O2        1.0  0.5456199999999998  0.035179999999999864  0.6628799999999998  1.0000
  O   O3        1.0  0.9539599999999997  0.18063999999999986  0.5702799999999998  1.0000
  O   O4        1.0  0.2896300000000001  0.33949  0.73865  1.0000
  O   O5        1.0  0.23416  0.11836999999999996  0.2794  1.0000
  O   O6        1.0  0.4543799999999999  0.9648099999999998  0.33712  1.0000
  O   O7        1.0  0.04603999999999993  0.8193499999999999  0.42970999999999987  1.0000
  O   O8        1.0  0.71037  0.6605  0.26134  1.0000
