data_image0
_chemical_formula_structural       Zn8H24C24N36
_chemical_formula_sum              "Zn8 H24 C24 N36"
_cell_length_a       7.70791
_cell_length_b       9.77991
_cell_length_c       18.19492
_cell_angle_alpha    90.0
_cell_angle_beta     90.0
_cell_angle_gamma    90.0

_symmetry_space_group_name_H-M    'P 1'
_symmetry_Int_Tables_number       1

loop_
  _symmetry_equiv_pos_as_xyz
  'x,y,z'

loop_
  _atom_site_type_symbol
  _atom_site_label
  _atom_site_symmetry_multiplicity
  _atom_site_fract_x
  _atom_site_fract_y
  _atom_site_fract_z
  _atom_site_occupancy
  Zn  Zn1       1.0  0.10377  0.75  0.92903  1.0000
  Zn  Zn2       1.0  0.01407  0.75  0.26203  1.0000
  Zn  Zn3       1.0  0.3962299999999999  0.25  0.42903  1.0000
  Zn  Zn4       1.0  0.48593  0.25  0.76203  1.0000
  Zn  Zn5       1.0  0.8962299999999997  0.25  0.07097  1.0000
  Zn  Zn6       1.0  0.98593  0.25  0.7379700000000001  1.0000
  Zn  Zn7       1.0  0.60377  0.75  0.57097  1.0000
  Zn  Zn8       1.0  0.51407  0.75  0.23797000000000001  1.0000
  H   H1        1.0  0.9407299999999997  0.54674  0.82092  1.0000
  H   H2        1.0  0.46934  0.53504  0.8761000000000001  1.0000
  H   H3        1.0  0.55927  0.45326  0.32092  1.0000
  H   H4        1.0  0.03066  0.46496999999999994  0.3761  1.0000
  H   H5        1.0  0.05927  0.04674  0.17908000000000002  1.0000
  H   H6        1.0  0.53066  0.03503  0.1239  1.0000
  H   H7        1.0  0.44073  0.9532600000000001  0.67908  1.0000
  H   H8        1.0  0.96934  0.96497  0.62391  1.0000
  H   H9        1.0  0.05927  0.45326  0.17908000000000002  1.0000
  H   H10       1.0  0.53066  0.46496999999999994  0.1239  1.0000
  H   H11       1.0  0.44073  0.54674  0.67908  1.0000
  H   H12       1.0  0.96934  0.53504  0.62391  1.0000
  H   H13       1.0  0.9407299999999997  0.9532600000000001  0.82092  1.0000
  H   H14       1.0  0.46934  0.96497  0.8761000000000001  1.0000
  H   H15       1.0  0.55927  0.04674  0.32092  1.0000
  H   H16       1.0  0.03066  0.03503  0.37609  1.0000
  H   H17       1.0  0.4920299999999999  0.75  0.04507  1.0000
  H   H18       1.0  0.9548699999999998  0.75  0.08248  1.0000
  H   H19       1.0  0.00797  0.25  0.54507  1.0000
  H   H20       1.0  0.54513  0.25  0.58248  1.0000
  H   H21       1.0  0.50797  0.25  0.95493  1.0000
  H   H22       1.0  0.04513  0.25  0.9175200000000001  1.0000
  H   H23       1.0  0.99203  0.75  0.45493  1.0000
  H   H24       1.0  0.45487  0.75  0.41752  1.0000
  C   C1        1.0  0.07617999999999997  0.51773  0.82376  1.0000
  C   C2        1.0  0.34354  0.51153  0.85276  1.0000
  C   C3        1.0  0.42382  0.48227  0.32376  1.0000
  C   C4        1.0  0.15646  0.48847  0.35276  1.0000
  C   C5        1.0  0.9238199999999998  0.01773  0.17624  1.0000
  C   C6        1.0  0.6564599999999999  0.01153  0.14724000000000004  1.0000
  C   C7        1.0  0.57618  0.98227  0.67624  1.0000
  C   C8        1.0  0.84354  0.9884800000000001  0.64724  1.0000
  C   C9        1.0  0.9238199999999998  0.48227  0.17624  1.0000
  C   C10       1.0  0.6564599999999999  0.48847999999999997  0.14724000000000004  1.0000
  C   C11       1.0  0.57618  0.51773  0.67624  1.0000
  C   C12       1.0  0.84354  0.51153  0.64724  1.0000
  C   C13       1.0  0.07617999999999997  0.98227  0.82376  1.0000
  C   C14       1.0  0.34354  0.9884800000000001  0.85276  1.0000
  C   C15       1.0  0.42382  0.01773  0.32376  1.0000
  C   C16       1.0  0.15646  0.01153  0.35276  1.0000
  C   C17       1.0  0.36611  0.75  0.07152  1.0000
  C   C18       1.0  0.09384  0.75  0.09122  1.0000
  C   C19       1.0  0.13389  0.25  0.57152  1.0000
  C   C20       1.0  0.40616  0.25  0.59122  1.0000
  C   C21       1.0  0.63388  0.25  0.9284700000000001  1.0000
  C   C22       1.0  0.90616  0.25  0.90878  1.0000
  C   C23       1.0  0.86612  0.75  0.42847  1.0000
  C   C24       1.0  0.59384  0.75  0.40878  1.0000
  N   N1        1.0  0.14296  0.41033  0.78886  1.0000
  N   N2        1.0  0.3159899999999999  0.40613  0.80748  1.0000
  N   N3        1.0  0.19612  0.58448  0.86483  1.0000
  N   N4        1.0  0.35704  0.58967  0.28886  1.0000
  N   N5        1.0  0.18401  0.59387  0.30748000000000003  1.0000
  N   N6        1.0  0.30388  0.41552  0.36483  1.0000
  N   N7        1.0  0.85704  0.91034  0.21114000000000002  1.0000
  N   N8        1.0  0.6840099999999998  0.90613  0.19252  1.0000
  N   N9        1.0  0.8038799999999999  0.08448  0.13516  1.0000
  N   N10       1.0  0.64296  0.08966  0.71114  1.0000
  N   N11       1.0  0.81599  0.09387  0.69252  1.0000
  N   N12       1.0  0.69613  0.9155200000000001  0.63517  1.0000
  N   N13       1.0  0.85704  0.58967  0.21114000000000002  1.0000
  N   N14       1.0  0.6840099999999998  0.59387  0.19252  1.0000
  N   N15       1.0  0.8038799999999999  0.41552  0.13516  1.0000
  N   N16       1.0  0.64296  0.41034000000000004  0.71114  1.0000
  N   N17       1.0  0.81599  0.40613  0.69252  1.0000
  N   N18       1.0  0.69613  0.58448  0.63516  1.0000
  N   N19       1.0  0.14296  0.08967  0.78886  1.0000
  N   N20       1.0  0.3159899999999999  0.09387  0.80748  1.0000
  N   N21       1.0  0.19612  0.9155200000000001  0.86483  1.0000
  N   N22       1.0  0.35704  0.91034  0.28886  1.0000
  N   N23       1.0  0.18401  0.90613  0.30748000000000003  1.0000
  N   N24       1.0  0.30388  0.08448  0.36483  1.0000
  N   N25       1.0  0.3449099999999999  0.75  0.14438  1.0000
  N   N26       1.0  0.16874  0.75  0.15706  1.0000
  N   N27       1.0  0.21149  0.75  0.03563000000000001  1.0000
  N   N28       1.0  0.15509  0.25  0.64438  1.0000
  N   N29       1.0  0.33126  0.25  0.65706  1.0000
  N   N30       1.0  0.28851  0.25  0.53563  1.0000
  N   N31       1.0  0.6550899999999997  0.25  0.85562  1.0000
  N   N32       1.0  0.83126  0.25  0.84294  1.0000
  N   N33       1.0  0.78851  0.25  0.96437  1.0000
  N   N34       1.0  0.84491  0.75  0.35562  1.0000
  N   N35       1.0  0.6687399999999998  0.75  0.3429400000000001  1.0000
  N   N36       1.0  0.7114899999999997  0.75  0.46437000000000006  1.0000
