data_image0
_chemical_formula_structural       Ag2H16C40S8N8
_chemical_formula_sum              "Ag2 H16 C40 S8 N8"
_cell_length_a       5.00906
_cell_length_b       16.41531
_cell_length_c       16.41025
_cell_angle_alpha    90.00093
_cell_angle_beta     89.99627
_cell_angle_gamma    90.0014

_symmetry_space_group_name_H-M    'P 1'
_symmetry_Int_Tables_number       1

loop_
  _symmetry_equiv_pos_as_xyz
  'x,y,z'

loop_
  _atom_site_type_symbol
  _atom_site_label
  _atom_site_symmetry_multiplicity
  _atom_site_fract_x
  _atom_site_fract_y
  _atom_site_fract_z
  _atom_site_occupancy
  Ag  Ag1       1.0  0.50018  0.24999  0.74996  1.0000
  Ag  Ag2       1.0  0.4998000000000001  0.75001  0.25004  1.0000
  H   H1        1.0  0.11114  0.2895  0.4534600000000001  1.0000
  H   H2        1.0  0.4583900000000001  0.39396  0.39352  1.0000
  H   H3        1.0  0.11114  0.21049  0.04655  1.0000
  H   H4        1.0  0.45835000000000004  0.10605  0.10648000000000003  1.0000
  H   H5        1.0  0.11119  0.04662  0.2894500000000001  1.0000
  H   H6        1.0  0.45843  0.10649  0.39398  1.0000
  H   H7        1.0  0.11106000000000002  0.45331  0.21061  1.0000
  H   H8        1.0  0.45849  0.39356  0.10603  1.0000
  H   H9        1.0  0.88885  0.7105  0.54655  1.0000
  H   H10       1.0  0.5416  0.60604  0.60648  1.0000
  H   H11       1.0  0.8888600000000001  0.78952  0.9534500000000002  1.0000
  H   H12       1.0  0.54166  0.89395  0.8935200000000002  1.0000
  H   H13       1.0  0.88881  0.95339  0.71055  1.0000
  H   H14       1.0  0.54158  0.89351  0.60603  1.0000
  H   H15       1.0  0.8889599999999999  0.54669  0.7894000000000002  1.0000
  H   H16       1.0  0.54153  0.60644  0.8939700000000003  1.0000
  C   C1        1.0  0.10031999999999999  0.36348  0.56339  1.0000
  C   C2        1.0  0.19075  0.34195  0.48536  1.0000
  C   C3        1.0  0.36654  0.39909  0.4531600000000001  1.0000
  C   C4        1.0  0.41636  0.46544  0.50606  1.0000
  C   C5        1.0  0.8960400000000001  0.32412  0.6063800000000003  1.0000
  C   C6        1.0  0.10034999999999998  0.1365  0.9366100000000003  1.0000
  C   C7        1.0  0.19073  0.15803  0.01463  1.0000
  C   C8        1.0  0.36652  0.10091  0.04685000000000002  1.0000
  C   C9        1.0  0.41639000000000004  0.03457  0.9939500000000001  1.0000
  C   C10       1.0  0.8961  0.17586  0.8936  1.0000
  C   C11       1.0  0.09998999999999998  0.93667  0.36343  1.0000
  C   C12       1.0  0.19061  0.01467  0.3419100000000001  1.0000
  C   C13       1.0  0.36657  0.04688  0.39906  1.0000
  C   C14       1.0  0.41636  0.9939799999999999  0.46539  1.0000
  C   C15       1.0  0.89717  0.89375  0.32423000000000013  1.0000
  C   C16       1.0  0.10037  0.56341  0.13667  1.0000
  C   C17       1.0  0.19069  0.48533  0.15817  1.0000
  C   C18       1.0  0.36638  0.45312  0.10092000000000001  1.0000
  C   C19       1.0  0.41618000000000005  0.5059999999999999  0.03459  1.0000
  C   C20       1.0  0.89645  0.60624  0.17564  1.0000
  C   C21       1.0  0.8997100000000001  0.6365199999999999  0.4366200000000001  1.0000
  C   C22       1.0  0.80926  0.65805  0.51464  1.0000
  C   C23       1.0  0.63346  0.60091  0.5468400000000002  1.0000
  C   C24       1.0  0.58364  0.53457  0.49394  1.0000
  C   C25       1.0  0.10389  0.67588  0.3936300000000001  1.0000
  C   C26       1.0  0.89959  0.8635  0.06339  1.0000
  C   C27       1.0  0.8092500000000001  0.84197  0.9853700000000001  1.0000
  C   C28       1.0  0.63348  0.8990899999999998  0.95316  1.0000
  C   C29       1.0  0.58361  0.96544  0.0060500000000000016  1.0000
  C   C30       1.0  0.10409  0.82411  0.10644  1.0000
  C   C31       1.0  0.90008  0.06335  0.63658  1.0000
  C   C32       1.0  0.8094099999999999  0.9853399999999999  0.6580900000000002  1.0000
  C   C33       1.0  0.63343  0.95312  0.60094  1.0000
  C   C34       1.0  0.58363  0.00602  0.53461  1.0000
  C   C35       1.0  0.10254  0.1062  0.67571  1.0000
  C   C36       1.0  0.89961  0.43658  0.86334  1.0000
  C   C37       1.0  0.8093  0.51467  0.8418300000000002  1.0000
  C   C38       1.0  0.63361  0.54688  0.8990900000000002  1.0000
  C   C39       1.0  0.58383  0.49399  0.9654200000000002  1.0000
  C   C40       1.0  0.10362  0.39375  0.8243700000000003  1.0000
  S   S1        1.0  0.24169999999999997  0.45433  0.59652  1.0000
  S   S2        1.0  0.24177  0.045659999999999985  0.9034900000000002  1.0000
  S   S3        1.0  0.24181  0.90356  0.45434000000000013  1.0000
  S   S4        1.0  0.24177999999999997  0.59643  0.045730000000000014  1.0000
  S   S5        1.0  0.7583  0.54567  0.4034900000000001  1.0000
  S   S6        1.0  0.75823  0.95434  0.09651000000000003  1.0000
  S   S7        1.0  0.75819  0.09644999999999997  0.5456600000000003  1.0000
  S   S8        1.0  0.75823  0.4035699999999999  0.95427  1.0000
  N   N1        1.0  0.72134  0.2864  0.6361000000000002  1.0000
  N   N2        1.0  0.72146  0.21357999999999994  0.86387  1.0000
  N   N3        1.0  0.72091  0.86363  0.28638  1.0000
  N   N4        1.0  0.72084  0.63637  0.21352000000000004  1.0000
  N   N5        1.0  0.2787  0.71362  0.3638900000000001  1.0000
  N   N6        1.0  0.27842  0.78646  0.1361  1.0000
  N   N7        1.0  0.27932  0.13641  0.7136900000000003  1.0000
  N   N8        1.0  0.27911  0.36366  0.78647  1.0000
