data_image0
_chemical_formula_structural       Sm2H18C24O12
_chemical_formula_sum              "Sm2 H18 C24 O12"
_cell_length_a       6.98044
_cell_length_b       10.70707
_cell_length_c       11.366219999999998
_cell_angle_alpha    69.56212
_cell_angle_beta     75.63602
_cell_angle_gamma    83.04723

_symmetry_space_group_name_H-M    'P 1'
_symmetry_Int_Tables_number       1

loop_
  _symmetry_equiv_pos_as_xyz
  'x,y,z'

loop_
  _atom_site_type_symbol
  _atom_site_label
  _atom_site_symmetry_multiplicity
  _atom_site_fract_x
  _atom_site_fract_y
  _atom_site_fract_z
  _atom_site_occupancy
  Sm  Sm1       1.0  0.7633300000000002  0.9088599999999999  0.04594  1.0000
  Sm  Sm2       1.0  0.25438  0.09385000000000002  0.9485499999999999  1.0000
  H   H1        1.0  0.7572899999999999  0.9453900000000001  0.5058  1.0000
  H   H2        1.0  0.17085000000000003  0.6195000000000002  0.47818  1.0000
  H   H3        1.0  0.69762  0.56998  0.8140099999999999  1.0000
  H   H4        1.0  0.43121000000000004  0.7496700000000001  0.8065  1.0000
  H   H5        1.0  0.47284000000000004  0.90962  0.6934  1.0000
  H   H6        1.0  0.10224999999999997  0.9748900000000001  0.34698  1.0000
  H   H7        1.0  0.22186000000000006  0.8312799999999999  0.31328  1.0000
  H   H8        1.0  0.09704000000000003  0.39382999999999996  0.64015  1.0000
  H   H9        1.0  0.9043300000000002  0.37326000000000004  0.7773099999999998  1.0000
  H   H10       1.0  0.2671400000000001  0.05306999999999998  0.48938  1.0000
  H   H11       1.0  0.84417  0.37378  0.51904  1.0000
  H   H12       1.0  0.31201999999999996  0.42805  0.18003  1.0000
  H   H13       1.0  0.5858999999999999  0.25326  0.18828  1.0000
  H   H14       1.0  0.55088  0.09319  0.30051  1.0000
  H   H15       1.0  0.91956  0.020530000000000027  0.64994  1.0000
  H   H16       1.0  0.7977200000000003  0.16509000000000001  0.68152  1.0000
  H   H17       1.0  0.9162600000000001  0.6013  0.35848  1.0000
  H   H18       1.0  0.10139999999999998  0.62253  0.21786999999999998  1.0000
  C   C1        1.0  0.7107600000000002  0.7635499999999998  0.66891  1.0000
  C   C2        1.0  0.8081700000000002  0.8425099999999999  0.54694  1.0000
  C   C3        1.0  0.9722400000000001  0.79084  0.4762  1.0000
  C   C4        1.0  0.04063000000000002  0.6597  0.53097  1.0000
  C   C5        1.0  0.94369  0.57867  0.65316  1.0000
  C   C6        1.0  0.77746  0.63133  0.72017  1.0000
  C   C7        1.0  0.5482299999999999  0.8217700000000001  0.75107  1.0000
  C   C8        1.0  0.6257200000000003  0.86014  0.84717  1.0000
  C   C9        1.0  0.07691000000000002  0.87637  0.34389  1.0000
  C   C10       1.0  0.9664100000000001  0.90811  0.23718  1.0000
  C   C11       1.0  0.023270000000000016  0.43994  0.71292  1.0000
  C   C12       1.0  0.17421000000000003  0.4309000000000001  0.79245  1.0000
  C   C13       1.0  0.30691000000000007  0.2353  0.32641  1.0000
  C   C14       1.0  0.21198000000000014  0.15491  0.44837999999999995  1.0000
  C   C15       1.0  0.04649000000000002  0.20500999999999997  0.51937  1.0000
  C   C16       1.0  0.97465  0.33517999999999987  0.46514  1.0000
  C   C17       1.0  0.06741999999999997  0.41716999999999993  0.34236  1.0000
  C   C18       1.0  0.23568999999999998  0.36651999999999996  0.27502  1.0000
  C   C19       1.0  0.4716100000000002  0.17921  0.24357  1.0000
  C   C20       1.0  0.39548  0.14097  0.14689  1.0000
  C   C21       1.0  0.94281  0.11995  0.65153  1.0000
  C   C22       1.0  0.05436000000000003  0.09169999999999998  0.75684  1.0000
  C   C23       1.0  0.98446  0.5556  0.28434  1.0000
  C   C24       1.0  0.8232199999999998  0.56736  0.21161  1.0000
  O   O1        1.0  0.5026500000000003  0.91918  0.92076  1.0000
  O   O2        1.0  0.8032900000000004  0.83523  0.85857  1.0000
  O   O3        1.0  0.7819800000000002  0.92614  0.2555  1.0000
  O   O4        1.0  0.07028999999999998  0.9178900000000001  0.12031  1.0000
  O   O5        1.0  0.2566500000000001  0.31057000000000007  0.8332699999999998  1.0000
  O   O6        1.0  0.21653000000000003  0.5265700000000001  0.8162799999999999  1.0000
  O   O7        1.0  0.5174300000000001  0.08257  0.07222  1.0000
  O   O8        1.0  0.21778000000000003  0.16684000000000002  0.13484  1.0000
  O   O9        1.0  0.23932000000000012  0.07640000000000002  0.7370399999999999  1.0000
  O   O10       1.0  0.9513599999999999  0.08261000000000002  0.87351  1.0000
  O   O11       1.0  0.7584500000000001  0.69085  0.16042999999999996  1.0000
  O   O12       1.0  0.7549  0.46987  0.20405  1.0000
