data_image0
_chemical_formula_structural       H16Pb4C32O16
_chemical_formula_sum              "H16 Pb4 C32 O16"
_cell_length_a       6.81243
_cell_length_b       11.56307
_cell_length_c       16.86842
_cell_angle_alpha    92.46253
_cell_angle_beta     89.98368999999998
_cell_angle_gamma    89.96237

_symmetry_space_group_name_H-M    'P 1'
_symmetry_Int_Tables_number       1

loop_
  _symmetry_equiv_pos_as_xyz
  'x,y,z'

loop_
  _atom_site_type_symbol
  _atom_site_label
  _atom_site_symmetry_multiplicity
  _atom_site_fract_x
  _atom_site_fract_y
  _atom_site_fract_z
  _atom_site_occupancy
  H   H1        1.0  0.28522  0.13199  0.02258  1.0000
  H   H2        1.0  0.72842  0.001490000000000001  0.09857000000000003  1.0000
  H   H3        1.0  0.33761  0.39143  0.10607  1.0000
  H   H4        1.0  0.85739  0.54409  0.00949  1.0000
  H   H5        1.0  0.78656  0.36767  0.48046  1.0000
  H   H6        1.0  0.23004  0.49431  0.40109  1.0000
  H   H7        1.0  0.84157  0.10807  0.39284  1.0000
  H   H8        1.0  0.3575  0.9541999999999999  0.4924  1.0000
  H   H9        1.0  0.7148  0.86801  0.97742  1.0000
  H   H10       1.0  0.27159  0.99851  0.90143  1.0000
  H   H11       1.0  0.6623999999999999  0.60857  0.89393  1.0000
  H   H12       1.0  0.14263  0.45591  0.9905100000000001  1.0000
  H   H13       1.0  0.21346  0.63233  0.5195400000000002  1.0000
  H   H14       1.0  0.76998  0.50569  0.59891  1.0000
  H   H15       1.0  0.15845000000000004  0.89193  0.60716  1.0000
  H   H16       1.0  0.64252  0.045799999999999993  0.5076  1.0000
  Pb  Pb1       1.0  0.96267  0.34075000000000005  0.25818000000000013  1.0000
  Pb  Pb2       1.0  0.46367  0.15756  0.24154000000000003  1.0000
  Pb  Pb3       1.0  0.03735  0.65925  0.74182  1.0000
  Pb  Pb4       1.0  0.53635  0.84245  0.75846  1.0000
  C   C1        1.0  0.01362  0.15647999999999998  0.13806000000000002  1.0000
  C   C2        1.0  0.00835  0.07359  0.06793  1.0000
  C   C3        1.0  0.1622  0.07327  0.01246  1.0000
  C   C4        1.0  0.84629  0.00019999999999999993  0.05509  1.0000
  C   C5        1.0  0.72648  0.42349  0.13248  1.0000
  C   C6        1.0  0.60931  0.46336  0.06432  1.0000
  C   C7        1.0  0.40715  0.43889999999999996  0.05948  1.0000
  C   C8        1.0  0.70119  0.52515  0.00485  1.0000
  C   C9        1.0  0.51655  0.34128  0.3628500000000001  1.0000
  C   C10       1.0  0.50991  0.42413  0.4331100000000001  1.0000
  C   C11       1.0  0.66283  0.42642  0.48898  1.0000
  C   C12       1.0  0.34732  0.4976299999999999  0.4447600000000001  1.0000
  C   C13       1.0  0.22942  0.07409  0.36757  1.0000
  C   C14       1.0  0.11124999999999999  0.03523  0.4357800000000001  1.0000
  C   C15       1.0  0.9092  0.06067  0.4399  1.0000
  C   C16       1.0  0.20128  0.9739  0.49593999999999994  1.0000
  C   C17       1.0  0.98639  0.84352  0.8619400000000003  1.0000
  C   C18       1.0  0.99166  0.9264099999999998  0.93207  1.0000
  C   C19       1.0  0.8378099999999999  0.9267299999999999  0.98754  1.0000
  C   C20       1.0  0.15372  0.9998099999999999  0.94491  1.0000
  C   C21       1.0  0.27354  0.57651  0.86752  1.0000
  C   C22       1.0  0.39071  0.53664  0.9356800000000002  1.0000
  C   C23       1.0  0.59286  0.5611  0.94052  1.0000
  C   C24       1.0  0.29882  0.47486  0.99515  1.0000
  C   C25       1.0  0.48347  0.65872  0.63715  1.0000
  C   C26       1.0  0.4901  0.57587  0.56689  1.0000
  C   C27       1.0  0.33719  0.57358  0.51102  1.0000
  C   C28       1.0  0.65269  0.50237  0.5552400000000001  1.0000
  C   C29       1.0  0.7705999999999998  0.92591  0.63243  1.0000
  C   C30       1.0  0.8887700000000001  0.9647699999999999  0.56422  1.0000
  C   C31       1.0  0.09082  0.93933  0.5601  1.0000
  C   C32       1.0  0.79874  0.0261  0.50406  1.0000
  O   O1        1.0  0.85617  0.17517  0.17793  1.0000
  O   O2        1.0  0.17131  0.21292  0.15456  1.0000
  O   O3        1.0  0.63831  0.3785299999999999  0.19107  1.0000
  O   O4        1.0  0.91355  0.43515999999999994  0.13149000000000005  1.0000
  O   O5        1.0  0.35984  0.32405  0.3223200000000001  1.0000
  O   O6        1.0  0.67451  0.2848300000000001  0.3462800000000001  1.0000
  O   O7        1.0  0.14193  0.11933  0.3088500000000001  1.0000
  O   O8        1.0  0.41629999999999995  0.06165  0.36845  1.0000
  O   O9        1.0  0.14385  0.8248299999999998  0.82207  1.0000
  O   O10       1.0  0.8287  0.78708  0.8454400000000002  1.0000
  O   O11       1.0  0.36171  0.62147  0.80893  1.0000
  O   O12       1.0  0.08645999999999998  0.56484  0.86851  1.0000
  O   O13       1.0  0.64018  0.67595  0.67768  1.0000
  O   O14       1.0  0.32551  0.71517  0.65372  1.0000
  O   O15       1.0  0.85809  0.8806700000000001  0.6911500000000003  1.0000
  O   O16       1.0  0.58371  0.93835  0.63155  1.0000
