data_image0
_chemical_formula_structural       Zn8H12C36O26
_chemical_formula_sum              "Zn8 H12 C36 O26"
_cell_length_a       10.63993
_cell_length_b       10.6399
_cell_length_c       16.03267
_cell_angle_alpha    90.0
_cell_angle_beta     90.0
_cell_angle_gamma    106.30563

_symmetry_space_group_name_H-M    'P 1'
_symmetry_Int_Tables_number       1

loop_
  _symmetry_equiv_pos_as_xyz
  'x,y,z'

loop_
  _atom_site_type_symbol
  _atom_site_label
  _atom_site_symmetry_multiplicity
  _atom_site_fract_x
  _atom_site_fract_y
  _atom_site_fract_z
  _atom_site_occupancy
  Zn  Zn1       1.0  0.23519000000000004  0.12366  0.08213999999999998  1.0000
  Zn  Zn2       1.0  0.22032  0.40908000000000005  0.05622  1.0000
  Zn  Zn3       1.0  0.76481  0.8763400000000001  0.5821399999999998  1.0000
  Zn  Zn4       1.0  0.7796800000000003  0.59092  0.55622  1.0000
  Zn  Zn5       1.0  0.87635  0.76481  0.41785  1.0000
  Zn  Zn6       1.0  0.5909200000000001  0.77968  0.44378  1.0000
  Zn  Zn7       1.0  0.12366000000000002  0.23519000000000004  0.91785  1.0000
  Zn  Zn8       1.0  0.40908  0.22032  0.94377  1.0000
  H   H1        1.0  0.07441000000000003  0.51414  0.28902  1.0000
  H   H2        1.0  0.8223800000000001  0.24649  0.4607999999999999  1.0000
  H   H3        1.0  0.07905000000000002  0.11074  0.29886  1.0000
  H   H4        1.0  0.92559  0.48585  0.78902  1.0000
  H   H5        1.0  0.17762  0.7535  0.9608  1.0000
  H   H6        1.0  0.92096  0.88926  0.79886  1.0000
  H   H7        1.0  0.48585000000000006  0.92559  0.21098  1.0000
  H   H8        1.0  0.7535000000000001  0.17761  0.039199999999999985  1.0000
  H   H9        1.0  0.88927  0.9209500000000002  0.20114  1.0000
  H   H10       1.0  0.51415  0.07441  0.7109699999999998  1.0000
  H   H11       1.0  0.24650000000000002  0.82238  0.53919  1.0000
  H   H12       1.0  0.11074  0.07904  0.70114  1.0000
  C   C1        1.0  0.08757  0.31438  0.28696  1.0000
  C   C2        1.0  0.040030000000000024  0.41686  0.31623  1.0000
  C   C3        1.0  0.94687  0.39302000000000004  0.38051  1.0000
  C   C4        1.0  0.8974  0.26611  0.41275  1.0000
  C   C5        1.0  0.9442700000000002  0.16429  0.3835199999999999  1.0000
  C   C6        1.0  0.04151000000000001  0.18929  0.32186  1.0000
  C   C7        1.0  0.17675000000000002  0.33135  0.21313999999999994  1.0000
  C   C8        1.0  0.89857  0.50032  0.4161  1.0000
  C   C9        1.0  0.8896  0.028210000000000002  0.41616  1.0000
  C   C10       1.0  0.9124300000000001  0.68561  0.78696  1.0000
  C   C11       1.0  0.95998  0.58314  0.81623  1.0000
  C   C12       1.0  0.05313000000000003  0.6069800000000001  0.8804999999999997  1.0000
  C   C13       1.0  0.10261  0.73388  0.91274  1.0000
  C   C14       1.0  0.05573  0.8357  0.88352  1.0000
  C   C15       1.0  0.9584900000000001  0.8107100000000002  0.8218599999999998  1.0000
  C   C16       1.0  0.82325  0.66865  0.7131399999999998  1.0000
  C   C17       1.0  0.10143000000000003  0.49967000000000006  0.9161  1.0000
  C   C18       1.0  0.11040000000000001  0.97179  0.91616  1.0000
  C   C19       1.0  0.6856100000000002  0.9124300000000001  0.21304  1.0000
  C   C20       1.0  0.5831400000000001  0.9599700000000001  0.18376  1.0000
  C   C21       1.0  0.60697  0.05312  0.11949  1.0000
  C   C22       1.0  0.7338900000000003  0.10261  0.08725  1.0000
  C   C23       1.0  0.8357100000000001  0.05573000000000001  0.11648  1.0000
  C   C24       1.0  0.8107100000000002  0.95849  0.17814  1.0000
  C   C25       1.0  0.66865  0.82325  0.28685  1.0000
  C   C26       1.0  0.4996900000000001  0.10143  0.08389  1.0000
  C   C27       1.0  0.97179  0.11041000000000001  0.08383  1.0000
  C   C28       1.0  0.31439000000000006  0.08757  0.7130399999999998  1.0000
  C   C29       1.0  0.41686  0.04002  0.68376  1.0000
  C   C30       1.0  0.3930300000000001  0.94687  0.61949  1.0000
  C   C31       1.0  0.2661100000000001  0.8973900000000001  0.5872499999999998  1.0000
  C   C32       1.0  0.16429000000000002  0.94427  0.6164799999999998  1.0000
  C   C33       1.0  0.18929  0.04151  0.67814  1.0000
  C   C34       1.0  0.33135  0.17675  0.78685  1.0000
  C   C35       1.0  0.50031  0.89856  0.5838899999999998  1.0000
  C   C36       1.0  0.02820999999999999  0.88959  0.58383  1.0000
  O   O1        1.0  0.23012  0.24366  0.19357  1.0000
  O   O2        1.0  0.18787  0.43794  0.1701  1.0000
  O   O3        1.0  0.9370200000000001  0.6138  0.3832399999999999  1.0000
  O   O4        1.0  0.821  0.46852  0.47904999999999986  1.0000
  O   O5        1.0  0.95736  0.9493  0.39733  1.0000
  O   O6        1.0  0.7830600000000002  0.9989300000000001  0.45754  1.0000
  O   O7        1.0  0.7698900000000001  0.75634  0.6935699999999998  1.0000
  O   O8        1.0  0.81213  0.56206  0.6700999999999998  1.0000
  O   O9        1.0  0.06298000000000002  0.38619  0.88324  1.0000
  O   O10       1.0  0.17900000000000005  0.5314700000000001  0.97905  1.0000
  O   O11       1.0  0.042640000000000004  0.05069  0.89733  1.0000
  O   O12       1.0  0.21694000000000002  0.00107  0.9575399999999997  1.0000
  O   O13       1.0  0.75634  0.76988  0.3064199999999999  1.0000
  O   O14       1.0  0.5620500000000002  0.81212  0.3299  1.0000
  O   O15       1.0  0.38619  0.06297  0.11676  1.0000
  O   O16       1.0  0.53147  0.179  0.02094  1.0000
  O   O17       1.0  0.05069  0.04263  0.10266  1.0000
  O   O18       1.0  0.0010699999999999993  0.21694  0.04246  1.0000
  O   O19       1.0  0.24366000000000004  0.23011  0.80642  1.0000
  O   O20       1.0  0.4379500000000001  0.18787  0.8299  1.0000
  O   O21       1.0  0.61381  0.93702  0.61676  1.0000
  O   O22       1.0  0.4685300000000001  0.8210000000000001  0.52094  1.0000
  O   O23       1.0  0.9493100000000001  0.95736  0.60266  1.0000
  O   O24       1.0  0.99893  0.78305  0.54246  1.0000
  O   O25       1.0  0.27622  0.27622  0.0  1.0000
  O   O26       1.0  0.72378  0.72378  0.5  1.0000
