data_image0
_chemical_formula_structural       Cu2H4C16N8O4F4
_chemical_formula_sum              "Cu2 H4 C16 N8 O4 F4"
_cell_length_a       7.51087
_cell_length_b       9.14033
_cell_length_c       12.21649
_cell_angle_alpha    112.01652
_cell_angle_beta     107.45509
_cell_angle_gamma    90.05911

_space_group_name_H-M_alt    "P 1"
_space_group_IT_number       1

loop_
  _space_group_symop_operation_xyz
  'x, y, z'

loop_
  _atom_site_type_symbol
  _atom_site_label
  _atom_site_symmetry_multiplicity
  _atom_site_fract_x
  _atom_site_fract_y
  _atom_site_fract_z
  _atom_site_occupancy
  Cu  Cu1       1.0  0.90111  0.90383  0.8035  1.0000
  Cu  Cu2       1.0  0.40151  0.9038499999999999  0.80379  1.0000
  H   H1        1.0  0.21817  0.45191  0.35845  1.0000
  H   H2        1.0  0.14086999999999997  0.90711  0.35935  1.0000
  H   H3        1.0  0.7165599999999999  0.9071300000000001  0.35812  1.0000
  H   H4        1.0  0.64423  0.45417  0.36313  1.0000
  C   C1        1.0  0.001569999999999998  0.31482999999999994  0.18597  1.0000
  C   C2        1.0  0.06820999999999997  0.41326999999999997  0.31186  1.0000
  C   C3        1.0  0.18476  0.87264  0.18616  1.0000
  C   C4        1.0  0.24381  0.8985299999999999  0.31169  1.0000
  C   C5        1.0  0.50207  0.8725  0.18502  1.0000
  C   C6        1.0  0.56695  0.89851  0.31057  1.0000
  C   C7        1.0  0.68514  0.31511999999999996  0.18856  1.0000
  C   C8        1.0  0.74568  0.4140499999999999  0.31437  1.0000
  C   C9        1.0  0.80862  0.25915999999999995  0.11845  1.0000
  C   C10       1.0  0.00383999999999999  0.5774799999999999  0.50619  1.0000
  C   C11       1.0  0.7426599999999997  0.13784999999999997  0.9869099999999998  1.0000
  C   C12       1.0  0.93896  0.4635199999999998  0.37651999999999997  1.0000
  C   C13       1.0  0.3093  0.86008  0.117  1.0000
  C   C14       1.0  0.5015  0.92753  0.50421  1.0000
  C   C15       1.0  0.24442000000000005  0.85207  0.98627  1.0000
  C   C16       1.0  0.43682  0.9115299999999998  0.37447  1.0000
  N   N1        1.0  0.99842  0.75257  0.677  1.0000
  N   N2        1.0  0.88704  0.64313  0.57152  1.0000
  N   N3        1.0  0.6769399999999998  0.9256599999999999  0.67519  1.0000
  N   N4        1.0  0.68281  0.9271699999999999  0.56849  1.0000
  N   N5        1.0  0.49765  0.9263199999999999  0.67612  1.0000
  N   N6        1.0  0.38544  0.92851  0.5703  1.0000
  N   N7        1.0  0.17802  0.7524599999999998  0.67671  1.0000
  N   N8        1.0  0.18489000000000003  0.64301  0.57073  1.0000
  O   O1        1.0  0.56676  0.09040999999999999  0.93813  1.0000
  O   O2        1.0  0.3726399999999999  0.8504899999999999  0.9373299999999999  1.0000
  O   O3        1.0  0.06877999999999992  0.85191  0.9376199999999999  1.0000
  O   O4        1.0  0.86965  0.09027000000000003  0.93685  1.0000
  F   F1        1.0  0.13177  0.27322  0.12785  1.0000
  F   F2        1.0  0.99783  0.85965  0.13024  1.0000
  F   F3        1.0  0.63308  0.8594  0.12789  1.0000
  F   F4        1.0  0.49822  0.27356  0.1331  1.0000
