data_image0
_chemical_formula_structural       Tb4H12C36O24
_chemical_formula_sum              "Tb4 H12 C36 O24"
_cell_length_a       10.40669
_cell_length_b       10.401069999999999
_cell_length_c       14.204509999999999
_cell_angle_alpha    90.04527
_cell_angle_beta     89.95025
_cell_angle_gamma    90.00045

_symmetry_space_group_name_H-M    'P 1'
_symmetry_Int_Tables_number       1

loop_
  _symmetry_equiv_pos_as_xyz
  'x,y,z'

loop_
  _atom_site_type_symbol
  _atom_site_label
  _atom_site_symmetry_multiplicity
  _atom_site_fract_x
  _atom_site_fract_y
  _atom_site_fract_z
  _atom_site_occupancy
  Tb  Tb1       1.0  0.87017  0.8679200000000001  0.37583  1.0000
  Tb  Tb2       1.0  0.13301  0.13295  0.87436  1.0000
  Tb  Tb3       1.0  0.1331  0.86813  0.6257699999999999  1.0000
  Tb  Tb4       1.0  0.8703000000000001  0.13276  0.12546  1.0000
  H   H1        1.0  0.9225399999999999  0.46275  0.36035  1.0000
  H   H2        1.0  0.0785  0.53921  0.85881  1.0000
  H   H3        1.0  0.5387  0.92176  0.61008  1.0000
  H   H4        1.0  0.46401999999999993  0.07813  0.10946  1.0000
  H   H5        1.0  0.07859  0.46131  0.64144  1.0000
  H   H6        1.0  0.92266  0.53814  0.14025  1.0000
  H   H7        1.0  0.46376  0.92157  0.39041  1.0000
  H   H8        1.0  0.53862  0.07925  0.8909899999999998  1.0000
  H   H9        1.0  0.00037  0.10387  0.49995  1.0000
  H   H10       1.0  0.00035  0.89679  0.00040999999999999994  1.0000
  H   H11       1.0  0.8964800000000002  0.99989  0.75054  1.0000
  H   H12       1.0  0.106  0.99985  0.24996999999999994  1.0000
  C   C1        1.0  0.9563499999999999  0.40976  0.42154  1.0000
  C   C2        1.0  0.9575  0.27504  0.42081999999999997  1.0000
  C   C3        1.0  0.9178  0.20117000000000002  0.33578  1.0000
  C   C4        1.0  0.04436  0.59141  0.92036  1.0000
  C   C5        1.0  0.04323  0.72611  0.92032  1.0000
  C   C6        1.0  0.08452  0.79955  0.83563  1.0000
  C   C7        1.0  0.59112  0.9558500000000001  0.67145  1.0000
  C   C8        1.0  0.72572  0.9563300000000001  0.6712899999999998  1.0000
  C   C9        1.0  0.79973  0.91526  0.58679  1.0000
  C   C10       1.0  0.4114399999999999  0.04409  0.17078999999999994  1.0000
  C   C11       1.0  0.27686  0.04332  0.17056  1.0000
  C   C12       1.0  0.20274  0.08475  0.08624  1.0000
  C   C13       1.0  0.04451  0.40912  0.57994  1.0000
  C   C14       1.0  0.04331  0.27449  0.57986  1.0000
  C   C15       1.0  0.08431  0.20101  0.6644599999999998  1.0000
  C   C16       1.0  0.95639  0.5909500000000001  0.07892  1.0000
  C   C17       1.0  0.9576600000000001  0.72562  0.0796  1.0000
  C   C18       1.0  0.9176500000000001  0.79939  0.16468  1.0000
  C   C19       1.0  0.41128  0.95559  0.3291  1.0000
  C   C20       1.0  0.27672  0.95638  0.32928  1.0000
  C   C21       1.0  0.20257999999999998  0.91518  0.41365  1.0000
  C   C22       1.0  0.59115  0.04495  0.82967  1.0000
  C   C23       1.0  0.7257  0.0436  0.8299  1.0000
  C   C24       1.0  0.79984  0.08482  0.91422  1.0000
  C   C25       1.0  0.0005500000000000002  0.47655000000000003  0.50095  1.0000
  C   C26       1.0  0.00034  0.2082  0.50023  1.0000
  C   C27       1.0  0.00136  0.62026  0.5013  1.0000
  C   C28       1.0  0.0005  0.52399  0.9995  1.0000
  C   C29       1.0  0.00043  0.79246  7.999999999999998e-05  1.0000
  C   C30       1.0  0.00164  0.38016  0.99965  1.0000
  C   C31       1.0  0.52405  0.00089  0.75049  1.0000
  C   C32       1.0  0.79223  0.99991  0.75056  1.0000
  C   C33       1.0  0.38048  0.00226  0.75006  1.0000
  C   C34       1.0  0.47848  0.9997800000000001  0.24993999999999997  1.0000
  C   C35       1.0  0.21026  0.99983  0.24992  1.0000
  C   C36       1.0  0.62213  0.99991  0.25005  1.0000
  O   O1        1.0  0.9208500000000001  0.6761600000000001  0.44745  1.0000
  O   O2        1.0  0.9032199999999999  0.07933  0.3428  1.0000
  O   O3        1.0  0.74096  0.90279  0.50862  1.0000
  O   O4        1.0  0.08442  0.32472  0.94718  1.0000
  O   O5        1.0  0.10303  0.92088  0.84293  1.0000
  O   O6        1.0  0.26031  0.097  0.00758  1.0000
  O   O7        1.0  0.32469  0.9217900000000001  0.69592  1.0000
  O   O8        1.0  0.92105  0.8973  0.59477  1.0000
  O   O9        1.0  0.09732  0.74015  0.7575899999999999  1.0000
  O   O10       1.0  0.67774  0.07960000000000002  0.19532  1.0000
  O   O11       1.0  0.0818  0.10353  0.09508  1.0000
  O   O12       1.0  0.9030499999999999  0.26033  0.25791  1.0000
  O   O13       1.0  0.08252  0.67547  0.55522  1.0000
  O   O14       1.0  0.10245  0.0797  0.65704  1.0000
  O   O15       1.0  0.26025  0.90284  0.4922  1.0000
  O   O16       1.0  0.92004  0.32409000000000004  0.05263  1.0000
  O   O17       1.0  0.90273  0.9211100000000001  0.1573  1.0000
  O   O18       1.0  0.74149  0.09715000000000001  0.99265  1.0000
  O   O19       1.0  0.67792  0.92048  0.30487  1.0000
  O   O20       1.0  0.08159  0.89669  0.40506  1.0000
  O   O21       1.0  0.90314  0.74026  0.24262999999999996  1.0000
  O   O22       1.0  0.32492  0.08385  0.80362  1.0000
  O   O23       1.0  0.9210300000000001  0.10312000000000002  0.9053799999999997  1.0000
  O   O24       1.0  0.09709  0.26022  0.74252  1.0000
