data_image0
_chemical_formula_structural       Ag4H24C40N24O4
_chemical_formula_sum              "Ag4 H24 C40 N24 O4"
_cell_length_a       10.78937
_cell_length_b       10.789369999999998
_cell_length_c       14.22384
_cell_angle_alpha    90.0
_cell_angle_beta     90.0
_cell_angle_gamma    89.9982

_symmetry_space_group_name_H-M    'P 1'
_symmetry_Int_Tables_number       1

loop_
  _symmetry_equiv_pos_as_xyz
  'x,y,z'

loop_
  _atom_site_type_symbol
  _atom_site_label
  _atom_site_symmetry_multiplicity
  _atom_site_fract_x
  _atom_site_fract_y
  _atom_site_fract_z
  _atom_site_occupancy
  Ag  Ag1       1.0  0.4999999999999999  0.5  0.18435  1.0000
  Ag  Ag2       1.0  0.4999999999999999  0.5  0.81565  1.0000
  Ag  Ag3       1.0  0.0  0.0  0.6844000000000002  1.0000
  Ag  Ag4       1.0  0.0  0.0  0.3156000000000001  1.0000
  H   H1        1.0  0.36416  0.36416  0.6294100000000002  1.0000
  H   H2        1.0  0.31917999999999996  0.31918  0.9169800000000001  1.0000
  H   H3        1.0  0.15537999999999996  0.15538  0.88764  1.0000
  H   H4        1.0  0.63584  0.63584  0.6294100000000002  1.0000
  H   H5        1.0  0.6808199999999999  0.68082  0.9169800000000001  1.0000
  H   H6        1.0  0.8446199999999999  0.84461  0.88764  1.0000
  H   H7        1.0  0.63584  0.63584  0.37059  1.0000
  H   H8        1.0  0.6808199999999999  0.68082  0.08302  1.0000
  H   H9        1.0  0.8446199999999999  0.84461  0.11236000000000003  1.0000
  H   H10       1.0  0.36416  0.36416  0.37059  1.0000
  H   H11       1.0  0.31917999999999996  0.31918  0.08302  1.0000
  H   H12       1.0  0.15537999999999996  0.15538  0.11236000000000003  1.0000
  H   H13       1.0  0.8640099999999998  0.13599  0.12932  1.0000
  H   H14       1.0  0.8190599999999999  0.18094  0.41699000000000014  1.0000
  H   H15       1.0  0.6552799999999999  0.34472  0.38761  1.0000
  H   H16       1.0  0.13599  0.86401  0.12932  1.0000
  H   H17       1.0  0.18094  0.8190600000000001  0.41699000000000014  1.0000
  H   H18       1.0  0.34471999999999997  0.65528  0.38761  1.0000
  H   H19       1.0  0.13599  0.86401  0.87068  1.0000
  H   H20       1.0  0.18094  0.8190600000000001  0.58301  1.0000
  H   H21       1.0  0.34471999999999997  0.65528  0.6123900000000002  1.0000
  H   H22       1.0  0.8640099999999998  0.13599  0.87068  1.0000
  H   H23       1.0  0.8190599999999999  0.18094  0.58301  1.0000
  H   H24       1.0  0.6552799999999999  0.34472  0.6123900000000002  1.0000
  C   C1        1.0  0.19274999999999998  0.19275000000000003  0.5763900000000001  1.0000
  C   C2        1.0  0.22629999999999997  0.2263  0.66994  1.0000
  C   C3        1.0  0.31764999999999993  0.31765  0.68746  1.0000
  C   C4        1.0  0.29172999999999993  0.29173  0.8464800000000002  1.0000
  C   C5        1.0  0.20174999999999998  0.20175  0.82921  1.0000
  C   C6        1.0  0.8072499999999999  0.80725  0.5763900000000001  1.0000
  C   C7        1.0  0.7737  0.7737  0.66994  1.0000
  C   C8        1.0  0.6823499999999999  0.68235  0.68746  1.0000
  C   C9        1.0  0.7082699999999998  0.70827  0.8464800000000002  1.0000
  C   C10       1.0  0.79825  0.7982500000000001  0.82921  1.0000
  C   C11       1.0  0.8072499999999999  0.80725  0.42362000000000005  1.0000
  C   C12       1.0  0.7737  0.7737  0.33006  1.0000
  C   C13       1.0  0.6823499999999999  0.68235  0.3125400000000001  1.0000
  C   C14       1.0  0.7082699999999998  0.70827  0.15352000000000002  1.0000
  C   C15       1.0  0.79825  0.7982500000000001  0.17079  1.0000
  C   C16       1.0  0.19274999999999998  0.19275000000000003  0.42362000000000005  1.0000
  C   C17       1.0  0.22629999999999997  0.2263  0.33006  1.0000
  C   C18       1.0  0.31764999999999993  0.31765  0.3125400000000001  1.0000
  C   C19       1.0  0.29172999999999993  0.29173  0.15352000000000002  1.0000
  C   C20       1.0  0.20174999999999998  0.20175  0.17079  1.0000
  C   C21       1.0  0.69264  0.30736  0.07640000000000002  1.0000
  C   C22       1.0  0.7262499999999998  0.27375  0.16996  1.0000
  C   C23       1.0  0.8176099999999998  0.18239  0.18748  1.0000
  C   C24       1.0  0.7916699999999999  0.20833  0.34647  1.0000
  C   C25       1.0  0.7016799999999999  0.29832  0.32921  1.0000
  C   C26       1.0  0.30735999999999997  0.69264  0.07640000000000002  1.0000
  C   C27       1.0  0.27374999999999994  0.72625  0.16996  1.0000
  C   C28       1.0  0.18238999999999994  0.8176100000000001  0.18748  1.0000
  C   C29       1.0  0.20833  0.7916700000000001  0.34647  1.0000
  C   C30       1.0  0.29832  0.70168  0.32921  1.0000
  C   C31       1.0  0.30735999999999997  0.69264  0.9236  1.0000
  C   C32       1.0  0.27374999999999994  0.72625  0.8300400000000002  1.0000
  C   C33       1.0  0.18238999999999994  0.8176100000000001  0.81252  1.0000
  C   C34       1.0  0.20833  0.7916700000000001  0.65353  1.0000
  C   C35       1.0  0.29832  0.70168  0.67079  1.0000
  C   C36       1.0  0.69264  0.30736  0.9236  1.0000
  C   C37       1.0  0.7262499999999998  0.27375  0.8300400000000002  1.0000
  C   C38       1.0  0.8176099999999998  0.18239  0.81252  1.0000
  C   C39       1.0  0.7916699999999999  0.20833  0.65353  1.0000
  C   C40       1.0  0.7016799999999999  0.29832  0.67079  1.0000
  N   N1        1.0  0.10977  0.10977000000000002  0.54798  1.0000
  N   N2        1.0  0.35028  0.35028  0.7742300000000001  1.0000
  N   N3        1.0  0.1672  0.1672  0.7428600000000002  1.0000
  N   N4        1.0  0.8902299999999997  0.89023  0.54798  1.0000
  N   N5        1.0  0.6497199999999997  0.64972  0.7742300000000001  1.0000
  N   N6        1.0  0.8328  0.8327999999999999  0.7428600000000002  1.0000
  N   N7        1.0  0.8902299999999997  0.89023  0.4520200000000001  1.0000
  N   N8        1.0  0.6497199999999997  0.64972  0.22577000000000005  1.0000
  N   N9        1.0  0.8328  0.8327999999999999  0.25714  1.0000
  N   N10       1.0  0.10977  0.10977000000000002  0.4520200000000001  1.0000
  N   N11       1.0  0.35028  0.35028  0.22577000000000005  1.0000
  N   N12       1.0  0.1672  0.1672  0.25714  1.0000
  N   N13       1.0  0.6096599999999999  0.39034  0.04798  1.0000
  N   N14       1.0  0.85027  0.14973  0.27425  1.0000
  N   N15       1.0  0.66714  0.33286  0.24287  1.0000
  N   N16       1.0  0.3903499999999999  0.60965  0.04798  1.0000
  N   N17       1.0  0.14972999999999997  0.85027  0.27425  1.0000
  N   N18       1.0  0.33286999999999994  0.66713  0.24287  1.0000
  N   N19       1.0  0.3903499999999999  0.60965  0.9520200000000002  1.0000
  N   N20       1.0  0.14972999999999997  0.85027  0.7257500000000002  1.0000
  N   N21       1.0  0.33286999999999994  0.66713  0.75713  1.0000
  N   N22       1.0  0.6096599999999999  0.39034  0.9520200000000002  1.0000
  N   N23       1.0  0.85027  0.14973  0.7257500000000002  1.0000
  N   N24       1.0  0.66714  0.33286  0.75713  1.0000
  O   O1        1.0  0.24991  0.24991000000000002  0.5  1.0000
  O   O2        1.0  0.7500899999999998  0.7500900000000001  0.5  1.0000
  O   O3        1.0  0.74981  0.25019  0.0  1.0000
  O   O4        1.0  0.2502  0.7498  0.0  1.0000
