data_image0
_chemical_formula_structural       Mg6H6C24O18
_chemical_formula_sum              "Mg6 H6 C24 O18"
_cell_length_a       6.9499
_cell_length_b       15.245610000000001
_cell_length_c       15.2522
_cell_angle_alpha    117.69612000000001
_cell_angle_beta     98.76493000000002
_cell_angle_gamma    98.74204999999999

_space_group_name_H-M_alt    "P 1"
_space_group_IT_number       1

loop_
  _space_group_symop_operation_xyz
  'x, y, z'

loop_
  _atom_site_type_symbol
  _atom_site_label
  _atom_site_symmetry_multiplicity
  _atom_site_fract_x
  _atom_site_fract_y
  _atom_site_fract_z
  _atom_site_occupancy
  Mg  Mg1       1.0  0.51867  0.4085699999999999  0.73386  1.0000
  Mg  Mg2       1.0  0.7851800000000002  0.26628999999999997  0.6750200000000001  1.0000
  Mg  Mg3       1.0  0.11061000000000007  0.32548  0.59184  1.0000
  Mg  Mg4       1.0  0.4813300000000001  0.59144  0.26615  1.0000
  Mg  Mg5       1.0  0.21482000000000004  0.7337099999999999  0.32498  1.0000
  Mg  Mg6       1.0  0.88939  0.6745199999999998  0.40817000000000003  1.0000
  H   H1        1.0  0.18602999999999995  0.5309999999999998  0.55233  1.0000
  H   H2        1.0  0.63357  0.44762  0.97853  1.0000
  H   H3        1.0  0.65547  0.022460000000000015  0.46989  1.0000
  H   H4        1.0  0.8139700000000002  0.46899999999999986  0.44767  1.0000
  H   H5        1.0  0.36644  0.5523799999999999  0.02147  1.0000
  H   H6        1.0  0.34453  0.97755  0.53011  1.0000
  C   C1        1.0  0.7428400000000002  0.39228999999999997  0.565  1.0000
  C   C2        1.0  0.61476  0.44836000000000004  0.53492  1.0000
  C   C3        1.0  0.43304000000000004  0.46531999999999996  0.56589  1.0000
  C   C4        1.0  0.32402000000000003  0.51692  0.52947  1.0000
  C   C5        1.0  0.17754999999999996  0.43527999999999983  0.82751  1.0000
  C   C6        1.0  0.07975999999999994  0.4652099999999999  0.91358  1.0000
  C   C7        1.0  0.86695  0.43418  0.89945  1.0000
  C   C8        1.0  0.79448  0.47051  0.98737  1.0000
  C   C9        1.0  0.3512000000000001  0.17234999999999998  0.60785  1.0000
  C   C10       1.0  0.16707000000000005  0.08617000000000001  0.5518  1.0000
  C   C11       1.0  0.9687  0.10079  0.5354  1.0000
  C   C12       1.0  0.80726  0.013130000000000018  0.4835900000000001  1.0000
  C   C13       1.0  0.25717  0.6077199999999998  0.435  1.0000
  C   C14       1.0  0.3852400000000001  0.5516399999999999  0.46508  1.0000
  C   C15       1.0  0.5669700000000001  0.53468  0.43411  1.0000
  C   C16       1.0  0.6759800000000002  0.4830799999999999  0.47054000000000007  1.0000
  C   C17       1.0  0.82245  0.56472  0.1725  1.0000
  C   C18       1.0  0.9202400000000002  0.53479  0.08642  1.0000
  C   C19       1.0  0.13305000000000003  0.56582  0.10056  1.0000
  C   C20       1.0  0.20552  0.52949  0.01263  1.0000
  C   C21       1.0  0.6488100000000001  0.8276499999999999  0.39215000000000005  1.0000
  C   C22       1.0  0.8329300000000002  0.9138299999999998  0.44821  1.0000
  C   C23       1.0  0.03130000000000003  0.89921  0.4646000000000001  1.0000
  C   C24       1.0  0.19273999999999997  0.9868799999999998  0.51641  1.0000
  O   O1        1.0  0.69555  0.36338  0.62822  1.0000
  O   O2        1.0  0.89565  0.3738  0.5298  1.0000
  O   O3        1.0  0.3616300000000001  0.4343999999999999  0.62765  1.0000
  O   O4        1.0  0.0668000000000001  0.37215000000000004  0.7355000000000002  1.0000
  O   O5        1.0  0.36557000000000006  0.47037  0.84399  1.0000
  O   O6        1.0  0.7335900000000002  0.37254  0.80688  1.0000
  O   O7        1.0  0.3327000000000001  0.26444999999999996  0.63667  1.0000
  O   O8        1.0  0.52289  0.15585  0.62638  1.0000
  O   O9        1.0  0.9296400000000002  0.19378999999999996  0.56713  1.0000
  O   O10       1.0  0.3044600000000001  0.63662  0.37179  1.0000
  O   O11       1.0  0.10435000000000004  0.6262  0.47020000000000006  1.0000
  O   O12       1.0  0.6383699999999999  0.5655999999999998  0.3723600000000001  1.0000
  O   O13       1.0  0.9331999999999999  0.6278499999999998  0.26451  1.0000
  O   O14       1.0  0.63443  0.52963  0.15601  1.0000
  O   O15       1.0  0.26641000000000004  0.62746  0.19312000000000004  1.0000
  O   O16       1.0  0.6673100000000002  0.73555  0.36333000000000004  1.0000
  O   O17       1.0  0.4771100000000001  0.84415  0.37362  1.0000
  O   O18       1.0  0.07036000000000009  0.80621  0.43287  1.0000
