data_image0
_chemical_formula_structural       Sr4Ni2H18C42N6O24
_chemical_formula_sum              "Sr4 Ni2 H18 C42 N6 O24"
_cell_length_a       7.95169
_cell_length_b       13.71185
_cell_length_c       13.76459
_cell_angle_alpha    108.19452
_cell_angle_beta     97.78357
_cell_angle_gamma    96.17435

_symmetry_space_group_name_H-M    'P 1'
_symmetry_Int_Tables_number       1

loop_
  _symmetry_equiv_pos_as_xyz
  'x,y,z'

loop_
  _atom_site_type_symbol
  _atom_site_label
  _atom_site_symmetry_multiplicity
  _atom_site_fract_x
  _atom_site_fract_y
  _atom_site_fract_z
  _atom_site_occupancy
  Sr  Sr1       1.0  0.9563200000000002  0.3722799999999999  0.8702299999999998  1.0000
  Sr  Sr2       1.0  0.37541  0.30535  0.79971  1.0000
  Sr  Sr3       1.0  0.04367  0.62772  0.12977  1.0000
  Sr  Sr4       1.0  0.62458  0.69465  0.20029  1.0000
  Ni  Ni1       1.0  0.96128  0.75331  0.73565  1.0000
  Ni  Ni2       1.0  0.038709999999999994  0.24668999999999996  0.26435  1.0000
  H   H1        1.0  0.3869300000000001  0.5926999999999999  0.53795  1.0000
  H   H2        1.0  0.28441  0.16237  0.030039999999999994  1.0000
  H   H3        1.0  0.66593  0.27969  0.20478  1.0000
  H   H4        1.0  0.24967  0.55986  0.68127  1.0000
  H   H5        1.0  0.33406  0.72031  0.79523  1.0000
  H   H6        1.0  0.7503100000000004  0.44014  0.31873  1.0000
  H   H7        1.0  0.6947000000000002  0.53959  0.64002  1.0000
  H   H8        1.0  0.58935  0.7878699999999998  0.73129  1.0000
  H   H9        1.0  0.30529  0.46041  0.35998  1.0000
  H   H10       1.0  0.3763900000000001  0.00505  0.0642  1.0000
  H   H11       1.0  0.7155800000000002  0.8376299999999999  0.9699599999999998  1.0000
  H   H12       1.0  0.6235999999999999  0.9949499999999998  0.93581  1.0000
  H   H13       1.0  0.6277400000000002  0.40130999999999994  0.10224  1.0000
  H   H14       1.0  0.7706500000000002  0.17123999999999998  0.05565  1.0000
  H   H15       1.0  0.6130499999999999  0.4073  0.46205999999999997  1.0000
  H   H16       1.0  0.22933000000000006  0.82876  0.94436  1.0000
  H   H17       1.0  0.4106400000000001  0.21212999999999996  0.26872  1.0000
  H   H18       1.0  0.3722499999999999  0.5986799999999999  0.8977599999999998  1.0000
  C   C1        1.0  0.19686  0.89947  0.9323599999999997  1.0000
  C   C2        1.0  0.9720400000000002  0.60411  0.32958  1.0000
  C   C3        1.0  0.24655  0.45076  0.42379  1.0000
  C   C4        1.0  0.54101  0.30146  0.18629  1.0000
  C   C5        1.0  0.29375  0.52336  0.52342  1.0000
  C   C6        1.0  0.33422  0.47547  0.05516  1.0000
  C   C7        1.0  0.22107  0.35508  0.14796  1.0000
  C   C8        1.0  0.89203  0.26303  0.44146  1.0000
  C   C9        1.0  0.40104  0.26367  0.22248  1.0000
  C   C10       1.0  0.66577  0.52452  0.94485  1.0000
  C   C11       1.0  0.77892  0.6449199999999999  0.8520499999999999  1.0000
  C   C12       1.0  0.95717  0.64815  0.52315  1.0000
  C   C13       1.0  0.04281  0.35185  0.47685  1.0000
  C   C14       1.0  0.03452000000000001  0.16821  0.88223  1.0000
  C   C15       1.0  0.10796000000000001  0.73697  0.55854  1.0000
  C   C16       1.0  0.48053000000000007  0.6307299999999998  0.87032  1.0000
  C   C17       1.0  0.027949999999999992  0.39588999999999996  0.67043  1.0000
  C   C18       1.0  0.12005000000000003  0.049299999999999976  0.26093  1.0000
  C   C19       1.0  0.51946  0.36926999999999993  0.12968999999999997  1.0000
  C   C20       1.0  0.21633000000000005  0.50553  0.60246  1.0000
  C   C21       1.0  0.8031300000000002  0.10053  0.06764  1.0000
  C   C22       1.0  0.91038  0.92776  0.1016  1.0000
  C   C23       1.0  0.9814600000000002  0.028589999999999994  0.16649  1.0000
  C   C24       1.0  0.8799300000000001  0.9507  0.7390699999999998  1.0000
  C   C25       1.0  0.7062400000000002  0.47663  0.47659  1.0000
  C   C26       1.0  0.04058  0.37788  0.13113  1.0000
  C   C27       1.0  0.22367000000000004  0.08479000000000005  0.98057  1.0000
  C   C28       1.0  0.95941  0.62212  0.8688799999999999  1.0000
  C   C29       1.0  0.72346  0.00243  0.0011099999999999999  1.0000
  C   C30       1.0  0.09099999999999998  0.41784999999999994  0.58005  1.0000
  C   C31       1.0  0.78366  0.49447  0.39754  1.0000
  C   C32       1.0  0.6426899999999999  0.60174  0.88864  1.0000
  C   C33       1.0  0.59895  0.73633  0.77753  1.0000
  C   C34       1.0  0.35728999999999994  0.39826  0.11135999999999999  1.0000
  C   C35       1.0  0.75343  0.5492300000000001  0.57621  1.0000
  C   C36       1.0  0.9654600000000002  0.83178  0.11777999999999998  1.0000
  C   C37       1.0  0.01853000000000002  0.97141  0.83351  1.0000
  C   C38       1.0  0.27652999999999994  0.99756  0.9988999999999999  1.0000
  C   C39       1.0  0.45898  0.69854  0.81371  1.0000
  C   C40       1.0  0.08960999999999995  0.07223999999999993  0.8984099999999999  1.0000
  C   C41       1.0  0.9089800000000002  0.58215  0.41995  1.0000
  C   C42       1.0  0.7763200000000001  0.91521  0.01943  1.0000
  N   N1        1.0  0.8769200000000005  0.63197  0.59862  1.0000
  N   N2        1.0  0.9279500000000003  0.11262  0.14864  1.0000
  N   N3        1.0  0.07203  0.8873799999999998  0.85136  1.0000
  N   N4        1.0  0.24433000000000002  0.28925  0.20219999999999994  1.0000
  N   N5        1.0  0.7556499999999999  0.71075  0.7978  1.0000
  N   N6        1.0  0.12306999999999998  0.36802  0.40138999999999997  1.0000
  O   O1        1.0  0.8903100000000002  0.41728999999999994  0.6999699999999998  1.0000
  O   O2        1.0  0.85764  0.63776  0.27553  1.0000
  O   O3        1.0  0.69145  0.55711  0.04327  1.0000
  O   O4        1.0  0.3496800000000001  0.5721  0.11098999999999999  1.0000
  O   O5        1.0  0.14326999999999995  0.21935999999999997  0.84605  1.0000
  O   O6        1.0  0.99145  0.56802  0.92916  1.0000
  O   O7        1.0  0.8258000000000002  0.23857999999999996  0.50891  1.0000
  O   O8        1.0  0.8260200000000002  0.027089999999999986  0.7226999999999999  1.0000
  O   O9        1.0  0.84219  0.22484999999999997  0.34135  1.0000
  O   O10       1.0  0.30853  0.44288999999999995  0.95674  1.0000
  O   O11       1.0  0.9333900000000004  0.34277  0.17597999999999997  1.0000
  O   O12       1.0  0.008539999999999985  0.43197999999999986  0.07085  1.0000
  O   O13       1.0  0.6503100000000003  0.4278999999999999  0.8890099999999997  1.0000
  O   O14       1.0  0.17418000000000003  0.76141  0.4911  1.0000
  O   O15       1.0  0.82961  0.85349  0.68497  1.0000
  O   O16       1.0  0.8567200000000003  0.7806399999999998  0.15396  1.0000
  O   O17       1.0  0.14233999999999997  0.36222999999999983  0.7244699999999997  1.0000
  O   O18       1.0  0.9054500000000002  0.20403999999999994  0.9139699999999998  1.0000
  O   O19       1.0  0.10967000000000006  0.5827  0.30003  1.0000
  O   O20       1.0  0.09453  0.79596  0.08603  1.0000
  O   O21       1.0  0.17038  0.1465  0.31503  1.0000
  O   O22       1.0  0.15779999999999994  0.77515  0.65866  1.0000
  O   O23       1.0  0.17395999999999998  0.97291  0.27729999999999994  1.0000
  O   O24       1.0  0.06660000000000003  0.6572299999999999  0.82403  1.0000
