data_image0
_chemical_formula_structural       Zn4H12C32S4O28
_chemical_formula_sum              "Zn4 H12 C32 S4 O28"
_cell_length_a       11.40212
_cell_length_b       12.31024
_cell_length_c       12.370800000000001
_cell_angle_alpha    89.94545000000001
_cell_angle_beta     94.24327
_cell_angle_gamma    90.16757999999999

_space_group_name_H-M_alt    "P 1"
_space_group_IT_number       1

loop_
  _space_group_symop_operation_xyz
  'x, y, z'

loop_
  _atom_site_type_symbol
  _atom_site_label
  _atom_site_symmetry_multiplicity
  _atom_site_fract_x
  _atom_site_fract_y
  _atom_site_fract_z
  _atom_site_occupancy
  Zn  Zn1       1.0  0.66049  0.97513  0.4779  1.0000
  Zn  Zn2       1.0  0.8402  0.4737900000000001  0.022759999999999996  1.0000
  Zn  Zn3       1.0  0.33951  0.02487  0.5221  1.0000
  Zn  Zn4       1.0  0.15979  0.52621  0.97724  1.0000
  H   H1        1.0  0.95805  0.010630000000000004  0.61594  1.0000
  H   H2        1.0  0.17046000000000006  0.27002  0.7612  1.0000
  H   H3        1.0  0.81309  0.22682  0.84634  1.0000
  H   H4        1.0  0.54147  0.51203  0.8844  1.0000
  H   H5        1.0  0.32957  0.77042  0.73868  1.0000
  H   H6        1.0  0.68709  0.72846  0.65359  1.0000
  H   H7        1.0  0.04194  0.98937  0.38406  1.0000
  H   H8        1.0  0.8295400000000002  0.72998  0.2388  1.0000
  H   H9        1.0  0.18691  0.77318  0.15366  1.0000
  H   H10       1.0  0.45853000000000005  0.48797000000000007  0.1156  1.0000
  H   H11       1.0  0.67043  0.22958  0.26131  1.0000
  H   H12       1.0  0.31291  0.27154  0.34640999999999994  1.0000
  C   C1        1.0  0.8737500000000001  0.11346  0.72946  1.0000
  C   C2        1.0  0.96722  0.07996  0.67026  1.0000
  C   C3        1.0  0.07409000000000002  0.13684  0.682  1.0000
  C   C4        1.0  0.17377  0.09996  0.62186  1.0000
  C   C5        1.0  0.08733000000000003  0.22624  0.75191  1.0000
  C   C6        1.0  0.99282  0.25832  0.81076  1.0000
  C   C7        1.0  0.8856300000000001  0.20164  0.80009  1.0000
  C   C8        1.0  0.005989999999999995  0.3534000000000001  0.88549  1.0000
  C   C9        1.0  0.62553  0.61489  0.77033  1.0000
  C   C10       1.0  0.53211  0.58124  0.82984  1.0000
  C   C11       1.0  0.42543  0.63779  0.81806  1.0000
  C   C12       1.0  0.32533  0.60031  0.87766  1.0000
  C   C13       1.0  0.4126500000000001  0.72708  0.7479999999999999  1.0000
  C   C14       1.0  0.50733  0.7596700000000001  0.68916  1.0000
  C   C15       1.0  0.61427  0.70318  0.69971  1.0000
  C   C16       1.0  0.49388999999999994  0.85479  0.61453  1.0000
  C   C17       1.0  0.12625  0.8865500000000001  0.27053  1.0000
  C   C18       1.0  0.03277  0.9200400000000001  0.32973  1.0000
  C   C19       1.0  0.92591  0.8631700000000002  0.31799  1.0000
  C   C20       1.0  0.82622  0.90004  0.37813  1.0000
  C   C21       1.0  0.91267  0.77376  0.24809  1.0000
  C   C22       1.0  0.007179999999999997  0.74168  0.18924  1.0000
  C   C23       1.0  0.11437  0.7983600000000002  0.19991  1.0000
  C   C24       1.0  0.99401  0.6466  0.1145  1.0000
  C   C25       1.0  0.37447  0.3851100000000001  0.22967  1.0000
  C   C26       1.0  0.46789  0.4187600000000001  0.17015  1.0000
  C   C27       1.0  0.57457  0.36221  0.18193  1.0000
  C   C28       1.0  0.67467  0.3996900000000001  0.12233999999999999  1.0000
  C   C29       1.0  0.58735  0.27292  0.25199  1.0000
  C   C30       1.0  0.49266  0.24034  0.31083  1.0000
  C   C31       1.0  0.38573  0.29682  0.30029  1.0000
  C   C32       1.0  0.50611  0.14521  0.38547  1.0000
  S   S1        1.0  0.73917  0.038950000000000005  0.71698  1.0000
  S   S2        1.0  0.7593200000000001  0.54022  0.78287  1.0000
  S   S3        1.0  0.26083  0.9610500000000002  0.28302  1.0000
  S   S4        1.0  0.24068  0.45978  0.21713  1.0000
  O   O1        1.0  0.67874  0.07405000000000002  0.60849  1.0000
  O   O2        1.0  0.66858  0.07388000000000002  0.80467  1.0000
  O   O3        1.0  0.7709900000000001  0.92344  0.71416  1.0000
  O   O4        1.0  0.16113  0.02067  0.5537  1.0000
  O   O5        1.0  0.27576  0.14249  0.63527  1.0000
  O   O6        1.0  0.0904  0.41875  0.8727  1.0000
  O   O7        1.0  0.93178  0.35958  0.95765  1.0000
  O   O8        1.0  0.81832  0.57434  0.89223  1.0000
  O   O9        1.0  0.83026  0.5763  0.69564  1.0000
  O   O10       1.0  0.72683  0.42449  0.78358  1.0000
  O   O11       1.0  0.33688  0.5185700000000001  0.94293  1.0000
  O   O12       1.0  0.22427000000000002  0.64488  0.8669699999999999  1.0000
  O   O13       1.0  0.41114  0.9209600000000002  0.62941  1.0000
  O   O14       1.0  0.5654900000000002  0.86068  0.54009  1.0000
  O   O15       1.0  0.32126  0.92595  0.39149999999999996  1.0000
  O   O16       1.0  0.33141  0.9261200000000003  0.19533  1.0000
  O   O17       1.0  0.22901  0.07656  0.28584  1.0000
  O   O18       1.0  0.8388700000000001  0.9793300000000003  0.4463  1.0000
  O   O19       1.0  0.72424  0.85751  0.36473  1.0000
  O   O20       1.0  0.9096  0.5812500000000002  0.1273  1.0000
  O   O21       1.0  0.06822  0.6404200000000001  0.04235  1.0000
  O   O22       1.0  0.18167  0.4256600000000001  0.10776  1.0000
  O   O23       1.0  0.16973000000000005  0.4237000000000001  0.30435  1.0000
  O   O24       1.0  0.27316  0.57552  0.21642  1.0000
  O   O25       1.0  0.66312  0.48143  0.05706  1.0000
  O   O26       1.0  0.7757200000000001  0.35512000000000005  0.13303  1.0000
  O   O27       1.0  0.58885  0.07905  0.37058  1.0000
  O   O28       1.0  0.43451000000000006  0.13932  0.45991  1.0000
