data_image0
_chemical_formula_structural       Ce2H12C24O12
_chemical_formula_sum              "Ce2 H12 C24 O12"
_cell_length_a       10.14655
_cell_length_b       10.85575
_cell_length_c       11.17605
_cell_angle_alpha    62.929170000000006
_cell_angle_beta     65.65692
_cell_angle_gamma    66.64298

_space_group_name_H-M_alt    "P 1"
_space_group_IT_number       1

loop_
  _space_group_symop_operation_xyz
  'x, y, z'

loop_
  _atom_site_type_symbol
  _atom_site_label
  _atom_site_symmetry_multiplicity
  _atom_site_fract_x
  _atom_site_fract_y
  _atom_site_fract_z
  _atom_site_occupancy
  Ce  Ce1       1.0  0.7785200000000001  0.50916  0.5046  1.0000
  Ce  Ce2       1.0  0.20259999999999995  0.49015  0.50322  1.0000
  H   H1        1.0  0.017579999999999974  0.10755  0.33372  1.0000
  H   H2        1.0  0.17684999999999984  0.8627100000000002  0.34082  1.0000
  H   H3        1.0  0.7800299999999999  0.11109000000000001  0.9086300000000002  1.0000
  H   H4        1.0  0.20675000000000007  0.11771999999999998  0.88126  1.0000
  H   H5        1.0  0.34904999999999997  0.18635  0.41011  1.0000
  H   H6        1.0  0.5113  0.9441599999999999  0.41534  1.0000
  H   H7        1.0  0.98245  0.89345  0.66727  1.0000
  H   H8        1.0  0.8222700000000002  0.13853999999999994  0.6591000000000001  1.0000
  H   H9        1.0  0.21955000000000005  0.88938  0.09083  1.0000
  H   H10       1.0  0.79292  0.88392  0.11715  1.0000
  H   H11       1.0  0.6493500000000002  0.81457  0.59004  1.0000
  H   H12       1.0  0.48891  0.057409999999999996  0.58511  1.0000
  C   C1        1.0  0.9843500000000002  0.26150999999999996  0.7608400000000001  1.0000
  C   C2        1.0  0.12584  0.07039  0.35081  1.0000
  C   C3        1.0  0.21391999999999994  0.93378  0.35606  1.0000
  C   C4        1.0  0.35159  0.88527  0.38435  1.0000
  C   C5        1.0  0.17239  0.16056  0.37393  1.0000
  C   C6        1.0  0.99301  0.12633999999999995  0.88396  1.0000
  C   C7        1.0  0.8753600000000001  0.06102999999999996  0.9496000000000001  1.0000
  C   C8        1.0  0.11760999999999999  0.06481999999999999  0.93472  1.0000
  C   C9        1.0  0.3135800000000001  0.11485999999999999  0.3942900000000001  1.0000
  C   C10       1.0  0.40249000000000007  0.97881  0.39914  1.0000
  C   C11       1.0  0.06673999999999998  0.2990300000000001  0.38808  1.0000
  C   C12       1.0  0.55466  0.2657300000000001  0.59893  1.0000
  C   C13       1.0  0.015309999999999971  0.7378100000000001  0.24013  1.0000
  C   C14       1.0  0.8745899999999999  0.9308399999999999  0.64874  1.0000
  C   C15       1.0  0.78581  0.06727999999999999  0.6437000000000002  1.0000
  C   C16       1.0  0.6485900000000001  0.11478  0.61536  1.0000
  C   C17       1.0  0.82854  0.84073  0.62483  1.0000
  C   C18       1.0  0.007360000000000015  0.8739499999999999  0.11538  1.0000
  C   C19       1.0  0.12460999999999997  0.93989  0.04955000000000001  1.0000
  C   C20       1.0  0.8826  0.9361300000000001  0.06439  1.0000
  C   C21       1.0  0.6867800000000001  0.8854599999999999  0.6050000000000001  1.0000
  C   C22       1.0  0.5979200000000001  0.02137999999999999  0.60082  1.0000
  C   C23       1.0  0.9362400000000001  0.70201  0.6116100000000001  1.0000
  C   C24       1.0  0.44399000000000005  0.7320900000000001  0.40217  1.0000
  O   O1        1.0  0.4273099999999999  0.29931  0.57898  1.0000
  O   O2        1.0  0.6106499999999999  0.3526000000000001  0.60018  1.0000
  O   O3        1.0  0.9361700000000001  0.33448999999999995  0.37458  1.0000
  O   O4        1.0  0.11020999999999999  0.37377  0.42188000000000003  1.0000
  O   O5        1.0  0.8739200000000001  0.3076799999999999  0.7109400000000001  1.0000
  O   O6        1.0  0.08980999999999999  0.32343999999999995  0.71295  1.0000
  O   O7        1.0  0.5738600000000001  0.7011  0.42002  1.0000
  O   O8        1.0  0.39232000000000006  0.64409  0.40026  1.0000
  O   O9        1.0  0.06727999999999996  0.66525  0.62581  1.0000
  O   O10       1.0  0.8956300000000001  0.62551  0.57773  1.0000
  O   O11       1.0  0.12509000000000006  0.6925599999999997  0.29124  1.0000
  O   O12       1.0  0.9094000000000001  0.67693  0.28799  1.0000
