data_image0
_chemical_formula_structural       Eu2H6C18N6O12
_chemical_formula_sum              "Eu2 H6 C18 N6 O12"
_cell_length_a       4.31426
_cell_length_b       11.82759
_cell_length_c       14.71622
_cell_angle_alpha    64.54653
_cell_angle_beta     99.46634
_cell_angle_gamma    92.36362000000001

_space_group_name_H-M_alt    "P 1"
_space_group_IT_number       1

loop_
  _space_group_symop_operation_xyz
  'x, y, z'

loop_
  _atom_site_type_symbol
  _atom_site_label
  _atom_site_symmetry_multiplicity
  _atom_site_fract_x
  _atom_site_fract_y
  _atom_site_fract_z
  _atom_site_occupancy
  Eu  Eu1       1.0  0.36608  0.6562699999999997  0.6987400000000001  1.0000
  Eu  Eu2       1.0  0.67414  0.34411999999999987  0.30664  1.0000
  H   H1        1.0  0.89848  0.9263599999999999  0.67523  1.0000
  H   H2        1.0  0.7968099999999999  0.4254299999999999  0.9105  1.0000
  H   H3        1.0  0.4287300000000001  0.6503499999999999  0.45169  1.0000
  H   H4        1.0  0.09708999999999997  0.07707000000000001  0.32478  1.0000
  H   H5        1.0  0.17242  0.5696699999999999  0.08826  1.0000
  H   H6        1.0  0.60895  0.3450599999999999  0.5547  1.0000
  C   C1        1.0  0.20355  0.93708  0.48221  1.0000
  C   C2        1.0  0.94058  0.9595499999999996  0.59692  1.0000
  C   C3        1.0  0.25953  0.5869599999999999  0.94171  1.0000
  C   C4        1.0  0.65506  0.45653  0.95039  1.0000
  C   C5        1.0  0.9068600000000001  0.48145999999999983  0.5853  1.0000
  C   C6        1.0  0.25187  0.5796000000000001  0.47511  1.0000
  C   C7        1.0  0.45181  0.86736  0.46711  1.0000
  C   C8        1.0  0.9969900000000002  0.68246  0.8779  1.0000
  C   C9        1.0  0.75385  0.46954999999999997  0.67205  1.0000
  C   C10       1.0  0.78322  0.06742  0.51756  1.0000
  C   C11       1.0  0.049120000000000004  0.04480999999999999  0.40278  1.0000
  C   C12       1.0  0.70465  0.40598  0.058  1.0000
  C   C13       1.0  0.31167999999999996  0.53681  0.0491  1.0000
  C   C14       1.0  0.13135000000000002  0.51333  0.41894999999999993  1.0000
  C   C15       1.0  0.78765  0.4141199999999999  0.52911  1.0000
  C   C16       1.0  0.52859  0.13889999999999994  0.53055  1.0000
  C   C17       1.0  0.9747800000000001  0.3151399999999999  0.12006  1.0000
  C   C18       1.0  0.27638  0.5269799999999999  0.33074  1.0000
  N   N1        1.0  0.13755000000000003  0.8914199999999999  0.57813  1.0000
  N   N2        1.0  0.4322200000000001  0.5454899999999999  0.8944600000000001  1.0000
  N   N3        1.0  0.12956999999999996  0.565  0.55733  1.0000
  N   N4        1.0  0.85216  0.11258999999999993  0.42188000000000003  1.0000
  N   N5        1.0  0.53163  0.44676  0.10576  1.0000
  N   N6        1.0  0.9077200000000002  0.42902999999999997  0.44658  1.0000
  O   O1        1.0  0.5560200000000001  0.7649299999999999  0.54546  1.0000
  O   O2        1.0  0.95931  0.7119199999999996  0.77953  1.0000
  O   O3        1.0  0.86558  0.53732  0.72005  1.0000
  O   O4        1.0  0.51277  0.4070999999999998  0.68708  1.0000
  O   O5        1.0  0.56003  0.91258  0.38592  1.0000
  O   O6        1.0  0.8327700000000002  0.7188499999999998  0.92225  1.0000
  O   O7        1.0  0.42501999999999995  0.24189999999999998  0.45167  1.0000
  O   O8        1.0  0.039079999999999976  0.29367  0.21673  1.0000
  O   O9        1.0  0.15538999999999997  0.46082999999999974  0.284  1.0000
  O   O10       1.0  0.51659  0.5890999999999998  0.31213  1.0000
  O   O11       1.0  0.417  0.09434  0.61146  1.0000
  O   O12       1.0  0.1265  0.27416  0.07496  1.0000
