data_image0
_chemical_formula_structural       Dy2Zn2H20C40N6O20
_chemical_formula_sum              "Dy2 Zn2 H20 C40 N6 O20"
_cell_length_a       10.51217
_cell_length_b       10.05064
_cell_length_c       12.75146
_cell_angle_alpha    85.70836
_cell_angle_beta     82.42184
_cell_angle_gamma    92.27352

_space_group_name_H-M_alt    "P 1"
_space_group_IT_number       1

loop_
  _space_group_symop_operation_xyz
  'x, y, z'

loop_
  _atom_site_type_symbol
  _atom_site_label
  _atom_site_symmetry_multiplicity
  _atom_site_fract_x
  _atom_site_fract_y
  _atom_site_fract_z
  _atom_site_occupancy
  Dy  Dy1       1.0  0.58608  0.52414  0.24906000000000006  1.0000
  Dy  Dy2       1.0  0.41192000000000006  0.47991  0.75093  1.0000
  Zn  Zn1       1.0  0.37287  0.15633  0.19735  1.0000
  Zn  Zn2       1.0  0.62715  0.84403  0.80218  1.0000
  H   H1        1.0  0.3029  0.8410199999999998  0.5584  1.0000
  H   H2        1.0  0.33441  0.027619999999999978  0.6739100000000002  1.0000
  H   H3        1.0  0.26415  0.42242  0.11036000000000001  1.0000
  H   H4        1.0  0.31359  0.8971799999999999  0.3609100000000001  1.0000
  H   H5        1.0  0.10439999999999998  0.08120999999999998  0.29001000000000005  1.0000
  H   H6        1.0  0.88353  0.17264  0.30661000000000005  1.0000
  H   H7        1.0  0.047939999999999997  0.52286  0.11241000000000001  1.0000
  H   H8        1.0  0.68426  0.17793  0.17356000000000002  1.0000
  H   H9        1.0  0.79366  0.8093599999999999  0.040850000000000004  1.0000
  H   H10       1.0  0.85791  0.02989  0.10343000000000002  1.0000
  H   H11       1.0  0.7005999999999998  0.16439  0.4433000000000001  1.0000
  H   H12       1.0  0.66736  0.9807399999999997  0.32542  1.0000
  H   H13       1.0  0.7338899999999999  0.57821  0.8894100000000003  1.0000
  H   H14       1.0  0.68942  0.10441  0.6403  1.0000
  H   H15       1.0  0.89512  0.91976  0.71127  1.0000
  H   H16       1.0  0.11628000000000001  0.8287999999999999  0.69704  1.0000
  H   H17       1.0  0.94993  0.4783299999999999  0.89005  1.0000
  H   H18       1.0  0.3163199999999999  0.8233599999999999  0.8264500000000002  1.0000
  H   H19       1.0  0.2066499999999999  0.19293999999999997  0.9574800000000002  1.0000
  H   H20       1.0  0.14215999999999995  0.9709799999999998  0.89627  1.0000
  C   C1        1.0  0.38618999999999987  0.28796999999999995  0.6152400000000001  1.0000
  C   C2        1.0  0.5906  0.83961  0.07633  1.0000
  C   C3        1.0  0.32146  0.94382  0.52437  1.0000
  C   C4        1.0  0.34032000000000007  0.04732000000000001  0.58837  1.0000
  C   C5        1.0  0.38031  0.19770000000000001  0.43176  1.0000
  C   C6        1.0  0.36936  0.17819000000000002  0.54272  1.0000
  C   C7        1.0  0.17696  0.3701699999999999  0.15177  1.0000
  C   C8        1.0  0.32843  0.9735899999999998  0.41485  1.0000
  C   C9        1.0  0.08756  0.1794  0.25384  1.0000
  C   C10       1.0  0.9655400000000001  0.22913999999999998  0.26126  1.0000
  C   C11       1.0  0.057079999999999985  0.4253499999999999  0.15321  1.0000
  C   C12       1.0  0.66187  0.08098  0.14603  1.0000
  C   C13       1.0  0.8181199999999998  0.40865  0.21645  1.0000
  C   C14       1.0  0.35708  0.89566  0.12236000000000001  1.0000
  C   C15       1.0  0.55119  0.71067  0.03385  1.0000
  C   C16       1.0  0.43131  0.32626999999999995  0.3717  1.0000
  C   C17       1.0  0.50041  0.9273499999999999  0.11781000000000003  1.0000
  C   C18       1.0  0.72123  0.87583  0.07212  1.0000
  C   C19       1.0  0.9493  0.35394999999999993  0.20954  1.0000
  C   C20       1.0  0.75724  0.99821  0.10706  1.0000
  C   C21       1.0  0.61328  0.71906  0.3823600000000001  1.0000
  C   C22       1.0  0.40952  0.16131999999999996  0.9226600000000001  1.0000
  C   C23       1.0  0.68048  0.06132  0.4762900000000001  1.0000
  C   C24       1.0  0.66027  0.9595499999999998  0.41096000000000005  1.0000
  C   C25       1.0  0.61698  0.80702  0.56635  1.0000
  C   C26       1.0  0.6290499999999999  0.8284799999999998  0.45539  1.0000
  C   C27       1.0  0.8215199999999999  0.63072  0.8491100000000001  1.0000
  C   C28       1.0  0.67324  0.029369999999999983  0.5855600000000001  1.0000
  C   C29       1.0  0.9118399999999999  0.82176  0.74778  1.0000
  C   C30       1.0  0.03379999999999995  0.77221  0.74156  1.0000
  C   C31       1.0  0.94133  0.57573  0.8489000000000002  1.0000
  C   C32       1.0  0.3386  0.92061  0.8533100000000002  1.0000
  C   C33       1.0  0.18091  0.5938199999999999  0.78702  1.0000
  C   C34       1.0  0.64369  0.10609  0.8767500000000001  1.0000
  C   C35       1.0  0.4484099999999999  0.28985999999999995  0.9654600000000002  1.0000
  C   C36       1.0  0.56165  0.6788399999999999  0.6248500000000001  1.0000
  C   C37       1.0  0.50022  0.07441  0.8808  1.0000
  C   C38       1.0  0.27874  0.12584  0.92644  1.0000
  C   C39       1.0  0.049489999999999985  0.64743  0.79352  1.0000
  C   C40       1.0  0.24282999999999996  0.003279999999999998  0.89189  1.0000
  N   N1        1.0  0.35751  0.09804999999999997  0.37020000000000003  1.0000
  N   N2        1.0  0.19176  0.24883999999999998  0.20062  1.0000
  N   N3        1.0  0.53648  0.04435  0.15282  1.0000
  N   N4        1.0  0.64213  0.9046299999999999  0.62907  1.0000
  N   N5        1.0  0.8072699999999999  0.7520899999999998  0.8001200000000003  1.0000
  N   N6        1.0  0.46407999999999994  0.95735  0.84585  1.0000
  O   O1        1.0  0.48711  0.29299  0.66138  1.0000
  O   O2        1.0  0.29465  0.36559999999999987  0.6352000000000001  1.0000
  O   O3        1.0  0.72591  0.34676999999999997  0.27977  1.0000
  O   O4        1.0  0.53081  0.60673  0.10016000000000001  1.0000
  O   O5        1.0  0.28187  0.98198  0.16404  1.0000
  O   O6        1.0  0.5547999999999998  0.7059499999999996  0.9354600000000001  1.0000
  O   O7        1.0  0.7997599999999998  0.51483  0.16  1.0000
  O   O8        1.0  0.44337  0.33265  0.26876000000000005  1.0000
  O   O9        1.0  0.4697899999999999  0.42216999999999993  0.4186400000000001  1.0000
  O   O10       1.0  0.32431  0.79117  0.08450000000000002  1.0000
  O   O11       1.0  0.51862  0.7201999999999998  0.3284900000000001  1.0000
  O   O12       1.0  0.69988  0.6343499999999997  0.37016000000000004  1.0000
  O   O13       1.0  0.27319  0.6585799999999998  0.7256000000000001  1.0000
  O   O14       1.0  0.46856  0.39348999999999995  0.89888  1.0000
  O   O15       1.0  0.71856  0.019449999999999995  0.83513  1.0000
  O   O16       1.0  0.4445  0.29467  0.06382  1.0000
  O   O17       1.0  0.1998  0.48598  0.8410500000000002  1.0000
  O   O18       1.0  0.55694  0.6676399999999999  0.7276700000000003  1.0000
  O   O19       1.0  0.51327  0.5888999999999999  0.57729  1.0000
  O   O20       1.0  0.6764400000000002  0.21016999999999997  0.91528  1.0000
