data_image0
_chemical_formula_structural       Zn2H20C44O16
_chemical_formula_sum              "Zn2 H20 C44 O16"
_cell_length_a       9.26134
_cell_length_b       12.68525
_cell_length_c       16.20288
_cell_angle_alpha    82.10117999999999
_cell_angle_beta     73.82734
_cell_angle_gamma    68.69595000000001

_space_group_name_H-M_alt    "P 1"
_space_group_IT_number       1

loop_
  _space_group_symop_operation_xyz
  'x, y, z'

loop_
  _atom_site_type_symbol
  _atom_site_label
  _atom_site_symmetry_multiplicity
  _atom_site_fract_x
  _atom_site_fract_y
  _atom_site_fract_z
  _atom_site_occupancy
  Zn  Zn1       1.0  0.00667000000000004  0.75101  0.25215  1.0000
  Zn  Zn2       1.0  0.99334  0.24899000000000002  0.7478399999999997  1.0000
  H   H1        1.0  0.10276999999999997  0.41989000000000004  0.12948999999999997  1.0000
  H   H2        1.0  0.7346999999999999  0.7562300000000002  0.9064799999999998  1.0000
  H   H3        1.0  0.6837900000000001  0.95808  0.85924  1.0000
  H   H4        1.0  0.11274999999999993  0.9438200000000002  0.9232899999999998  1.0000
  H   H5        1.0  0.16029999999999991  0.7449500000000002  0.97506  1.0000
  H   H6        1.0  0.6587599999999999  0.08080000000000002  0.3755  1.0000
  H   H7        1.0  0.3940600000000001  0.74613  0.59414  1.0000
  H   H8        1.0  0.4946200000000001  0.54457  0.6415499999999997  1.0000
  H   H9        1.0  0.97436  0.55423  0.5776  1.0000
  H   H10       1.0  0.8775399999999997  0.75374  0.5270899999999997  1.0000
  H   H11       1.0  0.8972299999999997  0.5801  0.87051  1.0000
  H   H12       1.0  0.26530999999999993  0.24377  0.09351999999999998  1.0000
  H   H13       1.0  0.31621999999999983  0.04191  0.14075  1.0000
  H   H14       1.0  0.8872499999999999  0.056180000000000015  0.0767  1.0000
  H   H15       1.0  0.83971  0.25504  0.02493  1.0000
  H   H16       1.0  0.3412399999999999  0.9192  0.6244999999999999  1.0000
  H   H17       1.0  0.6059399999999999  0.25386000000000003  0.40586  1.0000
  H   H18       1.0  0.50539  0.45543000000000006  0.3584499999999999  1.0000
  H   H19       1.0  0.025640000000000003  0.44577000000000006  0.4224  1.0000
  H   H20       1.0  0.12245999999999999  0.24626000000000006  0.4729099999999999  1.0000
  C   C1        1.0  0.0645  0.63574  0.10562  1.0000
  C   C2        1.0  0.03616999999999998  0.56681  0.04774999999999999  1.0000
  C   C3        1.0  0.06264999999999996  0.4529000000000001  0.07108999999999997  1.0000
  C   C4        1.0  0.97538  0.61714  0.9733999999999998  1.0000
  C   C5        1.0  0.9508900000000001  0.73506  0.94446  1.0000
  C   C6        1.0  0.81841  0.79686  0.90912  1.0000
  C   C7        1.0  0.7891  0.9098700000000002  0.88301  1.0000
  C   C8        1.0  0.89678  0.9631100000000001  0.88674  1.0000
  C   C9        1.0  0.8707399999999998  0.08421  0.85721  1.0000
  C   C10       1.0  0.029789999999999893  0.9024100000000003  0.92081  1.0000
  C   C11       1.0  0.056030000000000024  0.79073  0.94995  1.0000
  C   C12       1.0  0.8095699999999999  0.86699  0.39985  1.0000
  C   C13       1.0  0.6533100000000001  0.9342900000000002  0.4560399999999999  1.0000
  C   C14       1.0  0.58995  0.04775000000000002  0.4319199999999999  1.0000
  C   C15       1.0  0.5647200000000001  0.8831  0.52732  1.0000
  C   C16       1.0  0.6275199999999999  0.7655100000000002  0.55655  1.0000
  C   C17       1.0  0.5205899999999999  0.7047400000000001  0.59157  1.0000
  C   C18       1.0  0.5764099999999999  0.59175  0.61758  1.0000
  C   C19       1.0  0.7406  0.53717  0.61353  1.0000
  C   C20       1.0  0.80348  0.41586  0.64267  1.0000
  C   C21       1.0  0.8480499999999994  0.59668  0.57978  1.0000
  C   C22       1.0  0.7931799999999998  0.7086900000000003  0.55128  1.0000
  C   C23       1.0  0.9355000000000002  0.3642500000000001  0.8943799999999997  1.0000
  C   C24       1.0  0.9638299999999997  0.43319000000000013  0.95224  1.0000
  C   C25       1.0  0.9373600000000002  0.5471  0.9289099999999998  1.0000
  C   C26       1.0  0.024629999999999957  0.38285  0.02659999999999999  1.0000
  C   C27       1.0  0.04910999999999993  0.2649400000000001  0.05553  1.0000
  C   C28       1.0  0.18159000000000003  0.20314  0.09088  1.0000
  C   C29       1.0  0.21090999999999996  0.09013000000000003  0.11697999999999997  1.0000
  C   C30       1.0  0.10321999999999992  0.03689  0.11326  1.0000
  C   C31       1.0  0.12926999999999997  0.91579  0.14279  1.0000
  C   C32       1.0  0.9702099999999998  0.09758999999999998  0.07919  1.0000
  C   C33       1.0  0.94398  0.20926000000000006  0.05005  1.0000
  C   C34       1.0  0.19044000000000008  0.13301000000000002  0.6001499999999997  1.0000
  C   C35       1.0  0.34669  0.06571000000000002  0.54395  1.0000
  C   C36       1.0  0.41005999999999987  0.9522400000000001  0.5680699999999997  1.0000
  C   C37       1.0  0.4352900000000001  0.11690000000000003  0.4726699999999999  1.0000
  C   C38       1.0  0.37248  0.23448  0.44345  1.0000
  C   C39       1.0  0.47940999999999995  0.2952600000000001  0.40843  1.0000
  C   C40       1.0  0.42359999999999975  0.4082400000000001  0.38242  1.0000
  C   C41       1.0  0.2593999999999999  0.46282  0.38647  1.0000
  C   C42       1.0  0.19651999999999994  0.5841400000000001  0.35733  1.0000
  C   C43       1.0  0.1519499999999999  0.40331000000000006  0.42022  1.0000
  C   C44       1.0  0.20682  0.29131  0.44872  1.0000
  O   O1        1.0  0.9441300000000001  0.6925700000000001  0.1624  1.0000
  O   O2        1.0  0.20711999999999992  0.6290400000000002  0.09237  1.0000
  O   O3        1.0  0.97648  0.10071  0.79109  1.0000
  O   O4        1.0  0.75288  0.15725000000000003  0.9004999999999997  1.0000
  O   O5        1.0  0.8020000000000002  0.80835  0.34383  1.0000
  O   O6        1.0  0.9313899999999997  0.8767500000000001  0.4119299999999999  1.0000
  O   O7        1.0  0.8720800000000002  0.39745  0.7048199999999998  1.0000
  O   O8        1.0  0.78789  0.34443  0.60329  1.0000
  O   O9        1.0  0.055870000000000024  0.30743  0.83759  1.0000
  O   O10       1.0  0.79288  0.37096  0.90763  1.0000
  O   O11       1.0  0.023530000000000186  0.8992900000000001  0.20889999999999995  1.0000
  O   O12       1.0  0.24712000000000003  0.84275  0.09949999999999998  1.0000
  O   O13       1.0  0.19801000000000005  0.19164000000000003  0.6561699999999998  1.0000
  O   O14       1.0  0.0686200000000001  0.12325000000000001  0.5880699999999998  1.0000
  O   O15       1.0  0.12793  0.60255  0.29517  1.0000
  O   O16       1.0  0.21211000000000002  0.65556  0.39671  1.0000
