data_image0
_chemical_formula_structural       Cd2Ni2H24C14N14
_chemical_formula_sum              "Cd2 Ni2 H24 C14 N14"
_cell_length_a       7.7328
_cell_length_b       11.943750000000001
_cell_length_c       13.15458
_cell_angle_alpha    91.51313
_cell_angle_beta     106.07228
_cell_angle_gamma    95.38282

_symmetry_space_group_name_H-M    'P 1'
_symmetry_Int_Tables_number       1

loop_
  _symmetry_equiv_pos_as_xyz
  'x,y,z'

loop_
  _atom_site_type_symbol
  _atom_site_label
  _atom_site_symmetry_multiplicity
  _atom_site_fract_x
  _atom_site_fract_y
  _atom_site_fract_z
  _atom_site_occupancy
  Cd  Cd1       1.0  0.11765999999999996  0.24968  0.19893  1.0000
  Cd  Cd2       1.0  0.8843199999999999  0.7502099999999999  0.80109  1.0000
  Ni  Ni1       1.0  0.50255  0.99169  0.00899  1.0000
  Ni  Ni2       1.0  0.99417  0.49903  0.49744  1.0000
  H   H1        1.0  0.28182  0.06246999999999999  0.29438  1.0000
  H   H2        1.0  0.14007999999999998  0.08871  0.36471999999999993  1.0000
  H   H3        1.0  0.47456  0.13152  0.46444  1.0000
  H   H4        1.0  0.33573  0.23759  0.46547  1.0000
  H   H5        1.0  0.5588  0.21266  0.3075  1.0000
  H   H6        1.0  0.6242  0.30692  0.42352  1.0000
  H   H7        1.0  0.38826  0.41186  0.34775999999999996  1.0000
  H   H8        1.0  0.47067  0.38334  0.25283  1.0000
  H   H9        1.0  0.8857099999999998  0.3164  0.01336  1.0000
  H   H10       1.0  0.08484999999999995  0.31939  0.98837  1.0000
  H   H11       1.0  0.97616  0.49562  0.11164999999999999  1.0000
  H   H12       1.0  0.18587  0.50084  0.08268  1.0000
  H   H13       1.0  0.71794  0.93734  0.70601  1.0000
  H   H14       1.0  0.8605  0.91073  0.63619  1.0000
  H   H15       1.0  0.5257699999999997  0.86858  0.53583  1.0000
  H   H16       1.0  0.6643599999999997  0.76254  0.53464  1.0000
  H   H17       1.0  0.44078  0.78726  0.69227  1.0000
  H   H18       1.0  0.37574  0.69285  0.57643  1.0000
  H   H19       1.0  0.6117499999999999  0.58806  0.65255  1.0000
  H   H20       1.0  0.5297199999999997  0.61703  0.7476099999999999  1.0000
  H   H21       1.0  0.1156  0.6837099999999999  0.98727  1.0000
  H   H22       1.0  0.91484  0.68156  0.01005  1.0000
  H   H23       1.0  0.024069999999999845  0.5044  0.8880599999999998  1.0000
  H   H24       1.0  0.8146099999999998  0.4998399999999999  0.9173099999999997  1.0000
  C   C1        1.0  0.3639  0.11208999999999998  0.0392  1.0000
  C   C2        1.0  0.72383  0.06517  0.09975  1.0000
  C   C3        1.0  0.9896  0.42443999999999993  0.36621  1.0000
  C   C4        1.0  0.22471999999999998  0.43679  0.57132  1.0000
  C   C5        1.0  0.38845  0.18665  0.41314  1.0000
  C   C6        1.0  0.50825  0.26337  0.36212  1.0000
  C   C7        1.0  0.04094  0.47167  0.0515  1.0000
  C   C8        1.0  0.6365699999999997  0.91746  0.92513  1.0000
  C   C9        1.0  0.28338  0.9031899999999999  0.93478  1.0000
  C   C10       1.0  0.031909999999999966  0.60462  0.62636  1.0000
  C   C11       1.0  0.74553  0.53231  0.4462999999999999  1.0000
  C   C12       1.0  0.6116499999999998  0.8133499999999998  0.58706  1.0000
  C   C13       1.0  0.4915999999999998  0.73648  0.63781  1.0000
  C   C14       1.0  0.95965  0.52867  0.94831  1.0000
  N   N1        1.0  0.28287  0.15741  0.08942  1.0000
  N   N2        1.0  0.85549  0.12598  0.13576  1.0000
  N   N3        1.0  0.9727699999999996  0.36232  0.29071  1.0000
  N   N4        1.0  0.3812799999999999  0.42854999999999993  0.59841  1.0000
  N   N5        1.0  0.23569999999999997  0.12434  0.33182999999999996  1.0000
  N   N6        1.0  0.3993099999999999  0.34595  0.29929  1.0000
  N   N7        1.0  0.020229999999999995  0.34659  0.04143999999999999  1.0000
  N   N8        1.0  0.71941  0.8463300000000001  0.90586  1.0000
  N   N9        1.0  0.14513999999999996  0.8697499999999999  0.8717099999999998  1.0000
  N   N10       1.0  0.026610000000000026  0.63813  0.70983  1.0000
  N   N11       1.0  0.61365  0.573  0.39952  1.0000
  N   N12       1.0  0.7641299999999998  0.87543  0.66863  1.0000
  N   N13       1.0  0.6008699999999998  0.65414  0.70093  1.0000
  N   N14       1.0  0.9811399999999997  0.65359  0.9582499999999998  1.0000
