data_image0
_chemical_formula_structural       Sr2H8C18O12
_chemical_formula_sum              "Sr2 H8 C18 O12"
_cell_length_a       7.03319
_cell_length_b       8.10964
_cell_length_c       10.296
_cell_angle_alpha    98.63585
_cell_angle_beta     104.38461000000001
_cell_angle_gamma    106.77293999999999

_symmetry_space_group_name_H-M    'P 1'
_symmetry_Int_Tables_number       1

loop_
  _symmetry_equiv_pos_as_xyz
  'x,y,z'

loop_
  _atom_site_type_symbol
  _atom_site_label
  _atom_site_symmetry_multiplicity
  _atom_site_fract_x
  _atom_site_fract_y
  _atom_site_fract_z
  _atom_site_occupancy
  Sr  Sr1       1.0  0.29923  0.54368  0.61837  1.0000
  Sr  Sr2       1.0  0.70077  0.45630999999999994  0.38163  1.0000
  H   H1        1.0  0.81389  0.07994  0.1859  1.0000
  H   H2        1.0  0.8128999999999997  0.08169  0.7664  1.0000
  H   H3        1.0  0.2847  0.48735999999999996  0.10316  1.0000
  H   H4        1.0  0.43937  0.69368  0.96033  1.0000
  H   H5        1.0  0.1861  0.92005  0.8141  1.0000
  H   H6        1.0  0.1870899999999999  0.9183099999999997  0.2336  1.0000
  H   H7        1.0  0.7152899999999998  0.5126399999999998  0.89684  1.0000
  H   H8        1.0  0.56063  0.30631  0.03967  1.0000
  C   C1        1.0  0.05508999999999997  0.29460999999999987  0.1596  1.0000
  C   C2        1.0  0.88033  0.13904  0.11205000000000001  1.0000
  C   C3        1.0  0.7928799999999998  0.06124000000000003  0.9701200000000001  1.0000
  C   C4        1.0  0.8796999999999999  0.14051000000000008  0.8766700000000001  1.0000
  C   C5        1.0  0.05606  0.29344  0.92389  1.0000
  C   C6        1.0  0.14501  0.36982  0.06588  1.0000
  C   C7        1.0  0.14137  0.38185  0.31017  1.0000
  C   C8        1.0  0.6118599999999997  0.8945599999999998  0.91308  1.0000
  C   C9        1.0  0.15081  0.36763  0.82085  1.0000
  C   C10       1.0  0.9449  0.70538  0.84041  1.0000
  C   C11       1.0  0.11966999999999989  0.86096  0.88795  1.0000
  C   C12       1.0  0.20710999999999982  0.9387599999999998  0.02988  1.0000
  C   C13       1.0  0.12029000000000001  0.85949  0.12333  1.0000
  C   C14       1.0  0.9439299999999997  0.7065599999999997  0.07612  1.0000
  C   C15       1.0  0.85498  0.6301699999999998  0.93412  1.0000
  C   C16       1.0  0.85862  0.61815  0.6898300000000002  1.0000
  C   C17       1.0  0.38813  0.10544000000000002  0.08692000000000001  1.0000
  C   C18       1.0  0.84919  0.6323700000000001  0.17915000000000003  1.0000
  O   O1        1.0  0.33308999999999994  0.48335  0.36162  1.0000
  O   O2        1.0  0.017720000000000017  0.35345  0.38358  1.0000
  O   O3        1.0  0.54796  0.81744  0.0071600000000000006  1.0000
  O   O4        1.0  0.52862  0.83422  0.7861700000000001  1.0000
  O   O5        1.0  0.06714999999999996  0.29185  0.69375  1.0000
  O   O6        1.0  0.31660999999999984  0.50675  0.86392  1.0000
  O   O7        1.0  0.6669  0.51665  0.63838  1.0000
  O   O8        1.0  0.9822699999999998  0.64655  0.61642  1.0000
  O   O9        1.0  0.4520399999999999  0.18255999999999997  0.9928400000000001  1.0000
  O   O10       1.0  0.47136999999999996  0.16578  0.21383  1.0000
  O   O11       1.0  0.93284  0.70815  0.30626  1.0000
  O   O12       1.0  0.68338  0.49323999999999996  0.13609  1.0000
