data_image0
_chemical_formula_structural       Er4H12C36N4O28
_chemical_formula_sum              "Er4 H12 C36 N4 O28"
_cell_length_a       12.83976
_cell_length_b       12.839130000000003
_cell_length_c       14.93129
_cell_angle_alpha    86.24772000000002
_cell_angle_beta     86.26444
_cell_angle_gamma    64.23757

_symmetry_space_group_name_H-M    'P 1'
_symmetry_Int_Tables_number       1

loop_
  _symmetry_equiv_pos_as_xyz
  'x,y,z'

loop_
  _atom_site_type_symbol
  _atom_site_label
  _atom_site_symmetry_multiplicity
  _atom_site_fract_x
  _atom_site_fract_y
  _atom_site_fract_z
  _atom_site_occupancy
  Er  Er1       1.0  0.011269999999999919  0.6395900000000001  0.9866  1.0000
  Er  Er2       1.0  0.9887300000000003  0.36042  0.013409999999999997  1.0000
  Er  Er3       1.0  0.36040000000000005  0.9888  0.51342  1.0000
  Er  Er4       1.0  0.6396  0.011210000000000006  0.4865799999999999  1.0000
  H   H1        1.0  0.74792  0.79859  0.22928  1.0000
  H   H2        1.0  0.4876800000000002  0.29789  0.3679999999999999  1.0000
  H   H3        1.0  0.28575  0.52335  0.15455  1.0000
  H   H4        1.0  0.20146  0.25203  0.27068  1.0000
  H   H5        1.0  0.29794999999999994  0.4875700000000002  0.8680099999999997  1.0000
  H   H6        1.0  0.51231  0.70211  0.6319899999999998  1.0000
  H   H7        1.0  0.7142300000000001  0.47666  0.8454299999999998  1.0000
  H   H8        1.0  0.4767100000000001  0.71419  0.34548  1.0000
  H   H9        1.0  0.7020400000000002  0.51244  0.13199  1.0000
  H   H10       1.0  0.5233000000000002  0.28581  0.65453  1.0000
  H   H11       1.0  0.2520700000000001  0.20142000000000002  0.77073  1.0000
  H   H12       1.0  0.7985200000000001  0.74798  0.72931  1.0000
  C   C1        1.0  0.7336  0.65458  0.17326999999999995  1.0000
  C   C2        1.0  0.2986100000000001  0.25502  0.76754  1.0000
  C   C3        1.0  0.23445000000000002  0.39106  0.20540999999999998  1.0000
  C   C4        1.0  0.54932  0.69643  0.2977  1.0000
  C   C5        1.0  0.41707000000000005  0.32364000000000004  0.32244999999999996  1.0000
  C   C6        1.0  0.34548000000000006  0.26633000000000007  0.3267699999999999  1.0000
  C   C7        1.0  0.60889  0.76561  0.2945899999999999  1.0000
  C   C8        1.0  0.26639  0.34543  0.82672  1.0000
  C   C9        1.0  0.2551000000000001  0.29854  0.26755  1.0000
  C   C10       1.0  0.5342199999999999  0.5219800000000001  0.74606  1.0000
  C   C11       1.0  0.58292  0.6763700000000002  0.6775399999999998  1.0000
  C   C12       1.0  0.7013800000000001  0.7449900000000003  0.23245999999999994  1.0000
  C   C13       1.0  0.58319  0.60369  0.24018999999999993  1.0000
  C   C14       1.0  0.42789  0.13981  0.64095  1.0000
  C   C15       1.0  0.8285700000000001  0.6378  0.10546999999999998  1.0000
  C   C16       1.0  0.57211  0.8602000000000002  0.35906  1.0000
  C   C17       1.0  0.39110999999999996  0.23439000000000002  0.7054099999999998  1.0000
  C   C18       1.0  0.13965000000000002  0.42797  0.14107999999999998  1.0000
  C   C19       1.0  0.6545100000000001  0.73368  0.67322  1.0000
  C   C20       1.0  0.3963800000000001  0.41676  0.2598  1.0000
  C   C21       1.0  0.45067999999999997  0.30357000000000006  0.7023099999999998  1.0000
  C   C22       1.0  0.4657800000000001  0.47801  0.25392  1.0000
  C   C23       1.0  0.60362  0.5832500000000002  0.74018  1.0000
  C   C24       1.0  0.67627  0.58302  0.17755999999999994  1.0000
  C   C25       1.0  0.7448900000000002  0.70147  0.73244  1.0000
  C   C26       1.0  0.17143000000000003  0.3622000000000001  0.8945199999999998  1.0000
  C   C27       1.0  0.7655500000000001  0.60895  0.7945799999999997  1.0000
  C   C28       1.0  0.63783  0.8287200000000003  0.6054699999999997  1.0000
  C   C29       1.0  0.36217  0.17129  0.39453  1.0000
  C   C30       1.0  0.5219800000000001  0.53426  0.24603999999999995  1.0000
  C   C31       1.0  0.3036  0.45066  0.2023  1.0000
  C   C32       1.0  0.86035  0.5720200000000001  0.8588999999999998  1.0000
  C   C33       1.0  0.4780399999999999  0.4657500000000001  0.75397  1.0000
  C   C34       1.0  0.4168099999999999  0.3963100000000001  0.75982  1.0000
  C   C35       1.0  0.6964000000000001  0.54935  0.7976899999999998  1.0000
  C   C36       1.0  0.3237200000000001  0.41699  0.8224399999999997  1.0000
  N   N1        1.0  0.25842999999999994  0.8454900000000002  0.48452  1.0000
  N   N2        1.0  0.8456100000000002  0.25835  0.9844599999999998  1.0000
  N   N3        1.0  0.74158  0.15451000000000004  0.5154799999999998  1.0000
  N   N4        1.0  0.15439000000000008  0.7416800000000001  0.015539999999999997  1.0000
  O   O1        1.0  0.5304  0.10302000000000001  0.60651  1.0000
  O   O2        1.0  0.46960000000000013  0.8969800000000002  0.3935  1.0000
  O   O3        1.0  0.047109999999999964  0.78448  0.04505  1.0000
  O   O4        1.0  0.8820900000000002  0.5406300000000002  0.0662  1.0000
  O   O5        1.0  0.11789000000000013  0.45938  0.9337799999999998  1.0000
  O   O6        1.0  0.6458599999999999  0.8980500000000002  0.37685999999999986  1.0000
  O   O7        1.0  0.7735000000000002  0.23293000000000005  0.9556399999999998  1.0000
  O   O8        1.0  0.8572600000000002  0.72016  0.08618  1.0000
  O   O9        1.0  0.27968  0.14282  0.4138699999999999  1.0000
  O   O10       1.0  0.5405800000000002  0.88267  0.5663299999999998  1.0000
  O   O11       1.0  0.8208300000000002  0.33483000000000007  0.046199999999999984  1.0000
  O   O12       1.0  0.72032  0.85718  0.58614  1.0000
  O   O13       1.0  0.10253  0.53068  0.10689999999999997  1.0000
  O   O14       1.0  0.3541400000000001  0.10196  0.62314  1.0000
  O   O15       1.0  0.22650000000000003  0.76709  0.04436999999999999  1.0000
  O   O16       1.0  0.9528800000000003  0.21556000000000006  0.9549499999999997  1.0000
  O   O17       1.0  0.21548999999999996  0.95284  0.4551199999999999  1.0000
  O   O18       1.0  0.17916999999999997  0.6652100000000001  0.9537999999999998  1.0000
  O   O19       1.0  0.3348700000000002  0.82065  0.5463299999999998  1.0000
  O   O20       1.0  0.6651299999999999  0.17935  0.45367  1.0000
  O   O21       1.0  0.7845200000000002  0.04716000000000001  0.5448799999999998  1.0000
  O   O22       1.0  0.10185999999999998  0.3542200000000001  0.12319999999999998  1.0000
  O   O23       1.0  0.8975100000000003  0.46929000000000004  0.89305  1.0000
  O   O24       1.0  0.14275999999999997  0.27983  0.91383  1.0000
  O   O25       1.0  0.23314999999999997  0.7733900000000001  0.45551999999999987  1.0000
  O   O26       1.0  0.8981200000000001  0.6457800000000002  0.87681  1.0000
  O   O27       1.0  0.7668600000000002  0.22661  0.5444799999999997  1.0000
  O   O28       1.0  0.45942000000000005  0.11735  0.4336699999999999  1.0000
