data_image0
_chemical_formula_structural       Y2H8C8O16
_chemical_formula_sum              "Y2 H8 C8 O16"
_cell_length_a       6.58159
_cell_length_b       8.03644
_cell_length_c       10.29063
_cell_angle_alpha    90.10595
_cell_angle_beta     108.70626
_cell_angle_gamma    89.82252999999999

_symmetry_space_group_name_H-M    'P 1'
_symmetry_Int_Tables_number       1

loop_
  _symmetry_equiv_pos_as_xyz
  'x,y,z'

loop_
  _atom_site_type_symbol
  _atom_site_label
  _atom_site_symmetry_multiplicity
  _atom_site_fract_x
  _atom_site_fract_y
  _atom_site_fract_z
  _atom_site_occupancy
  Y   Y1        1.0  0.3589399999999999  0.25142  0.7190399999999999  1.0000
  Y   Y2        1.0  0.6405  0.75096  0.28078  1.0000
  H   H1        1.0  0.44083  0.90668  0.53372  1.0000
  H   H2        1.0  0.55195  0.40519  0.46355  1.0000
  H   H3        1.0  0.08196999999999996  0.59333  0.5340699999999999  1.0000
  H   H4        1.0  0.9083500000000002  0.09247  0.46990999999999994  1.0000
  H   H5        1.0  0.81915  0.25018  0.6442199999999999  1.0000
  H   H6        1.0  0.17833000000000004  0.75043  0.35618  1.0000
  H   H7        1.0  0.27956  0.50576  0.00032999999999999994  1.0000
  H   H8        1.0  0.71599  0.9964399999999999  0.99991  1.0000
  C   C1        1.0  0.48232  0.01681  0.48165999999999987  1.0000
  C   C2        1.0  0.5173300000000001  0.51659  0.51773  1.0000
  C   C3        1.0  0.9953899999999999  0.48218  0.47832  1.0000
  C   C4        1.0  0.0019799999999999835  0.9820799999999997  0.52235  1.0000
  C   C5        1.0  0.8773599999999999  0.25024  0.7584299999999999  1.0000
  C   C6        1.0  0.12123000000000002  0.75038  0.24195  1.0000
  C   C7        1.0  0.44845000000000007  0.50469  0.9982699999999999  1.0000
  C   C8        1.0  0.54696  0.00147  0.00158  1.0000
  O   O1        1.0  0.7400800000000002  0.20843  0.81444  1.0000
  O   O2        1.0  0.48046  0.4420999999999999  0.89396  1.0000
  O   O3        1.0  0.53067  0.9914499999999998  0.37459  1.0000
  O   O4        1.0  0.47872  0.15768  0.53754  1.0000
  O   O5        1.0  0.25951  0.7083499999999998  0.18664  1.0000
  O   O6        1.0  0.5112600000000002  0.94162  0.10532999999999998  1.0000
  O   O7        1.0  0.46940999999999994  0.49191  0.6251  1.0000
  O   O8        1.0  0.52805  0.65747  0.46415  1.0000
  O   O9        1.0  0.07096000000000001  0.292  0.81334  1.0000
  O   O10       1.0  0.4096  0.06672  0.89927  1.0000
  O   O11       1.0  0.84198  0.50776  0.36985  1.0000
  O   O12       1.0  0.06017999999999997  0.34125  0.5319799999999999  1.0000
  O   O13       1.0  0.92745  0.7922499999999998  0.18642999999999998  1.0000
  O   O14       1.0  0.58981  0.56651  0.10032999999999999  1.0000
  O   O15       1.0  0.15899999999999995  0.00806  0.62874  1.0000
  O   O16       1.0  0.9406299999999999  0.84148  0.46713999999999994  1.0000
