data_image0
_chemical_formula_structural       Cd4H28C36N16O8
_chemical_formula_sum              "Cd4 H28 C36 N16 O8"
_cell_length_a       10.04741
_cell_length_b       11.509260000000001
_cell_length_c       18.76538
_cell_angle_alpha    105.83922999999999
_cell_angle_beta     105.45812999999998
_cell_angle_gamma    89.95897

_space_group_name_H-M_alt    "P 1"
_space_group_IT_number       1

loop_
  _space_group_symop_operation_xyz
  'x, y, z'

loop_
  _atom_site_type_symbol
  _atom_site_label
  _atom_site_symmetry_multiplicity
  _atom_site_fract_x
  _atom_site_fract_y
  _atom_site_fract_z
  _atom_site_occupancy
  Cd  Cd1       1.0  0.86229  0.35758  0.42954  1.0000
  Cd  Cd2       1.0  0.43288999999999994  0.14204999999999998  0.5702  1.0000
  Cd  Cd3       1.0  0.13771999999999995  0.64243  0.57046  1.0000
  Cd  Cd4       1.0  0.56712  0.85796  0.42980000000000007  1.0000
  H   H1        1.0  0.70087  0.91546  0.05766999999999999  1.0000
  H   H2        1.0  0.8167599999999999  0.03195  0.1911  1.0000
  H   H3        1.0  0.5077  0.2887  0.18118  1.0000
  H   H4        1.0  0.39048  0.17487000000000003  0.04732  1.0000
  H   H5        1.0  0.8924999999999998  0.8357700000000001  0.55299  1.0000
  H   H6        1.0  0.59265  0.45451  0.35988  1.0000
  H   H7        1.0  0.51894  0.58727  0.35886  1.0000
  H   H8        1.0  0.64436  0.58273  0.94212  1.0000
  H   H9        1.0  0.62642  0.46546000000000004  0.80862  1.0000
  H   H10       1.0  0.3267000000000001  0.21052  0.81938  1.0000
  H   H11       1.0  0.3427299999999999  0.32565  0.953  1.0000
  H   H12       1.0  0.34069999999999995  0.66387  0.44775  1.0000
  H   H13       1.0  0.22997999999999996  0.04596000000000002  0.63893  1.0000
  H   H14       1.0  0.15735999999999994  0.91367  0.64004  1.0000
  H   H15       1.0  0.29913999999999996  0.08454000000000003  0.9423299999999999  1.0000
  H   H16       1.0  0.1832499999999999  0.96806  0.8089  1.0000
  H   H17       1.0  0.4923000000000001  0.71131  0.8188200000000001  1.0000
  H   H18       1.0  0.60953  0.82514  0.9526799999999999  1.0000
  H   H19       1.0  0.10750999999999995  0.16424000000000002  0.44701  1.0000
  H   H20       1.0  0.40735999999999994  0.54549  0.64012  1.0000
  H   H21       1.0  0.48106999999999994  0.41274  0.64115  1.0000
  H   H22       1.0  0.35565  0.41728  0.05788  1.0000
  H   H23       1.0  0.37359  0.53455  0.19138  1.0000
  H   H24       1.0  0.67331  0.78949  0.18062  1.0000
  H   H25       1.0  0.6572799999999999  0.67436  0.047  1.0000
  H   H26       1.0  0.6593099999999998  0.3361300000000001  0.55225  1.0000
  H   H27       1.0  0.77003  0.95405  0.36107  1.0000
  H   H28       1.0  0.84265  0.08633000000000003  0.35996  1.0000
  C   C1        1.0  0.53501  0.03463  0.04041  1.0000
  C   C2        1.0  0.7386  0.23655  0.27646  1.0000
  C   C3        1.0  0.66932  0.16752  0.19521  1.0000
  C   C4        1.0  0.65637  0.9968700000000001  0.08344  1.0000
  C   C5        1.0  0.72268  0.06187  0.15907  1.0000
  C   C6        1.0  0.54872  0.20643  0.15344  1.0000
  C   C7        1.0  0.48344  0.14148  0.07769  1.0000
  C   C8        1.0  0.69764  0.60131  0.44127  1.0000
  C   C9        1.0  0.8441299999999999  0.74656  0.51897  1.0000
  C   C10       1.0  0.49475  0.46493  0.95963  1.0000
  C   C11       1.0  0.46452000000000004  0.26228  0.72368  1.0000
  C   C12       1.0  0.4747799999999999  0.33093  0.8049  1.0000
  C   C13       1.0  0.5736499999999999  0.50175  0.9165  1.0000
  C   C14       1.0  0.56428  0.43631000000000003  0.84092  1.0000
  C   C15       1.0  0.3955200000000001  0.29264000000000007  0.8467800000000001  1.0000
  C   C16       1.0  0.4057299999999999  0.3583100000000001  0.9225  1.0000
  C   C17       1.0  0.25449  0.89908  0.55789  1.0000
  C   C18       1.0  0.32517999999999997  0.75329  0.48116999999999993  1.0000
  C   C19       1.0  0.465  0.96538  0.95959  1.0000
  C   C20       1.0  0.26141  0.7634600000000001  0.72354  1.0000
  C   C21       1.0  0.33069  0.83249  0.80479  1.0000
  C   C22       1.0  0.34364000000000006  0.003139999999999965  0.91657  1.0000
  C   C23       1.0  0.27733  0.93813  0.84093  1.0000
  C   C24       1.0  0.45128999999999997  0.7935700000000001  0.84656  1.0000
  C   C25       1.0  0.51657  0.85853  0.92231  1.0000
  C   C26       1.0  0.30237  0.3987  0.55873  1.0000
  C   C27       1.0  0.15588  0.25344  0.48103  1.0000
  C   C28       1.0  0.50526  0.53507  0.04037  1.0000
  C   C29       1.0  0.53549  0.73773  0.27633  1.0000
  C   C30       1.0  0.52523  0.66908  0.1951  1.0000
  C   C31       1.0  0.42636  0.49825  0.08351  1.0000
  C   C32       1.0  0.43573  0.5637  0.15908  1.0000
  C   C33       1.0  0.60449  0.70737  0.15322  1.0000
  C   C34       1.0  0.5942800000000001  0.6417  0.0775  1.0000
  C   C35       1.0  0.7455199999999998  0.10091999999999995  0.44211  1.0000
  C   C36       1.0  0.67483  0.24672000000000002  0.51883  1.0000
  N   N1        1.0  0.81481  0.55099  0.46834  1.0000
  N   N2        1.0  0.7124199999999999  0.72447  0.47238  1.0000
  N   N3        1.0  0.9086099999999999  0.64587  0.51861  1.0000
  N   N4        1.0  0.57803  0.53828  0.39243  1.0000
  N   N5        1.0  0.34489  0.94908  0.53085  1.0000
  N   N6        1.0  0.23913999999999996  0.7758400000000001  0.52735  1.0000
  N   N7        1.0  0.38963  0.8539000000000001  0.48122000000000004  1.0000
  N   N8        1.0  0.18254999999999993  0.9624500000000001  0.60626  1.0000
  N   N9        1.0  0.18518999999999994  0.44902  0.53167  1.0000
  N   N10       1.0  0.28759  0.27554  0.52762  1.0000
  N   N11       1.0  0.09139  0.35413  0.48139  1.0000
  N   N12       1.0  0.4219800000000001  0.46172  0.60757  1.0000
  N   N13       1.0  0.6551199999999999  0.050929999999999975  0.46915999999999997  1.0000
  N   N14       1.0  0.76087  0.22417  0.4726600000000001  1.0000
  N   N15       1.0  0.61038  0.1461  0.51878  1.0000
  N   N16       1.0  0.8174599999999999  0.037559999999999975  0.39374  1.0000
  O   O1        1.0  0.85505  0.20470000000000002  0.31126000000000004  1.0000
  O   O2        1.0  0.6806899999999999  0.32568  0.31026  1.0000
  O   O3        1.0  0.54527  0.29646  0.68916  1.0000
  O   O4        1.0  0.37517  0.17148999999999998  0.68973  1.0000
  O   O5        1.0  0.14496  0.79531  0.68874  1.0000
  O   O6        1.0  0.31932  0.67433  0.68974  1.0000
  O   O7        1.0  0.45474  0.70355  0.31084  1.0000
  O   O8        1.0  0.62484  0.82852  0.31027  1.0000
