data_image0
_chemical_formula_structural       U6H12C18O24
_chemical_formula_sum              "U6 H12 C18 O24"
_cell_length_a       7.6352
_cell_length_b       7.69187
_cell_length_c       25.07844
_cell_angle_alpha    90.00339000000001
_cell_angle_beta     89.96663999999998
_cell_angle_gamma    120.87687

_symmetry_space_group_name_H-M    'P 1'
_symmetry_Int_Tables_number       1

loop_
  _symmetry_equiv_pos_as_xyz
  'x,y,z'

loop_
  _atom_site_type_symbol
  _atom_site_label
  _atom_site_symmetry_multiplicity
  _atom_site_fract_x
  _atom_site_fract_y
  _atom_site_fract_z
  _atom_site_occupancy
  U   U1        1.0  0.5599600000000002  0.0874  0.58247  1.0000
  U   U2        1.0  0.54049  0.45583  0.24976999999999996  1.0000
  U   U3        1.0  0.91244  0.45516  0.9172699999999999  1.0000
  U   U4        1.0  0.4566100000000001  0.91508  0.08337  1.0000
  U   U5        1.0  0.47059  0.5579  0.74967  1.0000
  U   U6        1.0  0.09173999999999999  0.54822  0.41661  1.0000
  H   H1        1.0  0.07925000000000003  0.38199  0.58453  1.0000
  H   H2        1.0  0.30614000000000013  0.9180499999999999  0.25028  1.0000
  H   H3        1.0  0.6162  0.69633  0.9154  1.0000
  H   H4        1.0  0.9213900000000003  0.61599  0.08451  1.0000
  H   H5        1.0  0.6958000000000002  0.08233  0.7497999999999999  1.0000
  H   H6        1.0  0.3842500000000001  0.30344  0.41606  1.0000
  H   H7        1.0  0.6946800000000002  0.611  0.08297  1.0000
  H   H8        1.0  0.3879300000000001  0.08551  0.4141099999999999  1.0000
  H   H9        1.0  0.9163100000000003  0.30709  0.74774  1.0000
  H   H10       1.0  0.3044800000000001  0.38870999999999994  0.58405  1.0000
  H   H11       1.0  0.61683  0.91837  0.9133699999999998  1.0000
  H   H12       1.0  0.08223  0.69573  0.24876  1.0000
  C   C1        1.0  0.2988  0.61055  0.63542  1.0000
  C   C2        1.0  0.31159  0.69763  0.30104  1.0000
  C   C3        1.0  0.3909  0.69023  0.96768  1.0000
  C   C4        1.0  0.6998000000000002  0.38832  0.13473  1.0000
  C   C5        1.0  0.68582  0.29861  0.80139  1.0000
  C   C6        1.0  0.61338  0.31238  0.4675099999999999  1.0000
  C   C7        1.0  0.6875100000000002  0.38863000000000003  0.0319  1.0000
  C   C8        1.0  0.6132100000000003  0.30364  0.36414  1.0000
  C   C9        1.0  0.6963000000000001  0.31395999999999996  0.6985799999999998  1.0000
  C   C10       1.0  0.31485000000000013  0.61309  0.53205  1.0000
  C   C11       1.0  0.38483000000000006  0.6971699999999998  0.86528  1.0000
  C   C12       1.0  0.29630999999999996  0.68606  0.19844999999999996  1.0000
  C   C13       1.0  0.24897000000000005  0.49594  0.58376  1.0000
  C   C14       1.0  0.24782999999999994  0.7507099999999999  0.25001  1.0000
  C   C15       1.0  0.50655  0.75324  0.91607  1.0000
  C   C16       1.0  0.75216  0.50472  0.08336  1.0000
  C   C17       1.0  0.7507200000000003  0.24969  0.74953  1.0000
  C   C18       1.0  0.4968699999999999  0.2508  0.41602  1.0000
  O   O1        1.0  0.36627  0.8031  0.63771  1.0000
  O   O2        1.0  0.25213  0.50116  0.67926  1.0000
  O   O3        1.0  0.43337  0.62662  0.30581  1.0000
  O   O4        1.0  0.24962000000000006  0.74957  0.3446  1.0000
  O   O5        1.0  0.19566999999999996  0.56178  0.9708099999999998  1.0000
  O   O6        1.0  0.50126  0.7560699999999999  0.01199  1.0000
  O   O7        1.0  0.62993  0.19403  0.13749  1.0000
  O   O8        1.0  0.74771  0.4969  0.17849  1.0000
  O   O9        1.0  0.56032  0.36549  0.8034999999999999  1.0000
  O   O10       1.0  0.7468300000000002  0.24886  0.84442  1.0000
  O   O11       1.0  0.8099300000000003  0.43465  0.47071  1.0000
  O   O12       1.0  0.50318  0.24709  0.51162  1.0000
  O   O13       1.0  0.5647200000000002  0.19357000000000002  0.02929  1.0000
  O   O14       1.0  0.75024  0.49743999999999994  0.98829  1.0000
  O   O15       1.0  0.80569  0.37089  0.36105  1.0000
  O   O16       1.0  0.5007800000000002  0.25684  0.32135  1.0000
  O   O17       1.0  0.63258  0.43867  0.69513  1.0000
  O   O18       1.0  0.73634  0.24287999999999998  0.65567  1.0000
  O   O19       1.0  0.43399  0.80855  0.52915  1.0000
  O   O20       1.0  0.25357  0.5042  0.48837  1.0000
  O   O21       1.0  0.18967999999999993  0.62906  0.86348  1.0000
  O   O22       1.0  0.48744000000000015  0.73929  0.82106  1.0000
  O   O23       1.0  0.37066999999999994  0.56584  0.19752  1.0000
  O   O24       1.0  0.24827999999999995  0.7384  0.15434999999999996  1.0000
