data_image0
_chemical_formula_structural       Eu2P2H24C42O14
_chemical_formula_sum              "Eu2 P2 H24 C42 O14"
_cell_length_a       10.64434
_cell_length_b       12.16524
_cell_length_c       14.59046
_cell_angle_alpha    73.78093
_cell_angle_beta     74.21447
_cell_angle_gamma    67.91309999999999

_symmetry_space_group_name_H-M    'P 1'
_symmetry_Int_Tables_number       1

loop_
  _symmetry_equiv_pos_as_xyz
  'x,y,z'

loop_
  _atom_site_type_symbol
  _atom_site_label
  _atom_site_symmetry_multiplicity
  _atom_site_fract_x
  _atom_site_fract_y
  _atom_site_fract_z
  _atom_site_occupancy
  Eu  Eu1       1.0  0.9888299999999999  0.46836000000000005  0.37556  1.0000
  Eu  Eu2       1.0  0.011850000000000008  0.53075  0.62474  1.0000
  P   P1        1.0  0.8654500000000002  0.27775999999999995  0.27309  1.0000
  P   P2        1.0  0.13426000000000002  0.72215  0.72707  1.0000
  H   H1        1.0  0.5053800000000002  0.3669299999999999  0.55901  1.0000
  H   H2        1.0  0.05862  0.10804  0.3883  1.0000
  H   H3        1.0  0.74714  0.31877  0.4640800000000001  1.0000
  H   H4        1.0  0.03777  0.16958  0.10799000000000003  1.0000
  H   H5        1.0  0.3551800000000001  0.38014999999999993  0.30984  1.0000
  H   H6        1.0  0.5944799999999999  0.32951  0.21448000000000003  1.0000
  H   H7        1.0  0.8017400000000001  0.09260999999999998  0.21223000000000006  1.0000
  H   H8        1.0  0.74619  0.58437  0.97704  1.0000
  H   H9        1.0  0.06935  0.25282999999999983  0.9294100000000002  1.0000
  H   H10       1.0  0.12222999999999995  0.88366  0.4468100000000001  1.0000
  H   H11       1.0  0.87352  0.86748  0.26657  1.0000
  H   H12       1.0  0.71813  0.50623  0.15644  1.0000
  H   H13       1.0  0.49558000000000013  0.63282  0.4420800000000001  1.0000
  H   H14       1.0  0.94105  0.89163  0.6116100000000001  1.0000
  H   H15       1.0  0.25343000000000004  0.6815399999999998  0.53642  1.0000
  H   H16       1.0  0.9625900000000005  0.8297399999999996  0.89283  1.0000
  H   H17       1.0  0.64405  0.6208300000000001  0.69185  1.0000
  H   H18       1.0  0.40452000000000005  0.67141  0.78646  1.0000
  H   H19       1.0  0.19820000000000002  0.90714  0.78736  1.0000
  H   H20       1.0  0.25436  0.41395  0.021940000000000005  1.0000
  H   H21       1.0  0.93138  0.74548  0.07124000000000001  1.0000
  H   H22       1.0  0.87755  0.11618999999999999  0.55292  1.0000
  H   H23       1.0  0.12654999999999997  0.13237999999999994  0.7328400000000003  1.0000
  H   H24       1.0  0.28136  0.49351000000000006  0.84279  1.0000
  C   C1        1.0  0.8740900000000001  0.33170999999999995  0.14388000000000004  1.0000
  C   C2        1.0  0.52755  0.35728  0.48388  1.0000
  C   C3        1.0  0.92615  0.11422  0.29728  1.0000
  C   C4        1.0  0.6866300000000002  0.32018  0.33329  1.0000
  C   C5        1.0  0.01879999999999996  0.05478999999999998  0.3618400000000001  1.0000
  C   C6        1.0  0.6617600000000001  0.33024999999999993  0.4308800000000001  1.0000
  C   C7        1.0  0.41687  0.3752  0.44057000000000013  1.0000
  C   C8        1.0  0.9738600000000001  0.26027999999999996  0.07981000000000003  1.0000
  C   C9        1.0  0.44154000000000004  0.36461999999999994  0.34350000000000014  1.0000
  C   C10       1.0  0.57621  0.33669999999999994  0.28998  1.0000
  C   C11       1.0  0.87373  0.04702  0.26216  1.0000
  C   C12       1.0  0.90842  0.4222199999999999  0.9430600000000001  1.0000
  C   C13       1.0  0.9321399999999999  0.4669499999999998  0.8354700000000003  1.0000
  C   C14       1.0  0.8087200000000001  0.4937499999999999  0.006660000000000002  1.0000
  C   C15       1.0  0.9915200000000001  0.30589  0.98015  1.0000
  C   C16       1.0  4.000000000007939e-05  0.8627499999999998  0.36068  1.0000
  C   C17       1.0  0.054229999999999924  0.92961  0.3942400000000001  1.0000
  C   C18       1.0  0.91254  0.92169  0.29258  1.0000
  C   C19       1.0  0.025869999999999962  0.72976  0.40089000000000014  1.0000
  C   C20       1.0  0.27409999999999995  0.41005  0.49942  1.0000
  C   C21       1.0  0.7926500000000001  0.44945  0.10686000000000002  1.0000
  C   C22       1.0  0.1256  0.66769  0.8562800000000003  1.0000
  C   C23       1.0  0.4731399999999997  0.6428299999999999  0.51713  1.0000
  C   C24       1.0  0.07338000000000024  0.8856599999999999  0.70264  1.0000
  C   C25       1.0  0.31333  0.68019  0.66733  1.0000
  C   C26       1.0  0.9808400000000003  0.94498  0.63798  1.0000
  C   C27       1.0  0.33871000000000007  0.6699699999999997  0.56976  1.0000
  C   C28       1.0  0.5835599999999997  0.62515  0.5606  1.0000
  C   C29       1.0  0.026259999999999922  0.73881  0.9207000000000002  1.0000
  C   C30       1.0  0.5582400000000001  0.6360999999999998  0.65772  1.0000
  C   C31       1.0  0.42333999999999994  0.66395  0.71093  1.0000
  C   C32       1.0  0.12611999999999998  0.9528099999999997  0.7375100000000002  1.0000
  C   C33       1.0  0.09214  0.57602  0.05698000000000002  1.0000
  C   C34       1.0  0.06864  0.5311  0.16455  1.0000
  C   C35       1.0  0.19151999999999994  0.50481  0.9929500000000001  1.0000
  C   C36       1.0  0.008990000000000007  0.6926  0.02029  1.0000
  C   C37       1.0  0.9994600000000001  0.13700000000000004  0.63924  1.0000
  C   C38       1.0  0.9454700000000006  0.07012999999999997  0.60555  1.0000
  C   C39       1.0  0.08735000000000005  0.07812  0.70708  1.0000
  C   C40       1.0  0.9722500000000001  0.27023999999999987  0.59989  1.0000
  C   C41       1.0  0.7266099999999998  0.5900299999999999  0.5016400000000001  1.0000
  C   C42       1.0  0.20707999999999993  0.5497699999999998  0.8928500000000003  1.0000
  O   O1        1.0  0.052269999999999976  0.41924  0.7873400000000002  1.0000
  O   O2        1.0  0.25922000000000006  0.4286899999999999  0.58369  1.0000
  O   O3        1.0  0.055679999999999945  0.6891099999999999  0.48580000000000007  1.0000
  O   O4        1.0  0.8384900000000001  0.54817  0.79236  1.0000
  O   O5        1.0  0.01225000000000001  0.66796  0.3496  1.0000
  O   O6        1.0  0.17057999999999998  0.42266  0.4633400000000001  1.0000
  O   O7        1.0  0.94992  0.32181  0.31383  1.0000
  O   O8        1.0  0.94829  0.5780399999999999  0.21275  1.0000
  O   O9        1.0  0.7415999999999998  0.57165  0.4172700000000001  1.0000
  O   O10       1.0  0.9447100000000002  0.31076999999999994  0.51426  1.0000
  O   O11       1.0  0.16258000000000006  0.45067999999999997  0.20784000000000002  1.0000
  O   O12       1.0  0.9823200000000002  0.33237999999999995  0.6523700000000001  1.0000
  O   O13       1.0  0.8302200000000001  0.5770200000000001  0.53755  1.0000
  O   O14       1.0  0.05009000000000001  0.6780399999999999  0.6861200000000002  1.0000
