data_image0
_chemical_formula_structural       La2Zn2H20C40N6O20
_chemical_formula_sum              "La2 Zn2 H20 C40 N6 O20"
_cell_length_a       10.42511
_cell_length_b       12.28249
_cell_length_c       12.62955
_cell_angle_alpha    85.07113999999999
_cell_angle_beta     79.08818
_cell_angle_gamma    76.06141

_symmetry_space_group_name_H-M    'P 1'
_symmetry_Int_Tables_number       1

loop_
  _symmetry_equiv_pos_as_xyz
  'x,y,z'

loop_
  _atom_site_type_symbol
  _atom_site_label
  _atom_site_symmetry_multiplicity
  _atom_site_fract_x
  _atom_site_fract_y
  _atom_site_fract_z
  _atom_site_occupancy
  La  La1       1.0  0.98575  0.13584  0.82561  1.0000
  La  La2       1.0  0.014249999999999997  0.86416  0.1744  1.0000
  Zn  Zn1       1.0  0.18328999999999998  0.3475400000000001  0.1991  1.0000
  Zn  Zn2       1.0  0.8167  0.65247  0.80091  1.0000
  H   H1        1.0  0.32251  0.70764  0.9971  1.0000
  H   H2        1.0  0.23841000000000004  0.54318  0.33366  1.0000
  H   H3        1.0  0.33971  0.37906  0.9021  1.0000
  H   H4        1.0  0.10194999999999999  0.6852300000000002  0.77747  1.0000
  H   H5        1.0  0.5659000000000001  0.6056500000000001  0.9425799999999999  1.0000
  H   H6        1.0  0.3281900000000002  0.57208  0.8157599999999999  1.0000
  H   H7        1.0  0.14601999999999998  0.4299300000000001  0.66643  1.0000
  H   H8        1.0  0.22590000000000002  0.57125  0.53035  1.0000
  H   H9        1.0  0.39072000000000007  0.95194  0.73876  1.0000
  H   H10       1.0  0.6349300000000001  0.8481500000000001  0.70503  1.0000
  H   H11       1.0  0.67749  0.2923700000000001  0.00291  1.0000
  H   H12       1.0  0.7615800000000001  0.4568200000000001  0.66634  1.0000
  H   H13       1.0  0.66029  0.62094  0.0979  1.0000
  H   H14       1.0  0.89805  0.31477  0.22252999999999998  1.0000
  H   H15       1.0  0.43409999999999993  0.39436000000000004  0.05741999999999999  1.0000
  H   H16       1.0  0.67181  0.42793  0.18425  1.0000
  H   H17       1.0  0.8539800000000001  0.57008  0.33357  1.0000
  H   H18       1.0  0.7741  0.4287500000000001  0.46966  1.0000
  H   H19       1.0  0.60928  0.04807000000000001  0.26124  1.0000
  H   H20       1.0  0.36507  0.15186000000000002  0.29497  1.0000
  C   C1        1.0  0.012509999999999993  0.45096  0.87444  1.0000
  C   C2        1.0  0.13214999999999996  0.3839100000000001  0.9028699999999998  1.0000
  C   C3        1.0  0.8792700000000001  0.41681000000000007  0.88735  1.0000
  C   C4        1.0  0.15304  0.26757000000000003  0.95798  1.0000
  C   C5        1.0  0.12430000000000006  0.32149  0.43387  1.0000
  C   C6        1.0  0.08614999999999998  0.22509000000000004  0.38906  1.0000
  C   C7        1.0  0.38939999999999997  0.74025  0.93165  1.0000
  C   C8        1.0  0.206  0.48391000000000006  0.3958  1.0000
  C   C9        1.0  0.34069999999999995  0.8391200000000002  0.8735799999999999  1.0000
  C   C10       1.0  0.24633999999999995  0.4294600000000001  0.8807900000000001  1.0000
  C   C11       1.0  0.11668000000000003  0.5994  0.81154  1.0000
  C   C12       1.0  0.11209999999999992  0.33144000000000007  0.54498  1.0000
  C   C13       1.0  0.19873999999999992  0.9047200000000001  0.9061199999999999  1.0000
  C   C14       1.0  0.5230099999999996  0.68456  0.90278  1.0000
  C   C15       1.0  0.24006000000000002  0.5365900000000001  0.83344  1.0000
  C   C16       1.0  0.15149999999999997  0.42129000000000005  0.58058  1.0000
  C   C17       1.0  0.19762999999999997  0.49908000000000013  0.50527  1.0000
  C   C18       1.0  0.06228000000000001  0.24802  0.62681  1.0000
  C   C19       1.0  0.42717  0.8772100000000003  0.78737  1.0000
  C   C20       1.0  0.5613600000000001  0.8191500000000002  0.7671899999999999  1.0000
  C   C21       1.0  0.98749  0.5490400000000001  0.12557  1.0000
  C   C22       1.0  0.86785  0.61609  0.09714  1.0000
  C   C23       1.0  0.12072999999999998  0.58319  0.11265  1.0000
  C   C24       1.0  0.8469600000000002  0.7324400000000002  0.04202  1.0000
  C   C25       1.0  0.87569  0.67851  0.56614  1.0000
  C   C26       1.0  0.9138500000000002  0.77492  0.61094  1.0000
  C   C27       1.0  0.6106  0.25976  0.06835  1.0000
  C   C28       1.0  0.7940000000000003  0.5161  0.60421  1.0000
  C   C29       1.0  0.6593  0.16088000000000002  0.12642  1.0000
  C   C30       1.0  0.7536600000000001  0.5705400000000002  0.11920999999999998  1.0000
  C   C31       1.0  0.8833200000000001  0.40061000000000013  0.18847  1.0000
  C   C32       1.0  0.8878899999999997  0.6685700000000002  0.45503  1.0000
  C   C33       1.0  0.80126  0.09529000000000001  0.09387999999999999  1.0000
  C   C34       1.0  0.47698  0.31544000000000005  0.09722  1.0000
  C   C35       1.0  0.75994  0.46341  0.16655999999999999  1.0000
  C   C36       1.0  0.8484900000000001  0.5787200000000001  0.41942  1.0000
  C   C37       1.0  0.80237  0.50093  0.49473  1.0000
  C   C38       1.0  0.93772  0.7519800000000002  0.3732  1.0000
  C   C39       1.0  0.57282  0.12279  0.21264  1.0000
  C   C40       1.0  0.43864  0.18085000000000007  0.23280999999999996  1.0000
  N   N1        1.0  0.17110000000000003  0.39634000000000014  0.3616599999999999  1.0000
  N   N2        1.0  0.6087600000000001  0.72473  0.82411  1.0000
  N   N3        1.0  0.007440000000000033  0.55648  0.8317099999999998  1.0000
  N   N4        1.0  0.8288900000000001  0.60367  0.63834  1.0000
  N   N5        1.0  0.39123  0.27528  0.1759  1.0000
  N   N6        1.0  0.99255  0.4435200000000001  0.1683  1.0000
  O   O1        1.0  0.15151999999999993  0.9097500000000001  0.00653  1.0000
  O   O2        1.0  0.18857000000000002  0.25571  0.04798  1.0000
  O   O3        1.0  0.03779000000000001  0.15857  0.45507999999999993  1.0000
  O   O4        1.0  0.9375500000000002  0.26971000000000006  0.6717099999999999  1.0000
  O   O5        1.0  0.14909999999999995  0.16754  0.6609  1.0000
  O   O6        1.0  0.7772600000000001  0.49253  0.87341  1.0000
  O   O7        1.0  0.10913000000000002  0.22112  0.28464  1.0000
  O   O8        1.0  0.1448600000000001  0.18567  0.90439  1.0000
  O   O9        1.0  0.13641999999999993  0.9520400000000001  0.83105  1.0000
  O   O10       1.0  0.8771899999999999  0.31401  0.91099  1.0000
  O   O11       1.0  0.8484700000000002  0.09025000000000002  0.99347  1.0000
  O   O12       1.0  0.8114300000000004  0.7442900000000001  0.9520299999999999  1.0000
  O   O13       1.0  0.9622100000000001  0.8414400000000001  0.54493  1.0000
  O   O14       1.0  0.06245  0.7303  0.3283  1.0000
  O   O15       1.0  0.8508900000000001  0.8324600000000001  0.33911  1.0000
  O   O16       1.0  0.22274  0.50748  0.12659  1.0000
  O   O17       1.0  0.8908700000000002  0.7788900000000002  0.71536  1.0000
  O   O18       1.0  0.85513  0.81433  0.09561000000000001  1.0000
  O   O19       1.0  0.8635800000000001  0.04796  0.16896  1.0000
  O   O20       1.0  0.12279999999999992  0.6859900000000002  0.08901  1.0000
