data_image0
_chemical_formula_structural       Zn3H28C30N2O12
_chemical_formula_sum              "Zn3 H28 C30 N2 O12"
_cell_length_a       9.04395
_cell_length_b       9.13525
_cell_length_c       19.82054
_cell_angle_alpha    95.64835
_cell_angle_beta     97.91584
_cell_angle_gamma    117.89669

_symmetry_space_group_name_H-M    'P 1'
_symmetry_Int_Tables_number       1

loop_
  _symmetry_equiv_pos_as_xyz
  'x,y,z'

loop_
  _atom_site_type_symbol
  _atom_site_label
  _atom_site_symmetry_multiplicity
  _atom_site_fract_x
  _atom_site_fract_y
  _atom_site_fract_z
  _atom_site_occupancy
  Zn  Zn1       1.0  0.31140999999999996  0.4436199999999999  0.7734399999999999  1.0000
  Zn  Zn2       1.0  0.4405499999999999  0.6151399999999999  0.9369899999999999  1.0000
  Zn  Zn3       1.0  0.57025  0.79184  0.09905999999999997  1.0000
  H   H1        1.0  0.37704999999999983  0.9889399999999999  0.8400099999999999  1.0000
  H   H2        1.0  0.48358  0.06733  0.77227  1.0000
  H   H3        1.0  0.7778699999999998  0.07427999999999996  0.77242  1.0000
  H   H4        1.0  0.8567700000000001  0.99601  0.8378799999999998  1.0000
  H   H5        1.0  0.8505599999999999  0.46400999999999987  0.8914099999999998  1.0000
  H   H6        1.0  0.77506  0.35578  0.80407  1.0000
  H   H7        1.0  0.03270000000000003  0.76801  0.9804199999999997  1.0000
  H   H8        1.0  0.10633  0.87598  0.06780999999999998  1.0000
  H   H9        1.0  0.50284  0.24639  0.03233  1.0000
  H   H10       1.0  0.39634  0.16718  0.09998  1.0000
  H   H11       1.0  0.10117  0.15523  0.09939  1.0000
  H   H12       1.0  0.01988  0.23225  0.03427  1.0000
  H   H13       1.0  0.0022000000000000053  0.16614  0.68603  1.0000
  H   H14       1.0  0.87657  0.042140000000000004  0.56091  1.0000
  H   H15       1.0  0.32199000000000005  0.45511  0.51513  1.0000
  H   H16       1.0  0.42563  0.56548  0.64406  1.0000
  H   H17       1.0  0.10928000000000006  0.2584  0.41992  1.0000
  H   H18       1.0  0.79309  0.9642700000000002  0.45214  1.0000
  H   H19       1.0  0.5849200000000001  0.76156  0.3578799999999999  1.0000
  H   H20       1.0  0.46941000000000005  0.65902  0.22884  1.0000
  H   H21       1.0  0.8781300000000001  0.07146999999999999  0.18534999999999996  1.0000
  H   H22       1.0  0.012270000000000005  0.19021  0.31018  1.0000
  H   H23       1.0  0.61504  0.9529299999999999  0.89616  1.0000
  H   H24       1.0  0.8931  0.23157999999999995  0.9276699999999999  1.0000
  H   H25       1.0  0.6094  0.23044000000000006  0.92652  1.0000
  H   H26       1.0  0.98704  0.9987999999999999  0.94407  1.0000
  H   H27       1.0  0.26286  0.27914  0.97582  1.0000
  H   H28       1.0  0.2728  0.0030100000000000023  0.94576  1.0000
  C   C1        1.0  0.5059599999999999  0.33748999999999996  0.8574699999999998  1.0000
  C   C2        1.0  0.5998700000000001  0.23857  0.8712799999999999  1.0000
  C   C3        1.0  0.50362  0.05976000000000001  0.82743  1.0000
  C   C4        1.0  0.6060899999999998  0.9664599999999999  0.8416299999999999  1.0000
  C   C5        1.0  0.51021  0.79089  0.79805  1.0000
  C   C6        1.0  0.78663  0.06504999999999998  0.82746  1.0000
  C   C7        1.0  0.8824500000000003  0.24195  0.87258  1.0000
  C   C8        1.0  0.06419000000000001  0.34630999999999995  0.8623999999999999  1.0000
  C   C9        1.0  0.7828  0.3383099999999999  0.8582799999999998  1.0000
  C   C10       1.0  0.8166500000000001  0.88354  0.00951  1.0000
  C   C11       1.0  0.99787  0.9883199999999999  0.99913  1.0000
  C   C12       1.0  0.09899999999999999  0.89359  0.01362  1.0000
  C   C13       1.0  0.28219  0.99524  0.0010299999999999999  1.0000
  C   C14       1.0  0.37636  0.89659  0.01506  1.0000
  C   C15       1.0  0.37637  0.17427  0.04477  1.0000
  C   C16       1.0  0.27189  0.2657  0.030359999999999998  1.0000
  C   C17       1.0  0.365  0.44092  0.07447  1.0000
  C   C18       1.0  0.09179  0.16484  0.04439999999999999  1.0000
  C   C19       1.0  0.06804999999999997  0.22426  0.64591  1.0000
  C   C20       1.0  0.99954  0.15707999999999994  0.57598  1.0000
  C   C21       1.0  0.08904999999999999  0.23886  0.52622  1.0000
  C   C22       1.0  0.24713  0.38695999999999997  0.5512399999999998  1.0000
  C   C23       1.0  0.30743  0.44825  0.6221  1.0000
  C   C24       1.0  0.02582000000000001  0.18039  0.45164  1.0000
  C   C25       1.0  0.8756700000000001  0.042529999999999964  0.42024999999999996  1.0000
  C   C26       1.0  0.8092600000000001  0.98545  0.3458  1.0000
  C   C27       1.0  0.6536  0.83442  0.32136  1.0000
  C   C28       1.0  0.58706  0.77714  0.25059  1.0000
  C   C29       1.0  0.81788  0.00867999999999998  0.22579999999999997  1.0000
  C   C30       1.0  0.8915900000000001  0.07273  0.2956  1.0000
  N   N1        1.0  0.21941000000000005  0.36803000000000013  0.66883  1.0000
  N   N2        1.0  0.6677800000000002  0.86326  0.20342999999999997  1.0000
  O   O1        1.0  0.45167  0.33401  0.79341  1.0000
  O   O2        1.0  0.48951000000000006  0.41656999999999994  0.9094299999999998  1.0000
  O   O3        1.0  0.5055299999999999  0.7632  0.7348199999999999  1.0000
  O   O4        1.0  0.42679  0.66805  0.83113  1.0000
  O   O5        1.0  0.09023000000000002  0.31727  0.80137  1.0000
  O   O6        1.0  0.17407  0.45508  0.91348  1.0000
  O   O7        1.0  0.70582  0.7759  0.9583499999999999  1.0000
  O   O8        1.0  0.79183  0.91175  0.07081  1.0000
  O   O9        1.0  0.38772  0.81248  0.9633299999999999  1.0000
  O   O10       1.0  0.43473  0.90445  0.07926999999999998  1.0000
  O   O11       1.0  0.45310000000000006  0.56493  0.04272999999999999  1.0000
  O   O12       1.0  0.36307  0.46677  0.13706  1.0000
