data_image0
_chemical_formula_structural       Cu4H32C32N16
_chemical_formula_sum              "Cu4 H32 C32 N16"
_cell_length_a       11.83014
_cell_length_b       11.86734
_cell_length_c       12.79232
_cell_angle_alpha    90.073
_cell_angle_beta     89.82306
_cell_angle_gamma    114.65517

_symmetry_space_group_name_H-M    'P 1'
_symmetry_Int_Tables_number       1

loop_
  _symmetry_equiv_pos_as_xyz
  'x,y,z'

loop_
  _atom_site_type_symbol
  _atom_site_label
  _atom_site_symmetry_multiplicity
  _atom_site_fract_x
  _atom_site_fract_y
  _atom_site_fract_z
  _atom_site_occupancy
  Cu  Cu1       1.0  0.23902000000000012  0.9732500000000001  0.87721  1.0000
  Cu  Cu2       1.0  0.76248  0.52769  0.3777400000000001  1.0000
  Cu  Cu3       1.0  0.76098  0.026749999999999996  0.12279  1.0000
  Cu  Cu4       1.0  0.23752000000000004  0.47231  0.62226  1.0000
  H   H1        1.0  0.15439  0.01871  0.66095  1.0000
  H   H2        1.0  0.35806000000000004  0.24724  0.9034999999999999  1.0000
  H   H3        1.0  0.11849  0.19448  0.58544  1.0000
  H   H4        1.0  0.32004  0.42253  0.82944  1.0000
  H   H5        1.0  0.9592100000000001  0.83211  0.87636  1.0000
  H   H6        1.0  0.20932  0.10629000000000001  0.06842  1.0000
  H   H7        1.0  0.30461  0.92018  0.09595  1.0000
  H   H8        1.0  0.51296  0.11370000000000001  0.83944  1.0000
  H   H9        1.0  0.8462  0.48073  0.16032000000000002  1.0000
  H   H10       1.0  0.64274  0.25433  0.40462  1.0000
  H   H11       1.0  0.8808100000000001  0.30387  0.08492  1.0000
  H   H12       1.0  0.67927  0.07793  0.3305  1.0000
  H   H13       1.0  0.04238999999999999  0.66859  0.37692000000000003  1.0000
  H   H14       1.0  0.78987  0.39386  0.56779  1.0000
  H   H15       1.0  0.69427  0.58031  0.59664  1.0000
  H   H16       1.0  0.4895  0.38725999999999994  0.33918999999999994  1.0000
  H   H17       1.0  0.84561  0.98129  0.33904999999999996  1.0000
  H   H18       1.0  0.64194  0.75276  0.0965  1.0000
  H   H19       1.0  0.88151  0.80552  0.41456  1.0000
  H   H20       1.0  0.67996  0.57747  0.17056  1.0000
  H   H21       1.0  0.04079  0.16789  0.12364  1.0000
  H   H22       1.0  0.79068  0.8937000000000002  0.93158  1.0000
  H   H23       1.0  0.69539  0.07982  0.90405  1.0000
  H   H24       1.0  0.48703999999999986  0.8862999999999999  0.16056000000000004  1.0000
  H   H25       1.0  0.1538  0.51926  0.83968  1.0000
  H   H26       1.0  0.35726  0.74567  0.59538  1.0000
  H   H27       1.0  0.11919  0.69612  0.91508  1.0000
  H   H28       1.0  0.32073  0.9220700000000001  0.66949  1.0000
  H   H29       1.0  0.95761  0.3314  0.62308  1.0000
  H   H30       1.0  0.21013  0.60614  0.43221  1.0000
  H   H31       1.0  0.3057300000000001  0.41969  0.40335  1.0000
  H   H32       1.0  0.5105  0.61274  0.66081  1.0000
  C   C1        1.0  0.19254999999999997  0.1094  0.6983  1.0000
  C   C2        1.0  0.30467  0.23552000000000003  0.8321  1.0000
  C   C3        1.0  0.17138000000000003  0.20618000000000003  0.6571200000000001  1.0000
  C   C4        1.0  0.28308  0.33216  0.79159  1.0000
  C   C5        1.0  0.9775400000000001  0.9070400000000001  0.9321200000000001  1.0000
  C   C6        1.0  0.11550000000000002  0.05842  0.03786  1.0000
  C   C7        1.0  0.39207000000000003  0.95616  0.052969999999999996  1.0000
  C   C8        1.0  0.50718  0.06303  0.9115  1.0000
  C   C9        1.0  0.80781  0.39031  0.19811  1.0000
  C   C10       1.0  0.6958  0.26536  0.33286  1.0000
  C   C11       1.0  0.82823  0.29294  0.15692999999999996  1.0000
  C   C12       1.0  0.71658  0.16809  0.29231  1.0000
  C   C13       1.0  0.02342000000000001  0.59341  0.43247  1.0000
  C   C14       1.0  0.88406  0.44166000000000005  0.5376  1.0000
  C   C15       1.0  0.60731  0.5441  0.55332  1.0000
  C   C16       1.0  0.49414  0.43745000000000006  0.41144  1.0000
  C   C17       1.0  0.8074500000000001  0.8906  0.3017  1.0000
  C   C18       1.0  0.69533  0.7644700000000001  0.16789  1.0000
  C   C19       1.0  0.82862  0.79382  0.34288  1.0000
  C   C20       1.0  0.71692  0.66784  0.20841  1.0000
  C   C21       1.0  0.022460000000000004  0.09295  0.06788  1.0000
  C   C22       1.0  0.8845  0.94158  0.96213  1.0000
  C   C23       1.0  0.60793  0.04384  0.94703  1.0000
  C   C24       1.0  0.49282  0.93697  0.08849  1.0000
  C   C25       1.0  0.19219  0.60969  0.80188  1.0000
  C   C26       1.0  0.3042  0.73463  0.66714  1.0000
  C   C27       1.0  0.17177  0.70706  0.84306  1.0000
  C   C28       1.0  0.28342  0.83191  0.70769  1.0000
  C   C29       1.0  0.9765800000000002  0.40659  0.56753  1.0000
  C   C30       1.0  0.11594  0.55834  0.46239  1.0000
  C   C31       1.0  0.39269  0.4558900000000001  0.44668  1.0000
  C   C32       1.0  0.50586  0.56255  0.58856  1.0000
  N   N1        1.0  0.26124  0.12048  0.7868399999999999  1.0000
  N   N2        1.0  0.21647  0.32186  0.70187  1.0000
  N   N3        1.0  0.09696999999999997  0.96416  0.9683799999999999  1.0000
  N   N4        1.0  0.39510000000000006  0.01955  0.9627500000000001  1.0000
  N   N5        1.0  0.73956  0.38015  0.28711  1.0000
  N   N6        1.0  0.7827  0.1775  0.20211  1.0000
  N   N7        1.0  0.9036299999999999  0.53638  0.46848  1.0000
  N   N8        1.0  0.60563  0.48107  0.46305  1.0000
  N   N9        1.0  0.73876  0.87952  0.21315  1.0000
  N   N10       1.0  0.78353  0.67814  0.29812  1.0000
  N   N11       1.0  0.90303  0.03583  0.03161  1.0000
  N   N12       1.0  0.6049  0.98045  0.03725  1.0000
  N   N13       1.0  0.26044  0.61985  0.71288  1.0000
  N   N14       1.0  0.21729999999999994  0.8225  0.79789  1.0000
  N   N15       1.0  0.09637  0.46362  0.53152  1.0000
  N   N16       1.0  0.39437  0.51893  0.53695  1.0000
