data_image0
_chemical_formula_structural       Mn4H16C32O16
_chemical_formula_sum              "Mn4 H16 C32 O16"
_cell_length_a       10.03971
_cell_length_b       10.10021
_cell_length_c       12.9993
_cell_angle_alpha    100.27458
_cell_angle_beta     100.70328
_cell_angle_gamma    106.63140000000001

_symmetry_space_group_name_H-M    'P 1'
_symmetry_Int_Tables_number       1

loop_
  _symmetry_equiv_pos_as_xyz
  'x,y,z'

loop_
  _atom_site_type_symbol
  _atom_site_label
  _atom_site_symmetry_multiplicity
  _atom_site_fract_x
  _atom_site_fract_y
  _atom_site_fract_z
  _atom_site_occupancy
  Mn  Mn1       1.0  0.6152800000000002  0.2292  0.11615  1.0000
  Mn  Mn2       1.0  0.7672000000000002  0.38026  0.3888900000000001  1.0000
  Mn  Mn3       1.0  0.3962900000000001  0.7915500000000001  0.8991100000000002  1.0000
  Mn  Mn4       1.0  0.20738999999999994  0.6040299999999998  0.59909  1.0000
  H   H1        1.0  0.33414  0.4018599999999999  0.42123  1.0000
  H   H2        1.0  0.93406  0.16284  0.18581  1.0000
  H   H3        1.0  0.0656  0.05269  0.07065  1.0000
  H   H4        1.0  0.32949  0.11192  0.13148  1.0000
  H   H5        1.0  0.59814  0.66115  0.07691  1.0000
  H   H6        1.0  0.8279  0.06021999999999999  0.3124  1.0000
  H   H7        1.0  0.94246  0.93369  0.43023  1.0000
  H   H8        1.0  0.89106  0.6726  0.37007000000000007  1.0000
  H   H9        1.0  0.64094  0.60642  0.5712700000000001  1.0000
  H   H10       1.0  0.06162000000000002  0.7979900000000001  0.79108  1.0000
  H   H11       1.0  0.9612000000000002  0.92532  0.9209100000000002  1.0000
  H   H12       1.0  0.7016799999999999  0.9015599999999999  0.8737900000000001  1.0000
  H   H13       1.0  0.3913400000000001  0.35693  0.9292600000000001  1.0000
  H   H14       1.0  0.20015  0.94109  0.70761  1.0000
  H   H15       1.0  0.07415999999999998  0.043149999999999994  0.57714  1.0000
  H   H16       1.0  0.09802000000000001  0.30023  0.62434  1.0000
  C   C1        1.0  0.34934  0.26312  0.27978  1.0000
  C   C2        1.0  0.2752  0.32481999999999994  0.34494  1.0000
  C   C3        1.0  0.12494000000000001  0.28509  0.31311  1.0000
  C   C4        1.0  0.04965000000000001  0.18857  0.21213  1.0000
  C   C5        1.0  0.1241  0.12795  0.14778  1.0000
  C   C6        1.0  0.27264  0.16173999999999997  0.18117000000000005  1.0000
  C   C7        1.0  0.50436  0.30217  0.3159100000000001  1.0000
  C   C8        1.0  0.05093999999999997  0.34729999999999994  0.38666  1.0000
  C   C9        1.0  0.7370799999999998  0.6499199999999999  0.22128000000000006  1.0000
  C   C10       1.0  0.67383  0.7210799999999999  0.15388  1.0000
  C   C11       1.0  0.71059  0.8701099999999999  0.18487  1.0000
  C   C12       1.0  0.8045500000000001  0.94577  0.28691  1.0000
  C   C13       1.0  0.86768  0.8742699999999999  0.35286000000000006  1.0000
  C   C14       1.0  0.8378500000000001  0.7273299999999999  0.32004  1.0000
  C   C15       1.0  0.70054  0.49526  0.18836  1.0000
  C   C16       1.0  0.6511399999999999  0.9438699999999999  0.10952  1.0000
  C   C17       1.0  0.6553100000000001  0.75347  0.71918  1.0000
  C   C18       1.0  0.71136  0.67723  0.6471200000000003  1.0000
  C   C19       1.0  0.85841  0.69582  0.67212  1.0000
  C   C20       1.0  0.94802  0.78554  0.7711700000000002  1.0000
  C   C21       1.0  0.8911599999999998  0.8574599999999999  0.8439700000000002  1.0000
  C   C22       1.0  0.74589  0.84387  0.81779  1.0000
  C   C23       1.0  0.49993  0.73604  0.69142  1.0000
  C   C24       1.0  0.9230199999999998  0.62668  0.59323  1.0000
  C   C25       1.0  0.24499000000000007  0.34472  0.7800200000000002  1.0000
  C   C26       1.0  0.32058  0.28822  0.85278  1.0000
  C   C27       1.0  0.3020300000000001  0.14217000000000002  0.8276300000000001  1.0000
  C   C28       1.0  0.21294000000000002  0.053899999999999997  0.728  1.0000
  C   C29       1.0  0.14181000000000002  0.11153000000000005  0.6545700000000001  1.0000
  C   C30       1.0  0.15557000000000012  0.25557000000000013  0.6806400000000002  1.0000
  C   C31       1.0  0.26011000000000006  0.49843999999999994  0.8064900000000003  1.0000
  C   C32       1.0  0.37267  0.07870000000000002  0.90745  1.0000
  O   O1        1.0  0.57547  0.22547999999999999  0.27343  1.0000
  O   O2        1.0  0.58421  0.41323  0.3914  1.0000
  O   O3        1.0  0.1264  0.43968  0.4738500000000001  1.0000
  O   O4        1.0  0.91201  0.30438  0.3598700000000001  1.0000
  O   O5        1.0  0.7813499999999999  0.4307599999999999  0.23368000000000003  1.0000
  O   O6        1.0  0.5871  0.4148  0.11464000000000003  1.0000
  O   O7        1.0  0.57344  0.87128  0.01544  1.0000
  O   O8        1.0  0.68481  0.08086999999999998  0.14076  1.0000
  O   O9        1.0  0.44716999999999996  0.8067999999999999  0.75569  1.0000
  O   O10       1.0  0.41964000000000007  0.64867  0.60277  1.0000
  O   O11       1.0  0.84628  0.50344  0.53126  1.0000
  O   O12       1.0  0.05170999999999997  0.6939599999999999  0.59263  1.0000
  O   O13       1.0  0.18710000000000004  0.5470400000000001  0.7396400000000001  1.0000
  O   O14       1.0  0.3464000000000001  0.57987  0.8954700000000002  1.0000
  O   O15       1.0  0.4934200000000003  0.15911000000000006  0.9720900000000002  1.0000
  O   O16       1.0  0.3089299999999999  0.9492399999999999  0.9068900000000001  1.0000
