data_image0
_chemical_formula_structural       Zn4H20C18N32O4
_chemical_formula_sum              "Zn4 H20 C18 N32 O4"
_cell_length_a       9.32513
_cell_length_b       10.76905
_cell_length_c       12.02367
_cell_angle_alpha    90.00403999999999
_cell_angle_beta     113.09912
_cell_angle_gamma    89.99549

_symmetry_space_group_name_H-M    'P 1'
_symmetry_Int_Tables_number       1

loop_
  _symmetry_equiv_pos_as_xyz
  'x,y,z'

loop_
  _atom_site_type_symbol
  _atom_site_label
  _atom_site_symmetry_multiplicity
  _atom_site_fract_x
  _atom_site_fract_y
  _atom_site_fract_z
  _atom_site_occupancy
  Zn  Zn1       1.0  0.54205  0.50327  0.32161  1.0000
  Zn  Zn2       1.0  0.45794  0.00326  0.67839  1.0000
  Zn  Zn3       1.0  0.7782000000000001  0.00332  0.32183000000000006  1.0000
  Zn  Zn4       1.0  0.22181000000000003  0.50332  0.67825  1.0000
  H   H1        1.0  0.91899  0.25883  0.4951200000000001  1.0000
  H   H2        1.0  0.06013999999999999  0.35083  0.47019  1.0000
  H   H3        1.0  0.83783  0.42511  0.26904  1.0000
  H   H4        1.0  0.9183200000000001  0.2737  0.27869  1.0000
  H   H5        1.0  0.08103  0.75883  0.50493  1.0000
  H   H6        1.0  0.93981  0.85084  0.52981  1.0000
  H   H7        1.0  0.16210000000000008  0.9251  0.7310200000000001  1.0000
  H   H8        1.0  0.08161999999999998  0.7736700000000001  0.72129  1.0000
  H   H9        1.0  0.57597  0.7591000000000001  0.49524  1.0000
  H   H10       1.0  0.40934  0.85078  0.46955  1.0000
  H   H11       1.0  0.4287500000000001  0.92472  0.26837000000000005  1.0000
  H   H12       1.0  0.35868  0.7733  0.27837  1.0000
  H   H13       1.0  0.4240200000000001  0.2591  0.50485  1.0000
  H   H14       1.0  0.5906900000000002  0.35074  0.53054  1.0000
  H   H15       1.0  0.5711600000000001  0.42472  0.7317100000000001  1.0000
  H   H16       1.0  0.6413500000000001  0.27333  0.72172  1.0000
  H   H17       1.0  0.5206100000000001  0.50334  0.99853  1.0000
  H   H18       1.0  0.47134000000000004  0.45114  0.00015  1.0000
  H   H19       1.0  0.47925  0.0038  0.0010600000000000002  1.0000
  H   H20       1.0  0.52882  0.95147  0.00031000000000000005  1.0000
  C   C1        1.0  0.8911200000000001  0.45263  0.50687  1.0000
  C   C2        1.0  0.93512  0.34394  0.4503000000000001  1.0000
  C   C3        1.0  0.84757  0.33327  0.31148  1.0000
  C   C4        1.0  0.6893200000000002  0.27678  0.27179000000000003  1.0000
  C   C5        1.0  0.10884000000000005  0.95262  0.49319000000000013  1.0000
  C   C6        1.0  0.06484000000000004  0.84394  0.54974  1.0000
  C   C7        1.0  0.15238  0.83327  0.68855  1.0000
  C   C8        1.0  0.31065000000000004  0.77677  0.7282400000000001  1.0000
  C   C9        1.0  0.6155  0.95289  0.50679  1.0000
  C   C10       1.0  0.51451  0.8440699999999999  0.44997000000000004  1.0000
  C   C11       1.0  0.46236000000000005  0.83308  0.31119  1.0000
  C   C12       1.0  0.58091  0.7766899999999999  0.27193  1.0000
  C   C13       1.0  0.3845200000000001  0.45291999999999993  0.49327000000000004  1.0000
  C   C14       1.0  0.48549  0.34408  0.55009  1.0000
  C   C15       1.0  0.53762  0.33308  0.68887  1.0000
  C   C16       1.0  0.41908  0.27667  0.7281  1.0000
  C   C17       1.0  0.18675  0.5307  1.0000000000000003e-05  1.0000
  C   C18       1.0  0.8137200000000001  0.03057  1.0000000000000003e-05  1.0000
  N   N1        1.0  0.7494800000000001  0.50425  0.47412000000000004  1.0000
  N   N2        1.0  0.7633300000000001  0.5996  0.5527600000000001  1.0000
  N   N3        1.0  0.9072900000000002  0.60564  0.6306  1.0000
  N   N4        1.0  0.9904  0.51465  0.6040100000000002  1.0000
  N   N5        1.0  0.5562  0.33791  0.25375  1.0000
  N   N6        1.0  0.43801000000000007  0.25277  0.21890000000000007  1.0000
  N   N7        1.0  0.49693  0.14388  0.21540000000000004  1.0000
  N   N8        1.0  0.65466  0.15589  0.24801  1.0000
  N   N9        1.0  0.25047  0.00426  0.52599  1.0000
  N   N10       1.0  0.23664000000000002  0.09959  0.44735  1.0000
  N   N11       1.0  0.09271000000000004  0.10561  0.3694700000000001  1.0000
  N   N12       1.0  0.009590000000000001  0.01461  0.39602  1.0000
  N   N13       1.0  0.44376  0.8378900000000001  0.74628  1.0000
  N   N14       1.0  0.56195  0.7527400000000001  0.7811600000000001  1.0000
  N   N15       1.0  0.50304  0.64386  0.7846800000000002  1.0000
  N   N16       1.0  0.34531000000000006  0.65588  0.7520500000000001  1.0000
  N   N17       1.0  0.7239200000000001  0.00486  0.47410000000000013  1.0000
  N   N18       1.0  0.7896700000000001  0.09996000000000001  0.5530800000000001  1.0000
  N   N19       1.0  0.7244900000000001  0.10562  0.6309700000000001  1.0000
  N   N20       1.0  0.61455  0.014529999999999998  0.60418  1.0000
  N   N21       1.0  0.6956  0.83802  0.25383  1.0000
  N   N22       1.0  0.779  0.75297  0.21936  1.0000
  N   N23       1.0  0.7169500000000001  0.64395  0.2161  1.0000
  N   N24       1.0  0.5920500000000001  0.65581  0.24850000000000003  1.0000
  N   N25       1.0  0.2760600000000001  0.50488  0.52592  1.0000
  N   N26       1.0  0.21034000000000008  0.60001  0.44697  1.0000
  N   N27       1.0  0.27558  0.60569  0.36911  1.0000
  N   N28       1.0  0.3855400000000001  0.5146  0.39591000000000004  1.0000
  N   N29       1.0  0.3043700000000002  0.338  0.7461700000000002  1.0000
  N   N30       1.0  0.22100000000000006  0.25298  0.78068  1.0000
  N   N31       1.0  0.28311000000000003  0.14396  0.784  1.0000
  N   N32       1.0  0.40801000000000004  0.1558  0.7516  1.0000
  O   O1        1.0  0.24305  0.53124  0.10625000000000002  1.0000
  O   O2        1.0  0.75728  0.03108  0.89377  1.0000
  O   O3        1.0  0.8715300000000001  0.03112  0.10618000000000001  1.0000
  O   O4        1.0  0.1289199999999999  0.53114  0.89382  1.0000
