data_image0
_chemical_formula_structural       Cd4H12C36O24
_chemical_formula_sum              "Cd4 H12 C36 O24"
_cell_length_a       10.35299
_cell_length_b       12.36673
_cell_length_c       14.11907
_cell_angle_alpha    89.91159
_cell_angle_beta     89.93641
_cell_angle_gamma    91.56918

_space_group_name_H-M_alt    "P 1"
_space_group_IT_number       1

loop_
  _space_group_symop_operation_xyz
  'x, y, z'

loop_
  _atom_site_type_symbol
  _atom_site_label
  _atom_site_symmetry_multiplicity
  _atom_site_fract_x
  _atom_site_fract_y
  _atom_site_fract_z
  _atom_site_occupancy
  Cd  Cd1       1.0  0.84764  0.07401  0.58561  1.0000
  Cd  Cd2       1.0  0.65239  0.42748999999999987  0.08618  1.0000
  Cd  Cd3       1.0  0.15293  0.92638  0.41423  1.0000
  Cd  Cd4       1.0  0.34786  0.57299  0.9132899999999998  1.0000
  H   H1        1.0  0.56061  0.32759  0.70181  1.0000
  H   H2        1.0  0.36736  0.09524  0.5194  1.0000
  H   H3        1.0  0.14485  0.31476000000000004  0.6879899999999998  1.0000
  H   H4        1.0  0.9389299999999999  0.16987  0.20036999999999996  1.0000
  H   H5        1.0  0.13208  0.40582  0.02039  1.0000
  H   H6        1.0  0.35486  0.18527  0.18782999999999997  1.0000
  H   H7        1.0  0.43952  0.6719599999999999  0.29864  1.0000
  H   H8        1.0  0.63275  0.9046  0.4807599999999999  1.0000
  H   H9        1.0  0.85533  0.6850899999999999  0.31228  1.0000
  H   H10       1.0  0.06162  0.8305  0.79957  1.0000
  H   H11       1.0  0.86751  0.59478  0.9792  1.0000
  H   H12       1.0  0.64563  0.81547  0.81119  1.0000
  C   C1        1.0  0.35248  0.33233999999999997  0.70005  1.0000
  C   C2        1.0  0.47196999999999995  0.29339  0.67138  1.0000
  C   C3        1.0  0.47700000000000004  0.20886999999999997  0.6056699999999998  1.0000
  C   C4        1.0  0.36255  0.16249  0.56878  1.0000
  C   C5        1.0  0.243  0.20114999999999997  0.59871  1.0000
  C   C6        1.0  0.23787  0.28624  0.66398  1.0000
  C   C7        1.0  0.34856  0.41857  0.7727099999999998  1.0000
  C   C8        1.0  0.60447  0.16442  0.58156  1.0000
  C   C9        1.0  0.11988  0.14768  0.56744  1.0000
  C   C10       1.0  0.14718  0.16638  0.19944999999999993  1.0000
  C   C11       1.0  0.02759  0.205  0.17051999999999995  1.0000
  C   C12       1.0  0.02257  0.29061  0.10564999999999998  1.0000
  C   C13       1.0  0.13702  0.33797  0.06931  1.0000
  C   C14       1.0  0.25666  0.2993  0.09898  1.0000
  C   C15       1.0  0.26172  0.2135  0.16381  1.0000
  C   C16       1.0  0.15106  0.0797  0.27209  1.0000
  C   C17       1.0  0.8953  0.33542  0.08164999999999997  1.0000
  C   C18       1.0  0.37985  0.35346  0.06804  1.0000
  C   C19       1.0  0.64768  0.66741  0.30035  1.0000
  C   C20       1.0  0.52812  0.7062599999999998  0.32906  1.0000
  C   C21       1.0  0.52306  0.7908599999999999  0.3946699999999999  1.0000
  C   C22       1.0  0.63753  0.83732  0.4314499999999999  1.0000
  C   C23       1.0  0.75714  0.7987499999999998  0.40153  1.0000
  C   C24       1.0  0.7623  0.71357  0.3363599999999999  1.0000
  C   C25       1.0  0.65151  0.58148  0.22739999999999994  1.0000
  C   C26       1.0  0.39557  0.83532  0.4185999999999999  1.0000
  C   C27       1.0  0.8801  0.85272  0.4325599999999999  1.0000
  C   C28       1.0  0.85331  0.8339499999999999  0.8001299999999998  1.0000
  C   C29       1.0  0.97282  0.7953299999999999  0.82922  1.0000
  C   C30       1.0  0.97749  0.70974  0.8941299999999998  1.0000
  C   C31       1.0  0.8627899999999998  0.66261  0.93027  1.0000
  C   C32       1.0  0.74325  0.7014  0.90049  1.0000
  C   C33       1.0  0.73851  0.7870099999999999  0.8355  1.0000
  C   C34       1.0  0.8494400000000001  0.92068  0.7276199999999999  1.0000
  C   C35       1.0  0.10464  0.6647099999999999  0.9182899999999999  1.0000
  C   C36       1.0  0.62008  0.64784  0.93205  1.0000
  O   O1        1.0  0.24124000000000004  0.4446899999999999  0.8101  1.0000
  O   O2        1.0  0.4532900000000001  0.4661699999999999  0.79998  1.0000
  O   O3        1.0  0.70631  0.20442  0.62301  1.0000
  O   O4        1.0  0.61683  0.08596  0.52462  1.0000
  O   O5        1.0  0.11738999999999998  0.05804  0.5242399999999999  1.0000
  O   O6        1.0  0.01365  0.19318  0.5896999999999998  1.0000
  O   O7        1.0  0.25837  0.05342  0.30956999999999996  1.0000
  O   O8        1.0  0.04641  0.03202  0.29971  1.0000
  O   O9        1.0  0.79321  0.29671  0.12382999999999997  1.0000
  O   O10       1.0  0.88326  0.41314  0.023839999999999993  1.0000
  O   O11       1.0  0.38218  0.44353999999999993  0.025119999999999993  1.0000
  O   O12       1.0  0.4862  0.30791  0.08998999999999999  1.0000
  O   O13       1.0  0.75874  0.55538  0.18981  1.0000
  O   O14       1.0  0.54672  0.53402  0.20006  1.0000
  O   O15       1.0  0.29384  0.79531  0.37703  1.0000
  O   O16       1.0  0.38324  0.91384  0.47549  1.0000
  O   O17       1.0  0.88231  0.94224  0.4758799999999999  1.0000
  O   O18       1.0  0.98657  0.80789  0.4099899999999999  1.0000
  O   O19       1.0  0.74208  0.9468499999999997  0.6902099999999999  1.0000
  O   O20       1.0  0.9540400000000001  0.96848  0.70012  1.0000
  O   O21       1.0  0.20681000000000002  0.70326  0.87606  1.0000
  O   O22       1.0  0.11662000000000002  0.58706  0.9761599999999998  1.0000
  O   O23       1.0  0.61791  0.55813  0.9754699999999997  1.0000
  O   O24       1.0  0.51363  0.69308  0.91002  1.0000
