data_image0
_chemical_formula_structural       Ca4H8C24S4O16
_chemical_formula_sum              "Ca4 H8 C24 S4 O16"
_cell_length_a       6.34779
_cell_length_b       9.99456
_cell_length_c       17.211430000000004
_cell_angle_alpha    90.48306
_cell_angle_beta     92.72532999999999
_cell_angle_gamma    90.10284

_symmetry_space_group_name_H-M    'P 1'
_symmetry_Int_Tables_number       1

loop_
  _symmetry_equiv_pos_as_xyz
  'x,y,z'

loop_
  _atom_site_type_symbol
  _atom_site_label
  _atom_site_symmetry_multiplicity
  _atom_site_fract_x
  _atom_site_fract_y
  _atom_site_fract_z
  _atom_site_occupancy
  Ca  Ca1       1.0  0.2561600000000001  0.97887  0.45803  1.0000
  Ca  Ca2       1.0  0.24416000000000004  0.48118  0.04201  1.0000
  Ca  Ca3       1.0  0.74383  0.02113  0.54197  1.0000
  Ca  Ca4       1.0  0.7558300000000001  0.51882  0.958  1.0000
  H   H1        1.0  0.54914  0.07633  0.72863  1.0000
  H   H2        1.0  0.46525  0.16913  0.8691999999999998  1.0000
  H   H3        1.0  0.9512  0.57086  0.76786  1.0000
  H   H4        1.0  0.03526  0.66929  0.6292399999999999  1.0000
  H   H5        1.0  0.4508500000000001  0.92367  0.27138  1.0000
  H   H6        1.0  0.53474  0.8308700000000001  0.1308  1.0000
  H   H7        1.0  0.04879  0.42914  0.23214  1.0000
  H   H8        1.0  0.9647300000000001  0.33071  0.37077  1.0000
  C   C1        1.0  0.07466  0.30682  0.88631  1.0000
  C   C2        1.0  0.24981  0.12319999999999999  0.60501  1.0000
  C   C3        1.0  0.25117  0.16366  0.68679  1.0000
  C   C4        1.0  0.41058  0.13369  0.74221  1.0000
  C   C5        1.0  0.3632500000000001  0.17933  0.81709  1.0000
  C   C6        1.0  0.1681  0.24179  0.81825  1.0000
  C   C7        1.0  0.42163  0.81254  0.61559  1.0000
  C   C8        1.0  0.24991  0.61766  0.8931499999999998  1.0000
  C   C9        1.0  0.24646000000000007  0.66095  0.81212  1.0000
  C   C10       1.0  0.08829999999999999  0.63079  0.7558799999999998  1.0000
  C   C11       1.0  0.1351  0.6796  0.68199  1.0000
  C   C12       1.0  0.32828  0.74511  0.68236  1.0000
  C   C13       1.0  0.9253200000000003  0.69319  0.11368999999999997  1.0000
  C   C14       1.0  0.7501700000000001  0.8768  0.39499  1.0000
  C   C15       1.0  0.7488200000000002  0.8363400000000001  0.31322  1.0000
  C   C16       1.0  0.58941  0.86631  0.25779  1.0000
  C   C17       1.0  0.63674  0.8206799999999999  0.18291  1.0000
  C   C18       1.0  0.83188  0.75821  0.18175  1.0000
  C   C19       1.0  0.57836  0.18746  0.38441  1.0000
  C   C20       1.0  0.75008  0.38234  0.10684999999999997  1.0000
  C   C21       1.0  0.7535200000000002  0.33905  0.18789  1.0000
  C   C22       1.0  0.91169  0.36921  0.24412999999999999  1.0000
  C   C23       1.0  0.86489  0.3204  0.31800999999999996  1.0000
  C   C24       1.0  0.6717000000000001  0.25489  0.31763999999999987  1.0000
  S   S1        1.0  0.04167999999999998  0.24525  0.7269199999999998  1.0000
  S   S2        1.0  0.45373  0.74718  0.77384  1.0000
  S   S3        1.0  0.9583100000000002  0.75475  0.27308  1.0000
  S   S4        1.0  0.54625  0.25282  0.22616  1.0000
  O   O1        1.0  0.07399  0.09993  0.56657  1.0000
  O   O2        1.0  0.4252200000000001  0.10601  0.57366  1.0000
  O   O3        1.0  0.19727000000000003  0.31946  0.9467199999999999  1.0000
  O   O4        1.0  0.88424  0.34808  0.8786  1.0000
  O   O5        1.0  0.42692  0.5935  0.92992  1.0000
  O   O6        1.0  0.07591  0.59973  0.92548  1.0000
  O   O7        1.0  0.30226  0.82047  0.55412  1.0000
  O   O8        1.0  0.60847  0.86001  0.62512  1.0000
  O   O9        1.0  0.92599  0.90008  0.43342999999999987  1.0000
  O   O10       1.0  0.5747600000000002  0.89399  0.42634  1.0000
  O   O11       1.0  0.8027200000000002  0.68054  0.05328  1.0000
  O   O12       1.0  0.11575  0.65193  0.12140000000000001  1.0000
  O   O13       1.0  0.57306  0.40651  0.07008999999999999  1.0000
  O   O14       1.0  0.9240800000000001  0.40028  0.07452  1.0000
  O   O15       1.0  0.69772  0.17953  0.44588  1.0000
  O   O16       1.0  0.39152000000000015  0.14  0.37488  1.0000
