data_image0
_chemical_formula_structural       Mg4H20C32O34
_chemical_formula_sum              "Mg4 H20 C32 O34"
_cell_length_a       11.58557
_cell_length_b       11.586640000000001
_cell_length_c       18.09056
_cell_angle_alpha    94.56650999999998
_cell_angle_beta     94.70014
_cell_angle_gamma    116.32708

_symmetry_space_group_name_H-M    'P 1'
_symmetry_Int_Tables_number       1

loop_
  _symmetry_equiv_pos_as_xyz
  'x,y,z'

loop_
  _atom_site_type_symbol
  _atom_site_label
  _atom_site_symmetry_multiplicity
  _atom_site_fract_x
  _atom_site_fract_y
  _atom_site_fract_z
  _atom_site_occupancy
  Mg  Mg1       1.0  0.28047999999999995  0.9809599999999999  0.26159  1.0000
  Mg  Mg2       1.0  0.021940000000000057  0.7215100000000001  0.23883  1.0000
  Mg  Mg3       1.0  0.7195200000000003  0.01903999999999999  0.73841  1.0000
  Mg  Mg4       1.0  0.97807  0.27848  0.76117  1.0000
  H   H1        1.0  0.85273  0.73722  0.07388  1.0000
  H   H2        1.0  0.3331  0.73051  0.06252  1.0000
  H   H3        1.0  0.26976  0.7811999999999999  0.20603  1.0000
  H   H4        1.0  0.22945  0.10592999999999998  0.1364  1.0000
  H   H5        1.0  0.51836  0.15241999999999997  0.16011  1.0000
  H   H6        1.0  0.26301  0.14762  0.4266  1.0000
  H   H7        1.0  0.26975  0.66672  0.43777999999999995  1.0000
  H   H8        1.0  0.22146  0.73253  0.29569  1.0000
  H   H9        1.0  0.89532  0.77108  0.36366  1.0000
  H   H10       1.0  0.84747  0.48228  0.33971  1.0000
  H   H11       1.0  0.14726999999999998  0.26278  0.92612  1.0000
  H   H12       1.0  0.6669000000000002  0.26949  0.93748  1.0000
  H   H13       1.0  0.7302400000000001  0.21878999999999998  0.79397  1.0000
  H   H14       1.0  0.7705600000000002  0.89406  0.8636  1.0000
  H   H15       1.0  0.4816400000000001  0.84757  0.83989  1.0000
  H   H16       1.0  0.7369999999999999  0.8523799999999999  0.5734  1.0000
  H   H17       1.0  0.73025  0.33327  0.56223  1.0000
  H   H18       1.0  0.77854  0.26746  0.70432  1.0000
  H   H19       1.0  0.10468000000000002  0.22891  0.63634  1.0000
  H   H20       1.0  0.15253  0.51772  0.66029  1.0000
  C   C1        1.0  0.052500000000000026  0.90205  0.1332  1.0000
  C   C2        1.0  0.025759999999999946  0.9513999999999999  0.06545  1.0000
  C   C3        1.0  0.9080300000000001  0.87666  0.01629  1.0000
  C   C4        1.0  0.11765  0.07514999999999998  0.04856  1.0000
  C   C5        1.0  0.40214  0.92716  0.13864  1.0000
  C   C6        1.0  0.45488  0.9646  0.06891  1.0000
  C   C7        1.0  0.42582999999999993  0.8661299999999997  0.007309999999999999  1.0000
  C   C8        1.0  0.52961  0.09827999999999999  0.06125  1.0000
  C   C9        1.0  0.09837  0.94806  0.36699  1.0000
  C   C10       1.0  0.04855999999999992  0.97479  0.43449  1.0000
  C   C11       1.0  0.12318000000000001  0.09214999999999998  0.48380999999999996  1.0000
  C   C12       1.0  0.92495  0.88267  0.45126000000000005  1.0000
  C   C13       1.0  0.07322  0.59798  0.36143  1.0000
  C   C14       1.0  0.03549000000000006  0.54538  0.43116  1.0000
  C   C15       1.0  0.13394000000000006  0.5744100000000001  0.49291000000000007  1.0000
  C   C16       1.0  0.90184  0.47051  0.43863  1.0000
  C   C17       1.0  0.94751  0.09794000000000004  0.8668  1.0000
  C   C18       1.0  0.9742400000000002  0.04860000000000004  0.93455  1.0000
  C   C19       1.0  0.09196999999999998  0.12333000000000002  0.98371  1.0000
  C   C20       1.0  0.8823500000000002  0.9248399999999998  0.95144  1.0000
  C   C21       1.0  0.5978599999999998  0.07284000000000002  0.86136  1.0000
  C   C22       1.0  0.54512  0.035390000000000026  0.9310900000000001  1.0000
  C   C23       1.0  0.5741699999999998  0.13386999999999993  0.99269  1.0000
  C   C24       1.0  0.4703900000000001  0.90172  0.9387499999999999  1.0000
  C   C25       1.0  0.90164  0.05193999999999998  0.63301  1.0000
  C   C26       1.0  0.9514400000000001  0.025199999999999993  0.56551  1.0000
  C   C27       1.0  0.8768300000000002  0.9078499999999998  0.51619  1.0000
  C   C28       1.0  0.07505  0.11733  0.54874  1.0000
  C   C29       1.0  0.9267900000000002  0.40202  0.63857  1.0000
  C   C30       1.0  0.9645100000000001  0.45462  0.56884  1.0000
  C   C31       1.0  0.86606  0.42558999999999997  0.50709  1.0000
  C   C32       1.0  0.09816  0.52948  0.56138  1.0000
  O   O1        1.0  0.15141  0.97784  0.18142  1.0000
  O   O2        1.0  0.97817  0.78334  0.14493  1.0000
  O   O3        1.0  0.81643  0.75939  0.028860000000000004  1.0000
  O   O4        1.0  0.41746  0.01603  0.19346  1.0000
  O   O5        1.0  0.33732  0.80536  0.14461  1.0000
  O   O6        1.0  0.35451  0.73753  0.01045  1.0000
  O   O7        1.0  0.23186000000000007  0.15159  0.09221  1.0000
  O   O8        1.0  0.5616  0.19554  0.11795000000000001  1.0000
  O   O9        1.0  0.02262999999999991  0.8492699999999997  0.31868  1.0000
  O   O10       1.0  0.21721  0.02201  0.35541  1.0000
  O   O11       1.0  0.24049  0.18388  0.47135  1.0000
  O   O12       1.0  0.9847  0.58339  0.30644  1.0000
  O   O13       1.0  0.19513000000000005  0.6618  0.35556  1.0000
  O   O14       1.0  0.26259999999999994  0.6455099999999999  0.48990999999999996  1.0000
  O   O15       1.0  0.8489800000000001  0.7686  0.40753  1.0000
  O   O16       1.0  0.8045800000000002  0.43887999999999994  0.38186  1.0000
  O   O17       1.0  0.8485900000000001  0.02215  0.81858  1.0000
  O   O18       1.0  0.021830000000000002  0.21664999999999998  0.85507  1.0000
  O   O19       1.0  0.18358000000000002  0.24061  0.97114  1.0000
  O   O20       1.0  0.58254  0.98396  0.80654  1.0000
  O   O21       1.0  0.6626800000000002  0.19462999999999997  0.85539  1.0000
  O   O22       1.0  0.6455  0.26246  0.98955  1.0000
  O   O23       1.0  0.7681399999999998  0.8483999999999999  0.9077899999999999  1.0000
  O   O24       1.0  0.4384  0.80445  0.88205  1.0000
  O   O25       1.0  0.9773700000000001  0.15072  0.68132  1.0000
  O   O26       1.0  0.7828000000000002  0.9779799999999997  0.64459  1.0000
  O   O27       1.0  0.75951  0.81611  0.52865  1.0000
  O   O28       1.0  0.015309999999999997  0.4166  0.69356  1.0000
  O   O29       1.0  0.8048800000000003  0.33819  0.64444  1.0000
  O   O30       1.0  0.73741  0.35448999999999997  0.51009  1.0000
  O   O31       1.0  0.15102000000000004  0.23139  0.59247  1.0000
  O   O32       1.0  0.19541999999999998  0.56111  0.61814  1.0000
  O   O33       1.0  0.21649  0.78772  0.25119  1.0000
  O   O34       1.0  0.7835100000000002  0.21227  0.74881  1.0000
