data_image0
_chemical_formula_structural       Ni4H12C20N8Cl4O8
_chemical_formula_sum              "Ni4 H12 C20 N8 Cl4 O8"
_cell_length_a       5.83637
_cell_length_b       10.51564
_cell_length_c       12.36009
_cell_angle_alpha    89.99858999999998
_cell_angle_beta     90.0
_cell_angle_gamma    89.99953999999998

_symmetry_space_group_name_H-M    'P 1'
_symmetry_Int_Tables_number       1

loop_
  _symmetry_equiv_pos_as_xyz
  'x,y,z'

loop_
  _atom_site_type_symbol
  _atom_site_label
  _atom_site_symmetry_multiplicity
  _atom_site_fract_x
  _atom_site_fract_y
  _atom_site_fract_z
  _atom_site_occupancy
  Ni  Ni1       1.0  0.7708199999999998  0.22789  0.32605000000000006  1.0000
  Ni  Ni2       1.0  0.27082  0.7721100000000001  0.6739500000000002  1.0000
  Ni  Ni3       1.0  0.7708199999999998  0.72789  0.17395000000000002  1.0000
  Ni  Ni4       1.0  0.27085  0.2721  0.82605  1.0000
  H   H1        1.0  0.0211  0.024290000000000003  0.16826000000000002  1.0000
  H   H2        1.0  0.98034  0.4267000000000001  0.9758  1.0000
  H   H3        1.0  0.22757  0.05585  0.99352  1.0000
  H   H4        1.0  0.52108  0.9757100000000001  0.83176  1.0000
  H   H5        1.0  0.48042  0.5733  0.02421  1.0000
  H   H6        1.0  0.72759  0.9441600000000001  0.0064800000000000005  1.0000
  H   H7        1.0  0.021089999999999998  0.52429  0.33175  1.0000
  H   H8        1.0  0.98042  0.9267  0.52419  1.0000
  H   H9        1.0  0.22763  0.55584  0.50648  1.0000
  H   H10       1.0  0.52108  0.4757100000000001  0.66824  1.0000
  H   H11       1.0  0.4804299999999999  0.07331  0.4757900000000001  1.0000
  H   H12       1.0  0.7276699999999999  0.44415  0.49353  1.0000
  C   C1        1.0  0.7715  0.43186  0.17469  1.0000
  C   C2        1.0  0.011  0.115  0.12646  1.0000
  C   C3        1.0  0.8829499999999998  0.32175000000000004  0.11806  1.0000
  C   C4        1.0  0.9900399999999999  0.33677  0.01832  1.0000
  C   C5        1.0  0.1259  0.13199  0.02869  1.0000
  C   C6        1.0  0.27152  0.56813  0.82531  1.0000
  C   C7        1.0  0.511  0.8850000000000001  0.8735500000000002  1.0000
  C   C8        1.0  0.38297  0.67824  0.88195  1.0000
  C   C9        1.0  0.49007999999999996  0.6632300000000001  0.9816800000000001  1.0000
  C   C10       1.0  0.62591  0.86802  0.97132  1.0000
  C   C11       1.0  0.77152  0.9318600000000001  0.3253  1.0000
  C   C12       1.0  0.01101  0.61499  0.37355  1.0000
  C   C13       1.0  0.8829899999999999  0.8217500000000002  0.38194  1.0000
  C   C14       1.0  0.99008  0.8367700000000001  0.48167000000000004  1.0000
  C   C15       1.0  0.12591999999999998  0.63198  0.47132  1.0000
  C   C16       1.0  0.27160999999999996  0.06812000000000001  0.6746900000000001  1.0000
  C   C17       1.0  0.51101  0.385  0.62644  1.0000
  C   C18       1.0  0.38305  0.17823000000000003  0.61806  1.0000
  C   C19       1.0  0.49008999999999997  0.16324  0.51831  1.0000
  C   C20       1.0  0.62592  0.36802  0.52867  1.0000
  N   N1        1.0  0.88788  0.20983000000000002  0.17093  1.0000
  N   N2        1.0  0.11349999999999999  0.24248000000000003  0.9736300000000001  1.0000
  N   N3        1.0  0.38788999999999996  0.79018  0.8290800000000002  1.0000
  N   N4        1.0  0.6135  0.7575200000000001  0.02638  1.0000
  N   N5        1.0  0.8879  0.70982  0.32908000000000004  1.0000
  N   N6        1.0  0.11350999999999997  0.74247  0.52637  1.0000
  N   N7        1.0  0.38794999999999996  0.29016  0.67093  1.0000
  N   N8        1.0  0.6135  0.25753  0.47362000000000004  1.0000
  Cl  Cl1       1.0  0.12894  0.28989  0.37432  1.0000
  Cl  Cl2       1.0  0.62895  0.7101100000000001  0.62568  1.0000
  Cl  Cl3       1.0  0.12893  0.7898900000000001  0.12567  1.0000
  Cl  Cl4       1.0  0.629  0.21012  0.87435  1.0000
  O   O1        1.0  0.678  0.41156  0.26587  1.0000
  O   O2        1.0  0.78918  0.53783  0.12589  1.0000
  O   O3        1.0  0.17799999999999996  0.58844  0.73412  1.0000
  O   O4        1.0  0.28919  0.46217000000000014  0.8741  1.0000
  O   O5        1.0  0.67801  0.91157  0.23413  1.0000
  O   O6        1.0  0.78919  0.037820000000000006  0.37412000000000006  1.0000
  O   O7        1.0  0.17805999999999994  0.08844000000000002  0.76588  1.0000
  O   O8        1.0  0.28923  0.9621700000000001  0.62589  1.0000
