data_image0
_chemical_formula_structural       Fe8P8H8C12O56
_chemical_formula_sum              "Fe8 P8 H8 C12 O56"
_cell_length_a       9.37521
_cell_length_b       12.12239
_cell_length_c       15.191030000000001
_cell_angle_alpha    90.18398
_cell_angle_beta     89.90388
_cell_angle_gamma    101.99898

_symmetry_space_group_name_H-M    'P 1'
_symmetry_Int_Tables_number       1

loop_
  _symmetry_equiv_pos_as_xyz
  'x,y,z'

loop_
  _atom_site_type_symbol
  _atom_site_label
  _atom_site_symmetry_multiplicity
  _atom_site_fract_x
  _atom_site_fract_y
  _atom_site_fract_z
  _atom_site_occupancy
  Fe  Fe1       1.0  0.3633599999999999  0.33587  0.88684  1.0000
  Fe  Fe2       1.0  0.24649000000000001  0.9962400000000002  0.061539999999999984  1.0000
  Fe  Fe3       1.0  0.13726999999999998  0.16394  0.38755  1.0000
  Fe  Fe4       1.0  0.25364  0.50338  0.56141  1.0000
  Fe  Fe5       1.0  0.6363199999999998  0.66406  0.11287  1.0000
  Fe  Fe6       1.0  0.75303  0.00381  0.93852  1.0000
  Fe  Fe7       1.0  0.8604599999999999  0.83614  0.61249  1.0000
  Fe  Fe8       1.0  0.74501  0.49736  0.43885  1.0000
  P   P1        1.0  0.10564  0.11209  0.8915599999999998  1.0000
  P   P2        1.0  0.547  0.18547  0.00235  1.0000
  P   P3        1.0  0.39522  0.38653  0.3922499999999999  1.0000
  P   P4        1.0  0.95351  0.31576  0.50398  1.0000
  P   P5        1.0  0.89413  0.88786  0.10842  1.0000
  P   P6        1.0  0.45207  0.81395  0.99787  1.0000
  P   P7        1.0  0.60279  0.61567  0.60811  1.0000
  P   P8        1.0  0.04476000000000005  0.6846400000000002  0.49625999999999987  1.0000
  H   H1        1.0  0.10365999999999997  0.11215  0.74629  1.0000
  H   H2        1.0  0.6920299999999999  0.29217  0.09604  1.0000
  H   H3        1.0  0.39805  0.38199000000000005  0.2473  1.0000
  H   H4        1.0  0.8064500000000001  0.21217000000000003  0.59837  1.0000
  H   H5        1.0  0.89565  0.88747  0.25375  1.0000
  H   H6        1.0  0.30605  0.70761  0.90478  1.0000
  H   H7        1.0  0.60105  0.61808  0.75333  1.0000
  H   H8        1.0  0.19275999999999996  0.7882500000000001  0.40259  1.0000
  C   C1        1.0  0.43967  0.48107000000000005  0.03342999999999999  1.0000
  C   C2        1.0  0.2662299999999999  0.4646  0.74781  1.0000
  C   C3        1.0  0.34014  0.3741900000000001  0.70516  1.0000
  C   C4        1.0  0.059229999999999984  0.018960000000000005  0.53363  1.0000
  C   C5        1.0  0.23399999999999996  0.03547  0.2478  1.0000
  C   C6        1.0  0.16021  0.1258  0.20561999999999994  1.0000
  C   C7        1.0  0.5605  0.51902  0.9661499999999997  1.0000
  C   C8        1.0  0.73304  0.53528  0.25208  1.0000
  C   C9        1.0  0.6596500000000001  0.6258900000000001  0.2945  1.0000
  C   C10       1.0  0.9389599999999999  0.98113  0.46594  1.0000
  C   C11       1.0  0.76496  0.9645500000000002  0.75217  1.0000
  C   C12       1.0  0.8373199999999997  0.8736100000000002  0.7944299999999999  1.0000
  O   O1        1.0  0.47788  0.22784  0.9207799999999999  1.0000
  O   O2        1.0  0.17813999999999997  0.23929000000000006  0.89227  1.0000
  O   O3        1.0  0.39282  0.31142  0.75853  1.0000
  O   O4        1.0  0.33679  0.40005000000000007  0.011729999999999999  1.0000
  O   O5        1.0  0.2642199999999999  0.46689  0.83101  1.0000
  O   O6        1.0  0.54945  0.4670900000000001  0.89316  1.0000
  O   O7        1.0  0.18536999999999995  0.03869  0.94659  1.0000
  O   O8        1.0  0.67765  0.13328  0.9780099999999998  1.0000
  O   O9        1.0  0.43561  0.10476  0.05842  1.0000
  O   O10       1.0  0.94737  0.10468  0.92013  1.0000
  O   O11       1.0  0.21529999999999996  0.52791  0.69599  1.0000
  O   O12       1.0  0.34258999999999995  0.36774  0.62285  1.0000
  O   O13       1.0  0.11373  0.06141  0.79447  1.0000
  O   O14       1.0  0.6073800000000001  0.2970900000000001  0.060089999999999984  1.0000
  O   O15       1.0  0.024119999999999996  0.27218  0.42354  1.0000
  O   O16       1.0  0.32279  0.25921  0.39297  1.0000
  O   O17       1.0  0.10747  0.18878000000000003  0.25912  1.0000
  O   O18       1.0  0.16238999999999995  0.09994  0.51252  1.0000
  O   O19       1.0  0.23575  0.03291  0.33096  1.0000
  O   O20       1.0  0.95077  0.03305  0.39312  1.0000
  O   O21       1.0  0.31444  0.46067  0.44639  1.0000
  O   O22       1.0  0.82788  0.37236000000000014  0.47813  1.0000
  O   O23       1.0  0.06383999999999995  0.39425  0.56256  1.0000
  O   O24       1.0  0.5534499999999998  0.39473  0.42103999999999997  1.0000
  O   O25       1.0  0.28495  0.97202  0.19558  1.0000
  O   O26       1.0  0.15784  0.13149  0.12331  1.0000
  O   O27       1.0  0.38643  0.4341000000000001  0.29446  1.0000
  O   O28       1.0  0.88586  0.20393  0.55891  1.0000
  O   O29       1.0  0.52175  0.7721  0.07947  1.0000
  O   O30       1.0  0.8215499999999999  0.76061  0.10766999999999997  1.0000
  O   O31       1.0  0.6071000000000001  0.6887800000000002  0.24126  1.0000
  O   O32       1.0  0.66324  0.6002000000000001  0.9877899999999998  1.0000
  O   O33       1.0  0.7357900000000002  0.5330200000000002  0.16889  1.0000
  O   O34       1.0  0.45075  0.53283  0.10654  1.0000
  O   O35       1.0  0.81449  0.9612800000000002  0.05339  1.0000
  O   O36       1.0  0.32196  0.86684  0.02207  1.0000
  O   O37       1.0  0.5634799999999998  0.89436  0.94154  1.0000
  O   O38       1.0  0.05231000000000007  0.8950000000000001  0.07979  1.0000
  O   O39       1.0  0.7827599999999999  0.47175  0.30427  1.0000
  O   O40       1.0  0.6573199999999998  0.63239  0.3767999999999999  1.0000
  O   O41       1.0  0.8862099999999999  0.93839  0.20557  1.0000
  O   O42       1.0  0.38931999999999994  0.70133  0.94158  1.0000
  O   O43       1.0  0.97174  0.72756  0.57618  1.0000
  O   O44       1.0  0.6718299999999998  0.74387  0.60759  1.0000
  O   O45       1.0  0.8915499999999997  0.8112500000000001  0.7412  1.0000
  O   O46       1.0  0.8360900000000001  0.90004  0.48698999999999987  1.0000
  O   O47       1.0  0.76378  0.96743  0.6690199999999997  1.0000
  O   O48       1.0  0.047400000000000046  0.96729  0.60654  1.0000
  O   O49       1.0  0.68559  0.54378  0.55325  1.0000
  O   O50       1.0  0.17089  0.62855  0.52228  1.0000
  O   O51       1.0  0.9357599999999999  0.60571  0.43728  1.0000
  O   O52       1.0  0.44386  0.60572  0.57999  1.0000
  O   O53       1.0  0.7145599999999999  0.028270000000000007  0.80437  1.0000
  O   O54       1.0  0.8371299999999997  0.8671000000000001  0.87677  1.0000
  O   O55       1.0  0.6129699999999999  0.5669  0.70551  1.0000
  O   O56       1.0  0.11301999999999998  0.7967800000000002  0.44169  1.0000
