data_image0
_chemical_formula_structural       Ag2H16C12N12
_chemical_formula_sum              "Ag2 H16 C12 N12"
_cell_length_a       5.23433
_cell_length_b       7.85403
_cell_length_c       11.33873
_cell_angle_alpha    90.0
_cell_angle_beta     106.63558
_cell_angle_gamma    90.0

_symmetry_space_group_name_H-M    'P 1'
_symmetry_Int_Tables_number       1

loop_
  _symmetry_equiv_pos_as_xyz
  'x,y,z'

loop_
  _atom_site_type_symbol
  _atom_site_label
  _atom_site_symmetry_multiplicity
  _atom_site_fract_x
  _atom_site_fract_y
  _atom_site_fract_z
  _atom_site_occupancy
  Ag  Ag1       1.0  0.0  0.7540699999999998  0.0  1.0000
  Ag  Ag2       1.0  0.0  0.24593  0.0  1.0000
  H   H1        1.0  0.26018  0.6131099999999998  0.49789  1.0000
  H   H2        1.0  0.5732  0.7726099999999998  0.7056  1.0000
  H   H3        1.0  0.73982  0.6131099999999998  0.50212  1.0000
  H   H4        1.0  0.4268  0.7726099999999998  0.29441  1.0000
  H   H5        1.0  0.24770999999999999  0.8869699999999999  0.51979  1.0000
  H   H6        1.0  0.13547  0.72689  0.71456  1.0000
  H   H7        1.0  0.7522900000000001  0.8869699999999999  0.4802100000000001  1.0000
  H   H8        1.0  0.86453  0.72689  0.28544  1.0000
  H   H9        1.0  0.73982  0.3868799999999999  0.50212  1.0000
  H   H10       1.0  0.4268  0.22737999999999997  0.29441  1.0000
  H   H11       1.0  0.26018  0.3868799999999999  0.49789  1.0000
  H   H12       1.0  0.5732  0.22737999999999997  0.7056  1.0000
  H   H13       1.0  0.7522900000000001  0.11301999999999997  0.4802100000000001  1.0000
  H   H14       1.0  0.86453  0.27311  0.28544  1.0000
  H   H15       1.0  0.24770999999999999  0.11301999999999997  0.51979  1.0000
  H   H16       1.0  0.13547  0.27311  0.71456  1.0000
  C   C1        1.0  0.59386  0.6411799999999998  0.73501  1.0000
  C   C2        1.0  0.40614000000000006  0.6411799999999998  0.26499  1.0000
  C   C3        1.0  0.11731000000000001  0.8586199999999998  0.73845  1.0000
  C   C4        1.0  0.88269  0.8586199999999998  0.26156  1.0000
  C   C5        1.0  0.40614000000000006  0.35881999999999986  0.26499  1.0000
  C   C6        1.0  0.59386  0.35881999999999986  0.73501  1.0000
  C   C7        1.0  0.88269  0.14138  0.26156  1.0000
  C   C8        1.0  0.11731000000000001  0.14138  0.73845  1.0000
  C   C9        1.0  0.3836  0.4999999999999999  0.53093  1.0000
  C   C10       1.0  0.6164  0.4999999999999999  0.46907  1.0000
  C   C11       1.0  0.14798  0.0  0.54297  1.0000
  C   C12       1.0  0.85202  0.0  0.45702999999999994  1.0000
  N   N1        1.0  0.73937  0.58655  0.84512  1.0000
  N   N2        1.0  0.26063  0.58655  0.15489  1.0000
  N   N3        1.0  0.08428000000000005  0.9134399999999998  0.84453  1.0000
  N   N4        1.0  0.91572  0.9134399999999998  0.15547  1.0000
  N   N5        1.0  0.26063  0.41344  0.15489  1.0000
  N   N6        1.0  0.73937  0.41344  0.84512  1.0000
  N   N7        1.0  0.91572  0.08655999999999997  0.15547  1.0000
  N   N8        1.0  0.08428000000000005  0.08655999999999997  0.84453  1.0000
  N   N9        1.0  0.48431  0.4999999999999999  0.66188  1.0000
  N   N10       1.0  0.51569  0.4999999999999999  0.33812  1.0000
  N   N11       1.0  0.16056999999999994  0.0  0.67035  1.0000
  N   N12       1.0  0.83943  0.0  0.32965  1.0000
