data_image0
_chemical_formula_structural       Ce2H18C36N6O12
_chemical_formula_sum              "Ce2 H18 C36 N6 O12"
_cell_length_a       10.28617
_cell_length_b       11.70672
_cell_length_c       13.6337
_cell_angle_alpha    66.79676
_cell_angle_beta     87.11404
_cell_angle_gamma    76.27001

_symmetry_space_group_name_H-M    'P 1'
_symmetry_Int_Tables_number       1

loop_
  _symmetry_equiv_pos_as_xyz
  'x,y,z'

loop_
  _atom_site_type_symbol
  _atom_site_label
  _atom_site_symmetry_multiplicity
  _atom_site_fract_x
  _atom_site_fract_y
  _atom_site_fract_z
  _atom_site_occupancy
  Ce  Ce1       1.0  0.2371100000000001  0.5078000000000001  0.51129  1.0000
  Ce  Ce2       1.0  0.76272  0.49272999999999995  0.48741  1.0000
  H   H1        1.0  0.70819  0.1690699999999999  0.8415800000000001  1.0000
  H   H2        1.0  0.30634000000000006  0.40969999999999984  0.78705  1.0000
  H   H3        1.0  0.27155999999999997  0.29703000000000007  0.97819  1.0000
  H   H4        1.0  0.5443500000000001  0.994  0.18136  1.0000
  H   H5        1.0  0.9478699999999998  0.7632899999999999  0.24535  1.0000
  H   H6        1.0  0.99362  0.8847099999999998  0.05695  1.0000
  H   H7        1.0  0.89717  0.46005999999999997  0.16265  1.0000
  H   H8        1.0  0.23401999999999998  0.58208  0.23015  1.0000
  H   H9        1.0  0.30550999999999995  0.6115599999999999  0.04703  1.0000
  H   H10       1.0  0.29192  0.83084  0.15847  1.0000
  H   H11       1.0  0.6937700000000001  0.59055  0.21295  1.0000
  H   H12       1.0  0.72827  0.7030099999999998  0.02159  1.0000
  H   H13       1.0  0.45574000000000003  0.00543999999999995  0.8191300000000001  1.0000
  H   H14       1.0  0.05198000000000005  0.23606999999999986  0.75522  1.0000
  H   H15       1.0  0.006790000000000002  0.11462999999999995  0.9438600000000001  1.0000
  H   H16       1.0  0.1028  0.5399  0.8373  1.0000
  H   H17       1.0  0.76519  0.41780999999999996  0.77021  1.0000
  H   H18       1.0  0.6944299999999999  0.3885  0.95302  1.0000
  C   C1        1.0  0.53535  0.37042  0.68243  1.0000
  C   C2        1.0  0.58002  0.14049999999999999  0.97522  1.0000
  C   C3        1.0  0.60968  0.20077999999999996  0.86791  1.0000
  C   C4        1.0  0.5107100000000001  0.29940999999999995  0.79774  1.0000
  C   C5        1.0  0.38694  0.33407999999999993  0.8381200000000001  1.0000
  C   C6        1.0  0.36763  0.26992999999999995  0.94608  1.0000
  C   C7        1.0  0.70439  0.7958199999999999  0.33977  1.0000
  C   C8        1.0  0.68053  0.03403  0.052430000000000004  1.0000
  C   C9        1.0  0.6458  0.9681999999999998  0.15705  1.0000
  C   C10       1.0  0.74273  0.8692699999999999  0.22880000000000003  1.0000
  C   C11       1.0  0.86975  0.8394599999999998  0.19201  1.0000
  C   C12       1.0  0.8946  0.90879  0.08604  1.0000
  C   C13       1.0  0.012430000000000004  0.49524  0.3218  1.0000
  C   C14       1.0  0.03649999999999996  0.51282  0.03835  1.0000
  C   C15       1.0  0.9885999999999998  0.49301000000000006  0.14045  1.0000
  C   C16       1.0  0.059650000000000036  0.5165299999999998  0.21186000000000002  1.0000
  C   C17       1.0  0.17570000000000002  0.5605699999999999  0.1781  1.0000
  C   C18       1.0  0.21504  0.57787  0.0747  1.0000
  C   C19       1.0  0.46465  0.63021  0.31732  1.0000
  C   C20       1.0  0.42003999999999997  0.8596399999999997  0.02495  1.0000
  C   C21       1.0  0.3904500000000001  0.7992399999999998  0.13219  1.0000
  C   C22       1.0  0.48927999999999994  0.7003999999999999  0.20205  1.0000
  C   C23       1.0  0.6133  0.6661700000000002  0.16181  1.0000
  C   C24       1.0  0.63246  0.7303299999999999  0.05388  1.0000
  C   C25       1.0  0.29655000000000004  0.20335  0.66043  1.0000
  C   C26       1.0  0.31945  0.9657400000000002  0.9479  1.0000
  C   C27       1.0  0.35424  0.03128999999999996  0.84333  1.0000
  C   C28       1.0  0.25748999999999994  0.13041  0.77154  1.0000
  C   C29       1.0  0.13038  0.16002  0.80836  1.0000
  C   C30       1.0  0.10558000000000002  0.09078999999999995  0.91437  1.0000
  C   C31       1.0  0.9873  0.50415  0.67761  1.0000
  C   C32       1.0  0.9635300000000002  0.4870599999999997  0.96158  1.0000
  C   C33       1.0  0.011370000000000019  0.5069  0.85941  1.0000
  C   C34       1.0  0.9401  0.48394  0.78765  1.0000
  C   C35       1.0  0.8242399999999999  0.43951999999999997  0.82176  1.0000
  C   C36       1.0  0.78496  0.4221499999999999  0.9252200000000002  1.0000
  N   N1        1.0  0.46069  0.17497999999999994  0.01422  1.0000
  N   N2        1.0  0.8037599999999999  0.005369999999999998  0.01649  1.0000
  N   N3        1.0  0.14865000000000003  0.5545199999999999  0.00526  1.0000
  N   N4        1.0  0.5391400000000001  0.8249299999999999  0.98579  1.0000
  N   N5        1.0  0.19639999999999996  0.9943099999999999  0.98406  1.0000
  N   N6        1.0  0.85128  0.44554000000000005  0.99476  1.0000
  O   O1        1.0  0.43376999999999993  0.44571  0.61978  1.0000
  O   O2        1.0  0.65454  0.35749999999999976  0.65121  1.0000
  O   O3        1.0  0.79168  0.6883999999999999  0.3983900000000001  1.0000
  O   O4        1.0  0.5941599999999999  0.83479  0.37162  1.0000
  O   O5        1.0  0.08371000000000006  0.5144999999999997  0.3855700000000001  1.0000
  O   O6        1.0  0.90296  0.46011  0.348  1.0000
  O   O7        1.0  0.56578  0.5538499999999998  0.3801  1.0000
  O   O8        1.0  0.34535999999999983  0.6423199999999998  0.34856  1.0000
  O   O9        1.0  0.21007  0.31134000000000006  0.60197  1.0000
  O   O10       1.0  0.40603  0.16357000000000002  0.62917  1.0000
  O   O11       1.0  0.91532  0.48519  0.61415  1.0000
  O   O12       1.0  0.09637999999999998  0.5398200000000001  0.65108  1.0000
