data_image0
_chemical_formula_structural       U5P8H28C12O24
_chemical_formula_sum              "U5 P8 H28 C12 O24"
_cell_length_a       9.42915
_cell_length_b       13.00434
_cell_length_c       12.23572
_cell_angle_alpha    72.286
_cell_angle_beta     74.7748
_cell_angle_gamma    93.22656

_symmetry_space_group_name_H-M    'P 1'
_symmetry_Int_Tables_number       1

loop_
  _symmetry_equiv_pos_as_xyz
  'x,y,z'

loop_
  _atom_site_type_symbol
  _atom_site_label
  _atom_site_symmetry_multiplicity
  _atom_site_fract_x
  _atom_site_fract_y
  _atom_site_fract_z
  _atom_site_occupancy
  U   U1        1.0  0.9827500000000001  0.06318  0.33896  1.0000
  U   U2        1.0  0.27443000000000006  0.30352  0.06863  1.0000
  U   U3        1.0  0.04135  0.90809  0.66411  1.0000
  U   U4        1.0  0.7077799999999999  0.6809199999999999  0.9396000000000002  1.0000
  U   U5        1.0  0.046129999999999984  0.99507  0.05234  1.0000
  P   P1        1.0  0.2706100000000001  0.15025999999999998  0.39098  1.0000
  P   P2        1.0  0.51408  0.43769  0.19253000000000003  1.0000
  P   P3        1.0  0.6920799999999999  0.9383499999999999  0.25816000000000006  1.0000
  P   P4        1.0  0.95955  0.24859  0.04887  1.0000
  P   P5        1.0  0.7388800000000002  0.83677  0.6130800000000001  1.0000
  P   P6        1.0  0.46014000000000005  0.5609099999999999  0.81198  1.0000
  P   P7        1.0  0.31796  0.05693999999999998  0.74947  1.0000
  P   P8        1.0  0.0167899999999999  0.7483899999999998  0.9774200000000002  1.0000
  H   H1        1.0  0.3339  0.03654  0.22014  1.0000
  H   H2        1.0  0.3618600000000001  0.9357099999999998  0.3458300000000001  1.0000
  H   H3        1.0  0.70002  0.4521899999999999  0.2858  1.0000
  H   H4        1.0  0.6346300000000001  0.31362  0.31126  1.0000
  H   H5        1.0  0.90033  0.37590999999999997  0.18609  1.0000
  H   H6        1.0  0.8505300000000001  0.47675999999999996  0.07583  1.0000
  H   H7        1.0  0.61395  0.07238000000000001  0.11681  1.0000
  H   H8        1.0  0.5277599999999999  0.9391399999999999  0.14384  1.0000
  H   H9        1.0  0.77032  0.34856999999999994  0.9919  1.0000
  H   H10       1.0  0.7062  0.24276000000000003  0.13289  1.0000
  H   H11       1.0  0.50582  0.17675999999999997  0.257  1.0000
  H   H12       1.0  0.49860999999999994  0.07697999999999998  0.39437000000000005  1.0000
  H   H13       1.0  0.34981  0.35857  0.36865  1.0000
  H   H14       1.0  0.6494199999999999  0.80343  0.4346600000000001  1.0000
  H   H15       1.0  0.70313  0.9830399999999999  0.7379100000000002  1.0000
  H   H16       1.0  0.6513900000000001  0.07471  0.621  1.0000
  H   H17       1.0  0.2783200000000001  0.5543399999999998  0.71228  1.0000
  H   H18       1.0  0.3516100000000001  0.69137  0.6862000000000001  1.0000
  H   H19       1.0  0.08359999999999992  0.64322  0.8005300000000001  1.0000
  H   H20       1.0  0.11798999999999996  0.5388599999999998  0.91694  1.0000
  H   H21       1.0  0.43927  0.93575  0.8700800000000002  1.0000
  H   H22       1.0  0.5150700000000001  0.07434  0.8292  1.0000
  H   H23       1.0  0.23964000000000002  0.67185  0.98323  1.0000
  H   H24       1.0  0.25818  0.77808  0.8489800000000001  1.0000
  H   H25       1.0  0.49173000000000006  0.83977  0.71833  1.0000
  H   H26       1.0  0.5425900000000001  0.93169  0.5701700000000001  1.0000
  H   H27       1.0  0.6347  0.6264299999999999  0.6414  1.0000
  H   H28       1.0  0.33452  0.19101999999999997  0.57723  1.0000
  C   C1        1.0  0.41257  0.013379999999999986  0.27369000000000004  1.0000
  C   C2        1.0  0.6726900000000002  0.39496  0.24168  1.0000
  C   C3        1.0  0.81234  0.39457  0.14218  1.0000
  C   C4        1.0  0.55475  0.9961099999999999  0.18869  1.0000
  C   C5        1.0  0.79517  0.31147  0.07730000000000001  1.0000
  C   C6        1.0  0.43849  0.10294999999999999  0.32744000000000006  1.0000
  C   C7        1.0  0.61173  0.99796  0.6967700000000001  1.0000
  C   C8        1.0  0.30774  0.6111699999999999  0.75673  1.0000
  C   C9        1.0  0.1659  0.61954  0.84983  1.0000
  C   C10       1.0  0.47918  0.012380000000000014  0.79344  1.0000
  C   C11       1.0  0.18615  0.70289  0.91258  1.0000
  C   C12       1.0  0.57977  0.9034899999999999  0.65084  1.0000
  O   O1        1.0  0.15044  0.04648999999999998  0.47119  1.0000
  O   O2        1.0  0.20244999999999996  0.20153000000000001  0.28631  1.0000
  O   O3        1.0  0.004239999999999986  0.21687  0.17105  1.0000
  O   O4        1.0  0.76176  0.02126000000000001  0.30564  1.0000
  O   O5        1.0  0.46814000000000006  0.35479  0.13603  1.0000
  O   O6        1.0  0.09782999999999993  0.32672999999999996  0.9566000000000001  1.0000
  O   O7        1.0  0.5499  0.55668  0.10863  1.0000
  O   O8        1.0  0.9211900000000001  0.14458  0.020320000000000005  1.0000
  O   O9        1.0  0.8087500000000001  0.90624  0.16489  1.0000
  O   O10       1.0  0.38537  0.43418  0.30834  1.0000
  O   O11       1.0  0.5991600000000001  0.8365599999999999  0.3697100000000001  1.0000
  O   O12       1.0  0.2985100000000001  0.22794999999999999  0.45624  1.0000
  O   O13       1.0  0.8738200000000002  0.9300399999999998  0.53011  1.0000
  O   O14       1.0  0.79456  0.78781  0.7251300000000002  1.0000
  O   O15       1.0  0.9579200000000002  0.8166399999999999  0.87067  1.0000
  O   O16       1.0  0.24990000000000007  0.97463  0.70205  1.0000
  O   O17       1.0  0.51989  0.6437599999999999  0.8621900000000002  1.0000
  O   O18       1.0  0.8878700000000002  0.65651  0.05176  1.0000
  O   O19       1.0  0.40849  0.44475999999999993  0.9000300000000002  1.0000
  O   O20       1.0  0.06597  0.82466  0.04143  1.0000
  O   O21       1.0  0.20766  0.06639999999999997  0.86376  1.0000
  O   O22       1.0  0.58318  0.55219  0.69905  1.0000
  O   O23       1.0  0.37686  0.17121  0.6491900000000002  1.0000
  O   O24       1.0  0.7061500000000003  0.75542  0.55289  1.0000
