data_image0
_chemical_formula_structural       Zn2H24C30N12
_chemical_formula_sum              "Zn2 H24 C30 N12"
_cell_length_a       5.07193
_cell_length_b       11.05712
_cell_length_c       19.788139999999995
_cell_angle_alpha    78.57690000000001
_cell_angle_beta     83.13574
_cell_angle_gamma    87.65614

_space_group_name_H-M_alt    "P 1"
_space_group_IT_number       1

loop_
  _space_group_symop_operation_xyz
  'x, y, z'

loop_
  _atom_site_type_symbol
  _atom_site_label
  _atom_site_symmetry_multiplicity
  _atom_site_fract_x
  _atom_site_fract_y
  _atom_site_fract_z
  _atom_site_occupancy
  Zn  Zn1       1.0  0.17237999999999995  0.91764  0.39265  1.0000
  Zn  Zn2       1.0  0.9417900000000001  0.45261000000000007  0.92399  1.0000
  H   H1        1.0  0.008569999999999951  0.5025200000000002  0.69891  1.0000
  H   H2        1.0  0.06093000000000002  0.36054  0.15998  1.0000
  H   H3        1.0  0.23025000000000007  0.2525  0.55007  1.0000
  H   H4        1.0  0.6647500000000001  0.5918400000000003  0.04229  1.0000
  H   H5        1.0  0.8429800000000001  0.5728200000000001  0.48729  1.0000
  H   H6        1.0  0.43488999999999994  0.97919  0.8395400000000001  1.0000
  H   H7        1.0  0.13869000000000004  0.4775  0.24736  1.0000
  H   H8        1.0  0.21017999999999995  0.54461  0.37509000000000003  1.0000
  H   H9        1.0  0.5997700000000001  0.75091  0.54539  1.0000
  H   H10       1.0  0.24356000000000003  0.73799  0.05052000000000001  1.0000
  H   H11       1.0  0.2724400000000001  0.9263  0.006610000000000001  1.0000
  H   H12       1.0  0.39848000000000006  0.3893400000000001  0.72767  1.0000
  H   H13       1.0  0.7477699999999998  0.9001100000000001  0.63035  1.0000
  H   H14       1.0  0.5619699999999999  0.000759999999999995  0.71787  1.0000
  H   H15       1.0  0.6991800000000001  0.01865999999999999  0.95067  1.0000
  H   H16       1.0  0.08815000000000002  0.16883999999999996  0.97239  1.0000
  H   H17       1.0  0.5029700000000003  0.7289000000000002  0.30853  1.0000
  H   H18       1.0  0.7585899999999999  0.01642999999999999  0.17936000000000002  1.0000
  H   H19       1.0  0.89536  0.86311  0.2358  1.0000
  H   H20       1.0  0.65467  0.3499399999999999  0.80909  1.0000
  H   H21       1.0  0.42424000000000006  0.47606  0.5049900000000002  1.0000
  H   H22       1.0  0.08606000000000003  0.05715  0.53221  1.0000
  H   H23       1.0  0.36606000000000005  0.23432  0.06822000000000002  1.0000
  H   H24       1.0  0.012999999999999984  0.7369400000000003  0.60829  1.0000
  C   C1        1.0  0.21781999999999993  0.60164  0.14666000000000004  1.0000
  C   C2        1.0  0.23761000000000002  0.99173  0.55103  1.0000
  C   C3        1.0  0.009720000000000006  0.58443  0.37751  1.0000
  C   C4        1.0  0.64881  0.25337000000000004  0.83161  1.0000
  C   C5        1.0  0.54463  0.50981  0.0628  1.0000
  C   C6        1.0  0.48841000000000007  0.09373000000000001  0.69683  1.0000
  C   C7        1.0  0.0035600000000000093  0.6685599999999999  0.2488  1.0000
  C   C8        1.0  0.8248500000000001  0.5987800000000001  0.43289999999999995  1.0000
  C   C9        1.0  0.22394000000000006  0.38879  0.12037  1.0000
  C   C10       1.0  0.18479  0.7203100000000002  0.10662999999999999  1.0000
  C   C11       1.0  0.31289  0.33037999999999995  0.63673  1.0000
  C   C12       1.0  0.38313  0.32809000000000005  0.07648  1.0000
  C   C13       1.0  0.41102  0.11692999999999998  0.6296000000000002  1.0000
  C   C14       1.0  0.5098500000000001  0.8362900000000001  0.55751  1.0000
  C   C15       1.0  0.58576  0.9107300000000002  0.59991  1.0000
  C   C16       1.0  0.64368  0.6856999999999999  0.34323  1.0000
  C   C17       1.0  0.09447000000000001  0.53436  0.64637  1.0000
  C   C18       1.0  0.07117  0.81394  0.13953  1.0000
  C   C19       1.0  0.97922  0.78853  0.21059  1.0000
  C   C20       1.0  0.52432  0.05952999999999999  0.84921  1.0000
  C   C21       1.0  0.31867999999999996  0.23518  0.599  1.0000
  C   C22       1.0  0.30874999999999997  0.51853  0.54422  1.0000
  C   C23       1.0  0.12593  0.57303  0.21811  1.0000
  C   C24       1.0  0.04198  0.10282000000000001  0.020590000000000004  1.0000
  C   C25       1.0  0.13796  0.98307  0.03459000000000001  1.0000
  C   C26       1.0  0.08428999999999999  0.64534  0.60062  1.0000
  C   C27       1.0  0.4013099999999999  0.31135000000000007  0.70166  1.0000
  C   C28       1.0  0.6495599999999999  0.07922  0.9030200000000002  1.0000
  C   C29       1.0  0.8666500000000001  0.024970000000000006  0.12644  1.0000
  C   C30       1.0  0.47301999999999994  0.19196999999999997  0.73294  1.0000
  N   N1        1.0  0.024090000000000004  0.9333000000000001  0.10237  1.0000
  N   N2        1.0  0.41248999999999997  0.01390999999999999  0.5949  1.0000
  N   N3        1.0  0.7303899999999999  0.2001199999999999  0.8912200000000001  1.0000
  N   N4        1.0  0.60022  0.66127  0.41158  1.0000
  N   N5        1.0  0.58364  0.4041000000000001  0.04132  1.0000
  N   N6        1.0  0.32744999999999996  0.50675  0.11176000000000001  1.0000
  N   N7        1.0  0.8906199999999997  0.64309  0.3192  1.0000
  N   N8        1.0  0.29179999999999995  0.8892600000000002  0.52749  1.0000
  N   N9        1.0  0.2223199999999999  0.6335900000000001  0.5378000000000001  1.0000
  N   N10       1.0  0.5252199999999999  0.17145000000000005  0.8025  1.0000
  N   N11       1.0  0.23099  0.45177999999999996  0.6098000000000001  1.0000
  N   N12       1.0  0.87145  0.12634  0.07784  1.0000
