data_image0
_chemical_formula_structural       Zn2H24C36N12O8
_chemical_formula_sum              "Zn2 H24 C36 N12 O8"
_cell_length_a       7.65673
_cell_length_b       9.29155
_cell_length_c       15.310690000000001
_cell_angle_alpha    89.40941
_cell_angle_beta     81.00004
_cell_angle_gamma    86.41283

_space_group_name_H-M_alt    "P 1"
_space_group_IT_number       1

loop_
  _space_group_symop_operation_xyz
  'x, y, z'

loop_
  _atom_site_type_symbol
  _atom_site_label
  _atom_site_symmetry_multiplicity
  _atom_site_fract_x
  _atom_site_fract_y
  _atom_site_fract_z
  _atom_site_occupancy
  Zn  Zn1       1.0  0.10936000000000003  0.37544  0.23789999999999994  1.0000
  Zn  Zn2       1.0  0.8906399999999999  0.62455  0.7621  1.0000
  H   H1        1.0  0.10565999999999999  0.7542599999999999  0.94293  1.0000
  H   H2        1.0  0.86175  0.03846  0.15611  1.0000
  H   H3        1.0  0.18507  0.6159299999999999  0.07425  1.0000
  H   H4        1.0  0.71068  0.83234  0.20052  1.0000
  H   H5        1.0  0.47343  0.9463  0.34399999999999986  1.0000
  H   H6        1.0  0.67309  0.20464999999999994  0.53468  1.0000
  H   H7        1.0  0.9267499999999999  0.20572999999999994  0.40772  1.0000
  H   H8        1.0  0.48924  0.18433  0.26745  1.0000
  H   H9        1.0  0.42783000000000004  0.25812  0.9679099999999998  1.0000
  H   H10       1.0  0.60862  0.09648  0.8508699999999999  1.0000
  H   H11       1.0  0.21884000000000006  0.39674999999999994  0.5684099999999997  1.0000
  H   H12       1.0  0.43264  0.47307  0.66339  1.0000
  H   H13       1.0  0.89434  0.24574  0.05707  1.0000
  H   H14       1.0  0.13825000000000004  0.9615299999999999  0.84389  1.0000
  H   H15       1.0  0.8149300000000002  0.38407  0.9257499999999997  1.0000
  H   H16       1.0  0.28931999999999997  0.16765  0.79948  1.0000
  H   H17       1.0  0.52657  0.05369999999999999  0.6559999999999998  1.0000
  H   H18       1.0  0.32691  0.79535  0.46532  1.0000
  H   H19       1.0  0.07324999999999997  0.79426  0.59228  1.0000
  H   H20       1.0  0.51076  0.81567  0.73256  1.0000
  H   H21       1.0  0.57217  0.74187  0.03209  1.0000
  H   H22       1.0  0.39138  0.90352  0.14913999999999994  1.0000
  H   H23       1.0  0.7811500000000001  0.60325  0.43158999999999986  1.0000
  H   H24       1.0  0.56736  0.52693  0.33661  1.0000
  C   C1        1.0  0.9805699999999999  0.8832399999999999  0.05643999999999998  1.0000
  C   C2        1.0  0.06179000000000005  0.86107  0.9690999999999997  1.0000
  C   C3        1.0  0.91943  0.02094  0.08738  1.0000
  C   C4        1.0  0.06415000000000004  0.64243  0.11953999999999997  1.0000
  C   C5        1.0  0.8210300000000001  0.7531299999999997  0.18637999999999993  1.0000
  C   C6        1.0  0.58449  0.08226  0.43222  1.0000
  C   C7        1.0  0.48412999999999995  0.9698699999999999  0.4123199999999999  1.0000
  C   C8        1.0  0.60047  0.11346  0.51964  1.0000
  C   C9        1.0  0.83993  0.21496999999999997  0.35801  1.0000
  C   C10       1.0  0.6189600000000001  0.20539999999999994  0.2834199999999999  1.0000
  C   C11       1.0  0.4001  0.0891  0.06514  1.0000
  C   C12       1.0  0.46033  0.14517999999999998  0.98115  1.0000
  C   C13       1.0  0.55923  0.05632  0.91659  1.0000
  C   C14       1.0  0.29573  0.18210999999999994  0.13637  1.0000
  C   C15       1.0  0.379  0.45722  0.4468099999999999  1.0000
  C   C16       1.0  0.34204999999999997  0.44212  0.53905  1.0000
  C   C17       1.0  0.46233000000000013  0.48419999999999996  0.59192  1.0000
  C   C18       1.0  0.25190000000000007  0.40377  0.39119  1.0000
  C   C19       1.0  0.01943000000000002  0.11675999999999999  0.94356  1.0000
  C   C20       1.0  0.93821  0.13893  0.030899999999999993  1.0000
  C   C21       1.0  0.08056000000000002  0.9790599999999999  0.91263  1.0000
  C   C22       1.0  0.9358400000000001  0.35756  0.8804599999999998  1.0000
  C   C23       1.0  0.17896  0.24687  0.81362  1.0000
  C   C24       1.0  0.41551  0.9177299999999999  0.56779  1.0000
  C   C25       1.0  0.51587  0.030129999999999997  0.58769  1.0000
  C   C26       1.0  0.39952999999999994  0.88654  0.48036  1.0000
  C   C27       1.0  0.16007000000000007  0.78502  0.6419899999999997  1.0000
  C   C28       1.0  0.38104  0.7945999999999999  0.71658  1.0000
  C   C29       1.0  0.59989  0.9109  0.93486  1.0000
  C   C30       1.0  0.53966  0.8548199999999999  0.018849999999999992  1.0000
  C   C31       1.0  0.4407699999999999  0.94368  0.08341999999999997  1.0000
  C   C32       1.0  0.70427  0.81789  0.86363  1.0000
  C   C33       1.0  0.6210000000000002  0.54278  0.5531899999999997  1.0000
  C   C34       1.0  0.65795  0.55788  0.46094999999999997  1.0000
  C   C35       1.0  0.53767  0.5158  0.40808  1.0000
  C   C36       1.0  0.7481000000000002  0.5962199999999999  0.60881  1.0000
  N   N1        1.0  0.9973700000000002  0.5634  0.18754  1.0000
  N   N2        1.0  0.84337  0.63258  0.23022  1.0000
  N   N3        1.0  0.9565900000000002  0.76499  0.11613999999999997  1.0000
  N   N4        1.0  0.8809199999999999  0.28061  0.28127  1.0000
  N   N5        1.0  0.74214  0.27541  0.23342999999999994  1.0000
  N   N6        1.0  0.67524  0.16425  0.3619999999999999  1.0000
  N   N7        1.0  0.002630000000000009  0.43659999999999993  0.81246  1.0000
  N   N8        1.0  0.1566200000000001  0.36741  0.7697899999999998  1.0000
  N   N9        1.0  0.04341000000000011  0.23501  0.88387  1.0000
  N   N10       1.0  0.11908000000000007  0.7193899999999998  0.71873  1.0000
  N   N11       1.0  0.2578500000000001  0.7245899999999998  0.76658  1.0000
  N   N12       1.0  0.32475  0.83575  0.6380099999999999  1.0000
  O   O1        1.0  0.26677  0.13447  0.21458  1.0000
  O   O2        1.0  0.23891999999999997  0.30962999999999996  0.11526  1.0000
  O   O3        1.0  0.26629  0.45626  0.3109699999999999  1.0000
  O   O4        1.0  0.14466000000000012  0.3134599999999999  0.4223399999999999  1.0000
  O   O5        1.0  0.73322  0.86553  0.78542  1.0000
  O   O6        1.0  0.7610799999999999  0.69036  0.88474  1.0000
  O   O7        1.0  0.73371  0.54374  0.68903  1.0000
  O   O8        1.0  0.85533  0.68654  0.57766  1.0000
