data_image0
_chemical_formula_structural       Ni2H32C40N8
_chemical_formula_sum              "Ni2 H32 C40 N8"
_cell_length_a       11.25236
_cell_length_b       11.25119
_cell_length_c       22.28285
_cell_angle_alpha    94.9071
_cell_angle_beta     94.74573999999998
_cell_angle_gamma    93.91455

_symmetry_space_group_name_H-M    'P 1'
_symmetry_Int_Tables_number       1

loop_
  _symmetry_equiv_pos_as_xyz
  'x,y,z'

loop_
  _atom_site_type_symbol
  _atom_site_label
  _atom_site_symmetry_multiplicity
  _atom_site_fract_x
  _atom_site_fract_y
  _atom_site_fract_z
  _atom_site_occupancy
  Ni  Ni1       1.0  0.00102  0.00104  3.0000000000000004e-05  1.0000
  Ni  Ni2       1.0  0.99846  0.99853  0.49964000000000003  1.0000
  H   H1        1.0  0.08620000000000003  0.18429  0.9121100000000001  1.0000
  H   H2        1.0  0.09774999999999996  0.17851999999999998  0.80265  1.0000
  H   H3        1.0  0.89468  0.8348700000000001  0.78591  1.0000
  H   H4        1.0  0.89178  0.85459  0.89677  1.0000
  H   H5        1.0  0.78725  0.8070499999999999  0.020330000000000004  1.0000
  H   H6        1.0  0.57251  0.8122199999999999  0.024420000000000004  1.0000
  H   H7        1.0  0.60551  0.16925  0.96433  1.0000
  H   H8        1.0  0.8199300000000002  0.14687  0.96202  1.0000
  H   H9        1.0  0.81523  0.91372  0.58783  1.0000
  H   H10       1.0  0.8211  0.90227  0.69728  1.0000
  H   H11       1.0  0.16468000000000005  0.10534000000000002  0.7136600000000001  1.0000
  H   H12       1.0  0.14479000000000006  0.10813  0.60283  1.0000
  H   H13       1.0  0.19281  0.21228  0.47974  1.0000
  H   H14       1.0  0.18793  0.42715  0.4758700000000001  1.0000
  H   H15       1.0  0.8304600000000001  0.39448  0.53577  1.0000
  H   H16       1.0  0.85266  0.17997  0.53788  1.0000
  H   H17       1.0  0.9155700000000001  0.81679  0.0872  1.0000
  H   H18       1.0  0.90279  0.8216800000000001  0.19666000000000003  1.0000
  H   H19       1.0  0.10537  0.16546  0.2147  1.0000
  H   H20       1.0  0.10947  0.14692  0.10381  1.0000
  H   H21       1.0  0.21392000000000003  0.19359000000000004  0.9792800000000002  1.0000
  H   H22       1.0  0.42863000000000007  0.1881  0.97516  1.0000
  H   H23       1.0  0.39524  0.8314  0.03577  1.0000
  H   H24       1.0  0.18087  0.85419  0.03809  1.0000
  H   H25       1.0  0.18287  0.08389  0.41245  1.0000
  H   H26       1.0  0.17793000000000003  0.09687999999999998  0.30303  1.0000
  H   H27       1.0  0.83411  0.89458  0.28512000000000004  1.0000
  H   H28       1.0  0.85269  0.89014  0.3959700000000001  1.0000
  H   H29       1.0  0.8059800000000001  0.7858400000000001  0.52057  1.0000
  H   H30       1.0  0.81175  0.57125  0.52498  1.0000
  H   H31       1.0  0.16854000000000002  0.60432  0.46422  1.0000
  H   H32       1.0  0.14553  0.8186  0.46157  1.0000
  C   C1        1.0  0.04743  0.10648999999999999  0.88314  1.0000
  C   C2        1.0  0.05393  0.10256999999999997  0.8213  1.0000
  C   C3        1.0  0.9973  0.005230000000000025  0.7826500000000001  1.0000
  C   C4        1.0  0.9385100000000001  0.91432  0.81193  1.0000
  C   C5        1.0  0.9373500000000001  0.92405  0.87418  1.0000
  C   C6        1.0  0.74464  0.8874599999999999  0.00965  1.0000
  C   C7        1.0  0.62245  0.89125  0.01195  1.0000
  C   C8        1.0  0.56401  0.9949800000000001  0.99786  1.0000
  C   C9        1.0  0.64071  0.08765000000000003  0.9787000000000001  1.0000
  C   C10       1.0  0.76189  0.07637999999999998  0.97734  1.0000
  C   C11       1.0  0.89303  0.95249  0.61672  1.0000
  C   C12       1.0  0.89707  0.9459299999999999  0.67854  1.0000
  C   C13       1.0  0.99449  0.0024999999999999935  0.7171  1.0000
  C   C14       1.0  0.08526  0.06135999999999999  0.68772  1.0000
  C   C15       1.0  0.07539  0.06256999999999997  0.6255  1.0000
  C   C16       1.0  0.11240000000000001  0.25504  0.49042  1.0000
  C   C17       1.0  0.10875000000000001  0.37726  0.48824  1.0000
  C   C18       1.0  0.004929999999999997  0.4358  0.50227  1.0000
  C   C19       1.0  0.91212  0.35919  0.52139  1.0000
  C   C20       1.0  0.92328  0.23798  0.52265  1.0000
  C   C21       1.0  0.9537600000000003  0.8944999999999999  0.11642  1.0000
  C   C22       1.0  0.94664  0.89781  0.17819000000000002  1.0000
  C   C23       1.0  0.0027499999999999933  0.99493  0.21714  1.0000
  C   C24       1.0  0.06187000000000001  0.08626  0.18832000000000002  1.0000
  C   C25       1.0  0.06362  0.07719  0.12611  1.0000
  C   C26       1.0  0.25654  0.11327000000000002  0.9901000000000001  1.0000
  C   C27       1.0  0.37866  0.10918  0.98772  1.0000
  C   C28       1.0  0.43693000000000004  0.00542  0.00195  1.0000
  C   C29       1.0  0.36018  0.91296  0.02126  1.0000
  C   C30       1.0  0.23906  0.9245  0.02271  1.0000
  C   C31       1.0  0.10514  0.04578  0.38328  1.0000
  C   C32       1.0  0.10186  0.05292  0.32154  1.0000
  C   C33       1.0  0.004749999999999996  0.9968899999999999  0.28262  1.0000
  C   C34       1.0  0.9133900000000003  0.9378199999999999  0.31147  1.0000
  C   C35       1.0  0.9224200000000001  0.93601  0.37366  1.0000
  C   C36       1.0  0.88639  0.74322  0.50978  1.0000
  C   C37       1.0  0.8906200000000001  0.6211600000000002  0.51232  1.0000
  C   C38       1.0  0.9944600000000001  0.56284  0.4981200000000001  1.0000
  C   C39       1.0  0.0869  0.63947  0.4787  1.0000
  C   C40       1.0  0.07524000000000002  0.76055  0.47707000000000005  1.0000
  N   N1        1.0  0.99024  0.01914000000000003  0.9112200000000001  1.0000
  N   N2        1.0  0.8179700000000001  0.979  0.9939500000000001  1.0000
  N   N3        1.0  0.9802700000000001  0.009700000000000007  0.58855  1.0000
  N   N4        1.0  0.020660000000000005  0.18177  0.50597  1.0000
  N   N5        1.0  0.011079999999999991  0.9823899999999999  0.08875000000000001  1.0000
  N   N6        1.0  0.1832  0.022  0.006040000000000001  1.0000
  N   N7        1.0  0.017190000000000004  0.98852  0.41097  1.0000
  N   N8        1.0  0.9775900000000001  0.81646  0.49368  1.0000
