data_image0
_chemical_formula_structural       EuAgH24C24N4O8
_chemical_formula_sum              "Eu1 Ag1 H24 C24 N4 O8"
_cell_length_a       7.65451
_cell_length_b       8.28192
_cell_length_c       12.9687
_cell_angle_alpha    90.24421000000001
_cell_angle_beta     90.00718
_cell_angle_gamma    89.8435

_space_group_name_H-M_alt    "P 1"
_space_group_IT_number       1

loop_
  _space_group_symop_operation_xyz
  'x, y, z'

loop_
  _atom_site_type_symbol
  _atom_site_label
  _atom_site_symmetry_multiplicity
  _atom_site_fract_x
  _atom_site_fract_y
  _atom_site_fract_z
  _atom_site_occupancy
  Eu  Eu1       1.0  0.99923  0.49846  0.4999  1.0000
  Ag  Ag1       1.0  0.50131  0.9999699999999999  0.99978  1.0000
  H   H1        1.0  0.42639  0.69267  0.40656  1.0000
  H   H2        1.0  0.4497  0.65162  0.27177  1.0000
  H   H3        1.0  0.46919  0.85146  0.31609  1.0000
  H   H4        1.0  0.19762999999999994  0.86567  0.20677  1.0000
  H   H5        1.0  0.028509999999999994  0.82055  0.11651  1.0000
  H   H6        1.0  0.18308  0.66969  0.15371  1.0000
  H   H7        1.0  0.57061  0.30612  0.40673  1.0000
  H   H8        1.0  0.54734  0.34563  0.2719  1.0000
  H   H9        1.0  0.5293  0.14608  0.31611999999999996  1.0000
  H   H10       1.0  0.79991  0.13347  0.20365  1.0000
  H   H11       1.0  0.97072  0.17686  0.11452  1.0000
  H   H12       1.0  0.81809  0.3295  0.15197  1.0000
  H   H13       1.0  0.57406  0.69153  0.59363  1.0000
  H   H14       1.0  0.55036  0.65253  0.72842  1.0000
  H   H15       1.0  0.52951  0.85163  0.6839  1.0000
  H   H16       1.0  0.8016699999999998  0.86535  0.79426  1.0000
  H   H17       1.0  0.9710899999999998  0.82114  0.8843399999999999  1.0000
  H   H18       1.0  0.81836  0.66946  0.8460699999999998  1.0000
  H   H19       1.0  0.42616999999999994  0.30666  0.59359  1.0000
  H   H20       1.0  0.4493199999999999  0.34798  0.72837  1.0000
  H   H21       1.0  0.4704399999999999  0.1479  0.68395  1.0000
  H   H22       1.0  0.19951  0.13385  0.79481  1.0000
  H   H23       1.0  0.02904  0.17926  0.8843099999999999  1.0000
  H   H24       1.0  0.18084  0.33091  0.8457599999999998  1.0000
  C   C1        1.0  0.49775  0.72536  0.33654  1.0000
  C   C2        1.0  0.69066  0.69919  0.35176  1.0000
  C   C3        1.0  0.80761  0.73516  0.26658  1.0000
  C   C4        1.0  0.9945399999999998  0.72038  0.27135  1.0000
  C   C5        1.0  0.10502  0.77296  0.18086  1.0000
  C   C6        1.0  0.7304799999999998  0.79271  0.1757  1.0000
  C   C7        1.0  0.49974  0.27231  0.33657999999999993  1.0000
  C   C8        1.0  0.30642  0.29693  0.35136  1.0000
  C   C9        1.0  0.1912  0.26322  0.26499  1.0000
  C   C10       1.0  0.00424  0.27563  0.27032  1.0000
  C   C11       1.0  0.89414  0.22513  0.17891  1.0000
  C   C12       1.0  0.26916  0.20959  0.17318  1.0000
  C   C13       1.0  0.50213  0.72516  0.66349  1.0000
  C   C14       1.0  0.30943  0.6988  0.6482  1.0000
  C   C15       1.0  0.19269999999999995  0.73516  0.7336499999999999  1.0000
  C   C16       1.0  0.005999999999999998  0.72092  0.7287999999999999  1.0000
  C   C17       1.0  0.8953199999999998  0.77313  0.81965  1.0000
  C   C18       1.0  0.26972  0.79223  0.82484  1.0000
  C   C19       1.0  0.4977999999999999  0.27415  0.66359  1.0000
  C   C20       1.0  0.69052  0.30033  0.64831  1.0000
  C   C21       1.0  0.8073299999999998  0.26381  0.73351  1.0000
  C   C22       1.0  0.9943  0.27593  0.72833  1.0000
  C   C23       1.0  0.10491  0.22603  0.8195599999999998  1.0000
  C   C24       1.0  0.73059  0.20753  0.8246899999999999  1.0000
  N   N1        1.0  0.66376  0.8392  0.09987  1.0000
  N   N2        1.0  0.33623  0.16622  0.0964  1.0000
  N   N3        1.0  0.33564  0.83845  0.90121  1.0000
  N   N4        1.0  0.66517  0.16129  0.90092  1.0000
  O   O1        1.0  0.74242  0.64812  0.43761  1.0000
  O   O2        1.0  0.07399  0.6644  0.34877  1.0000
  O   O3        1.0  0.25217  0.34433  0.43781  1.0000
  O   O4        1.0  0.92492  0.32777  0.34909  1.0000
  O   O5        1.0  0.25752  0.64755  0.56222  1.0000
  O   O6        1.0  0.92678  0.66536  0.6509799999999999  1.0000
  O   O7        1.0  0.74209  0.35154  0.56249  1.0000
  O   O8        1.0  0.07378000000000001  0.32804  0.65002  1.0000
