data_image0
_chemical_formula_structural       Er4H12C24O24
_chemical_formula_sum              "Er4 H12 C24 O24"
_cell_length_a       8.23699
_cell_length_b       9.77323
_cell_length_c       17.60199
_cell_angle_alpha    89.99213
_cell_angle_beta     89.98999999999998
_cell_angle_gamma    111.04665000000001

_symmetry_space_group_name_H-M    'P 1'
_symmetry_Int_Tables_number       1

loop_
  _symmetry_equiv_pos_as_xyz
  'x,y,z'

loop_
  _atom_site_type_symbol
  _atom_site_label
  _atom_site_symmetry_multiplicity
  _atom_site_fract_x
  _atom_site_fract_y
  _atom_site_fract_z
  _atom_site_occupancy
  Er  Er1       1.0  0.3447  0.02432000000000001  0.25614  1.0000
  Er  Er2       1.0  0.65475  0.47546000000000005  0.75766  1.0000
  Er  Er3       1.0  0.65442  0.97457  0.74402  1.0000
  Er  Er4       1.0  0.34037  0.52493  0.24389  1.0000
  H   H1        1.0  0.8894300000000002  0.4059500000000001  0.2624199999999999  1.0000
  H   H2        1.0  0.78821  0.66177  0.32337  1.0000
  H   H3        1.0  0.38834  0.09097  0.52404  1.0000
  H   H4        1.0  0.11016  0.09364  0.76249  1.0000
  H   H5        1.0  0.21044000000000002  0.8373300000000002  0.8234099999999999  1.0000
  H   H6        1.0  0.61207  0.41011  0.02243  1.0000
  H   H7        1.0  0.11016999999999995  0.59361  0.73764  1.0000
  H   H8        1.0  0.21232  0.33876  0.67663  1.0000
  H   H9        1.0  0.61147  0.90945  0.47646999999999995  1.0000
  H   H10       1.0  0.88944  0.9057400000000001  0.23748999999999998  1.0000
  H   H11       1.0  0.78872  0.16189000000000003  0.17653  1.0000
  H   H12       1.0  0.38806  0.59106  0.9760400000000001  1.0000
  C   C1        1.0  0.61649  0.37064  0.2846  1.0000
  C   C2        1.0  0.80484  0.46051  0.28456  1.0000
  C   C3        1.0  0.8703800000000002  0.60285  0.30423  1.0000
  C   C4        1.0  0.05682000000000006  0.69148  0.29234  1.0000
  C   C5        1.0  0.40137  0.02304  0.40475  1.0000
  C   C6        1.0  0.44495  0.03126000000000001  0.48655  1.0000
  C   C7        1.0  0.38295  0.12955000000000003  0.78476  1.0000
  C   C8        1.0  0.19528  0.03963  0.78457  1.0000
  C   C9        1.0  0.12960000000000005  0.8974300000000001  0.80423  1.0000
  C   C10       1.0  0.94311  0.8097100000000002  0.79202  1.0000
  C   C11       1.0  0.5977  0.47726  0.90483  1.0000
  C   C12       1.0  0.55393  0.46923000000000004  0.9858  1.0000
  C   C13       1.0  0.3829  0.62964  0.7149  1.0000
  C   C14       1.0  0.19488000000000005  0.5393400000000002  0.71538  1.0000
  C   C15       1.0  0.12919  0.39694  0.69592  1.0000
  C   C16       1.0  0.94194  0.30896  0.70771  1.0000
  C   C17       1.0  0.59857  0.97687  0.5954399999999999  1.0000
  C   C18       1.0  0.55478  0.96915  0.51382  1.0000
  C   C19       1.0  0.61716  0.8699  0.21543999999999996  1.0000
  C   C20       1.0  0.8050400000000001  0.9603400000000001  0.21553  1.0000
  C   C21       1.0  0.87064  0.10265  0.19576  1.0000
  C   C22       1.0  0.057300000000000025  0.19068000000000004  0.20789  1.0000
  C   C23       1.0  0.40213  0.52296  0.09497999999999997  1.0000
  C   C24       1.0  0.4452  0.53166  0.013329999999999996  1.0000
  O   O1        1.0  0.57799  0.23974000000000004  0.26043  1.0000
  O   O2        1.0  0.50405  0.42582  0.30627  1.0000
  O   O3        1.0  0.16924  0.62875  0.29216  1.0000
  O   O4        1.0  0.09593000000000004  0.8283400000000001  0.2812  1.0000
  O   O5        1.0  0.30902  0.09385000000000002  0.37824  1.0000
  O   O6        1.0  0.4581699999999999  0.94637  0.35986  1.0000
  O   O7        1.0  0.4229799999999999  0.26053  0.7604599999999998  1.0000
  O   O8        1.0  0.49567999999999995  0.07509  0.80669  1.0000
  O   O9        1.0  0.8297899999999998  0.87156  0.79194  1.0000
  O   O10       1.0  0.90631  0.673  0.7809899999999997  1.0000
  O   O11       1.0  0.69167  0.40681  0.87934  1.0000
  O   O12       1.0  0.54034  0.55346  0.85985  1.0000
  O   O13       1.0  0.4216  0.76026  0.73971  1.0000
  O   O14       1.0  0.49574  0.57531  0.69278  1.0000
  O   O15       1.0  0.82909  0.37142  0.70791  1.0000
  O   O16       1.0  0.9042  0.17209  0.71895  1.0000
  O   O17       1.0  0.69109  0.90604  0.6217999999999998  1.0000
  O   O18       1.0  0.54146  0.05342  0.64034  1.0000
  O   O19       1.0  0.57711  0.73896  0.23949999999999996  1.0000
  O   O20       1.0  0.50508  0.9253600000000001  0.19357  1.0000
  O   O21       1.0  0.17003  0.12845  0.20834  1.0000
  O   O22       1.0  0.09498999999999998  0.32765  0.21894999999999995  1.0000
  O   O23       1.0  0.30877  0.5936  0.1208  1.0000
  O   O24       1.0  0.45868  0.44695000000000007  0.14016  1.0000
