data_image0
_chemical_formula_structural       Cu4H8C8N12
_chemical_formula_sum              "Cu4 H8 C8 N12"
_cell_length_a       7.75852
_cell_length_b       11.14685
_cell_length_c       11.83612
_cell_angle_alpha    118.19047
_cell_angle_beta     108.45057
_cell_angle_gamma    90.02105

_symmetry_space_group_name_H-M    'P 1'
_symmetry_Int_Tables_number       1

loop_
  _symmetry_equiv_pos_as_xyz
  'x,y,z'

loop_
  _atom_site_type_symbol
  _atom_site_label
  _atom_site_symmetry_multiplicity
  _atom_site_fract_x
  _atom_site_fract_y
  _atom_site_fract_z
  _atom_site_occupancy
  Cu  Cu1       1.0  0.9155800000000001  0.9141499999999999  0.8292499999999999  1.0000
  Cu  Cu2       1.0  0.4155700000000001  0.9150899999999998  0.82927  1.0000
  Cu  Cu3       1.0  0.9146600000000001  0.90982  0.32743  1.0000
  Cu  Cu4       1.0  0.4146600000000001  0.41764  0.32744  1.0000
  H   H1        1.0  0.74949  0.91115  0.54094  1.0000
  H   H2        1.0  0.07845000000000003  0.91053  0.11467  1.0000
  H   H3        1.0  0.79127  0.62822  0.53855  1.0000
  H   H4        1.0  0.036670000000000015  0.20575  0.11649  1.0000
  H   H5        1.0  0.24962  0.62987  0.54104  1.0000
  H   H6        1.0  0.57833  0.20407000000000003  0.11459  1.0000
  H   H7        1.0  0.29122  0.91029  0.53842  1.0000
  H   H8        1.0  0.5367200000000001  0.91077  0.1166  1.0000
  C   C1        1.0  0.8958800000000001  0.90967  0.56817  1.0000
  C   C2        1.0  0.9325900000000003  0.91365  0.08822  1.0000
  C   C3        1.0  0.6723500000000002  0.6577699999999999  0.56733  1.0000
  C   C4        1.0  0.15610000000000002  0.1753  0.08883  1.0000
  C   C5        1.0  0.3960400000000001  0.65879  0.56844  1.0000
  C   C6        1.0  0.4324400000000001  0.17429  0.08796  1.0000
  C   C7        1.0  0.17211  0.9095399999999999  0.56701  1.0000
  C   C8        1.0  0.65633  0.9135499999999999  0.08914  1.0000
  N   N1        1.0  0.0005199999999999653  0.90398  0.6799799999999999  1.0000
  N   N2        1.0  0.8293100000000002  0.9224899999999999  0.97812  1.0000
  N   N3        1.0  0.6789500000000003  0.77551  0.67971  1.0000
  N   N4        1.0  0.1504999999999999  0.05588999999999992  0.9782899999999999  1.0000
  N   N5        1.0  0.5008400000000002  0.77649  0.68059  1.0000
  N   N6        1.0  0.32902000000000003  0.05512000000000001  0.9775499999999999  1.0000
  N   N7        1.0  0.1785  0.90407  0.67908  1.0000
  N   N8        1.0  0.6509300000000002  0.92246  0.97889  1.0000
  N   N9        1.0  0.9981700000000001  0.9115799999999998  0.4940399999999999  1.0000
  N   N10       1.0  0.8298800000000002  0.9090899999999998  0.16106  1.0000
  N   N11       1.0  0.4982900000000001  0.58272  0.49423  1.0000
  N   N12       1.0  0.32976  0.25173  0.16086  1.0000
