data_image0
_chemical_formula_structural       Al4H16C32O20
_chemical_formula_sum              "Al4 H16 C32 O20"
_cell_length_a       11.92849
_cell_length_b       12.10587
_cell_length_c       12.10468
_cell_angle_alpha    75.90722
_cell_angle_beta     60.43189
_cell_angle_gamma    60.44389999999999

_symmetry_space_group_name_H-M    'P 1'
_symmetry_Int_Tables_number       1

loop_
  _symmetry_equiv_pos_as_xyz
  'x,y,z'

loop_
  _atom_site_type_symbol
  _atom_site_label
  _atom_site_symmetry_multiplicity
  _atom_site_fract_x
  _atom_site_fract_y
  _atom_site_fract_z
  _atom_site_occupancy
  Al  Al1       1.0  0.1920800000000001  0.99999  0.61605  1.0000
  Al  Al2       1.0  0.80806  0.9999700000000001  0.3838500000000001  1.0000
  Al  Al3       1.0  0.9419900000000002  0.11614  0.49993  1.0000
  Al  Al4       1.0  0.5581400000000002  0.8837700000000001  0.50008  1.0000
  H   H1        1.0  0.64758  0.05901000000000001  0.8034999999999999  1.0000
  H   H2        1.0  0.5099300000000001  0.94105  0.19655  1.0000
  H   H3        1.0  0.4564600000000002  0.30362  0.44094000000000005  1.0000
  H   H4        1.0  0.20105999999999993  0.6966000000000002  0.55874  1.0000
  H   H5        1.0  0.10243999999999995  0.6964900000000002  0.44106000000000006  1.0000
  H   H6        1.0  0.24013000000000018  0.30349  0.55887  1.0000
  H   H7        1.0  0.29343  0.05913000000000001  0.19647000000000003  1.0000
  H   H8        1.0  0.54908  0.94112  0.80345  1.0000
  H   H9        1.0  0.18919  0.9358000000000002  0.436  1.0000
  H   H10       1.0  0.56087  0.06398  0.56401  1.0000
  H   H11       1.0  0.8750699999999999  0.93581  0.56395  1.0000
  H   H12       1.0  0.37537  0.06388  0.43594  1.0000
  H   H13       1.0  0.8899800000000004  0.99983  0.99988  1.0000
  H   H14       1.0  0.63988  0.49984000000000006  0.4999799999999999  1.0000
  H   H15       1.0  0.8600700000000003  0.50011  0.5002  1.0000
  H   H16       1.0  0.11018  0.99999  0.00015  1.0000
  C   C1        1.0  0.8911400000000002  0.04871  0.76568  1.0000
  C   C2        1.0  0.7812000000000001  0.027440000000000006  0.8886899999999999  1.0000
  C   C3        1.0  0.6615200000000001  0.031070000000000004  0.8900100000000001  1.0000
  C   C4        1.0  0.7056400000000003  0.95112  0.23424  1.0000
  C   C5        1.0  0.69744  0.9724100000000002  0.11124  1.0000
  C   C6        1.0  0.58262  0.96884  0.10999  1.0000
  C   C7        1.0  0.6897800000000001  0.26573  0.45111999999999997  1.0000
  C   C8        1.0  0.55864  0.38877  0.47237  1.0000
  C   C9        1.0  0.44254999999999994  0.39008  0.46883  1.0000
  C   C10       1.0  0.40675000000000006  0.7342100000000001  0.54877  1.0000
  C   C11       1.0  0.41991000000000006  0.6112500000000001  0.5274  1.0000
  C   C12       1.0  0.30149999999999993  0.61  0.531  1.0000
  C   C13       1.0  0.8590700000000001  0.7342200000000001  0.45122  1.0000
  C   C14       1.0  0.96889  0.6112500000000001  0.47259  1.0000
  C   C15       1.0  0.08852999999999994  0.6099800000000001  0.46898  1.0000
  C   C16       1.0  0.04446999999999999  0.26577  0.54878  1.0000
  C   C17       1.0  0.05259999999999998  0.38877  0.52758  1.0000
  C   C18       1.0  0.16740999999999992  0.39005000000000006  0.53115  1.0000
  C   C19       1.0  0.06015999999999999  0.04885000000000001  0.23423000000000002  1.0000
  C   C20       1.0  0.19137  0.02762  0.11125000000000002  1.0000
  C   C21       1.0  0.30742  0.0312  0.10997  1.0000
  C   C22       1.0  0.34340000000000015  0.9510300000000002  0.7658099999999999  1.0000
  C   C23       1.0  0.33020999999999995  0.9724700000000001  0.88877  1.0000
  C   C24       1.0  0.4485900000000004  0.9689000000000001  0.89004  1.0000
  C   C25       1.0  0.79882  0.9999200000000001  0.9999300000000001  1.0000
  C   C26       1.0  0.5618600000000001  0.0  2e-05  1.0000
  C   C27       1.0  0.5488  0.49995  0.49984000000000006  1.0000
  C   C28       1.0  0.3118400000000001  0.50008  0.49990000000000007  1.0000
  C   C29       1.0  0.9512400000000001  0.50005  0.5001  1.0000
  C   C30       1.0  0.18816000000000005  0.50001  0.50004  1.0000
  C   C31       1.0  0.20126000000000005  0.00011  4e-05  1.0000
  C   C32       1.0  0.4381800000000001  0.00011  0.9999599999999998  1.0000
  O   O1        1.0  0.84926  0.11037  0.68036  1.0000
  O   O2        1.0  0.017880000000000038  0.00045000000000000004  0.75467  1.0000
  O   O3        1.0  0.64013  0.88941  0.31954  1.0000
  O   O4        1.0  0.7730700000000003  0.9993800000000002  0.24524  1.0000
  O   O5        1.0  0.7095200000000003  0.18053000000000002  0.3894  1.0000
  O   O6        1.0  0.7682099999999998  0.25466000000000005  0.49942  1.0000
  O   O7        1.0  0.27943000000000007  0.81951  0.61032  1.0000
  O   O8        1.0  0.5224800000000003  0.74525  0.50068  1.0000
  O   O9        1.0  0.9010899999999998  0.8194500000000001  0.38954  1.0000
  O   O10       1.0  0.7323000000000001  0.74523  0.49942  1.0000
  O   O11       1.0  0.10998999999999998  0.18051  0.61048  1.0000
  O   O12       1.0  0.97705  0.25479  0.50048  1.0000
  O   O13       1.0  0.04018000000000001  0.11069  0.31946  1.0000
  O   O14       1.0  0.9818600000000002  0.00042  0.24525  1.0000
  O   O15       1.0  0.4707300000000001  0.88928  0.68059  1.0000
  O   O16       1.0  0.22773000000000013  0.9992900000000001  0.75467  1.0000
  O   O17       1.0  0.12439999999999998  0.00108  0.5007  1.0000
  O   O18       1.0  0.6258399999999998  0.99902  0.49899  1.0000
  O   O19       1.0  0.87481  0.00099  0.49913  1.0000
  O   O20       1.0  0.37519  0.9990400000000002  0.50109  1.0000
