data_image0
_chemical_formula_structural       Gd2H4C14N4O12
_chemical_formula_sum              "Gd2 H4 C14 N4 O12"
_cell_length_a       6.12615
_cell_length_b       10.48882
_cell_length_c       11.01408
_cell_angle_alpha    72.00539
_cell_angle_beta     83.92612
_cell_angle_gamma    69.88768

_symmetry_space_group_name_H-M    'P 1'
_symmetry_Int_Tables_number       1

loop_
  _symmetry_equiv_pos_as_xyz
  'x,y,z'

loop_
  _atom_site_type_symbol
  _atom_site_label
  _atom_site_symmetry_multiplicity
  _atom_site_fract_x
  _atom_site_fract_y
  _atom_site_fract_z
  _atom_site_occupancy
  Gd  Gd1       1.0  0.92818  0.62937  0.22783  1.0000
  Gd  Gd2       1.0  0.0719099999999999  0.3704600000000001  0.7722300000000001  1.0000
  H   H1        1.0  0.34817  0.04857  0.03064  1.0000
  H   H2        1.0  0.6265499999999998  0.24803999999999998  0.61306  1.0000
  H   H3        1.0  0.6517799999999997  0.95131  0.96945  1.0000
  H   H4        1.0  0.37353  0.7518600000000001  0.38708  1.0000
  C   C1        1.0  0.34911999999999993  0.7724700000000001  0.16141  1.0000
  C   C2        1.0  0.1641799999999999  0.89588  0.07858  1.0000
  C   C3        1.0  0.19308  0.026750000000000006  0.01608  1.0000
  C   C4        1.0  0.9800999999999999  0.35417000000000004  0.48651999999999995  1.0000
  C   C5        1.0  0.7207299999999998  0.42365  0.48445  1.0000
  C   C6        1.0  0.5705399999999998  0.3609  0.5643  1.0000
  C   C7        1.0  0.11768999999999999  0.44732000000000005  0.02863  1.0000
  C   C8        1.0  0.6508899999999997  0.22737000000000004  0.8386699999999999  1.0000
  C   C9        1.0  0.83578  0.10397999999999998  0.92153  1.0000
  C   C10       1.0  0.8068699999999999  0.97313  0.98403  1.0000
  C   C11       1.0  0.019980000000000036  0.6457  0.51352  1.0000
  C   C12       1.0  0.27936  0.57624  0.51564  1.0000
  C   C13       1.0  0.42955  0.63899  0.4358000000000001  1.0000
  C   C14       1.0  0.8825  0.5524600000000001  0.97145  1.0000
  N   N1        1.0  0.9685999999999998  0.87019  0.06428  1.0000
  N   N2        1.0  0.64838  0.5615500000000001  0.41741999999999996  1.0000
  N   N3        1.0  0.03136000000000002  0.12968  0.93581  1.0000
  N   N4        1.0  0.35169999999999996  0.43834000000000006  0.58266  1.0000
  O   O1        1.0  0.29829999999999995  0.6593600000000001  0.20571000000000003  1.0000
  O   O2        1.0  0.5341799999999999  0.79157  0.18097  1.0000
  O   O3        1.0  0.08821000000000001  0.40017  0.38673  1.0000
  O   O4        1.0  0.06679999999999997  0.26749  0.59281  1.0000
  O   O5        1.0  0.1784699999999999  0.45636  0.13081  1.0000
  O   O6        1.0  0.22971000000000003  0.35984  0.9674400000000001  1.0000
  O   O7        1.0  0.7018  0.34045000000000003  0.7943  1.0000
  O   O8        1.0  0.46582  0.20825000000000002  0.81916  1.0000
  O   O9        1.0  0.9117799999999995  0.59977  0.61327  1.0000
  O   O10       1.0  0.9334699999999997  0.7323200000000001  0.40715  1.0000
  O   O11       1.0  0.8217499999999999  0.54351  0.86925  1.0000
  O   O12       1.0  0.7704300000000001  0.63988  0.03269  1.0000
