data_image0
_chemical_formula_structural       In4H16C32O20
_chemical_formula_sum              "In4 H16 C32 O20"
_cell_length_a       12.46401
_cell_length_b       12.72939
_cell_length_c       12.71491
_cell_angle_alpha    76.11182
_cell_angle_beta     60.64598
_cell_angle_gamma    60.68160000000001

_symmetry_space_group_name_H-M    'P 1'
_symmetry_Int_Tables_number       1

loop_
  _symmetry_equiv_pos_as_xyz
  'x,y,z'

loop_
  _atom_site_type_symbol
  _atom_site_label
  _atom_site_symmetry_multiplicity
  _atom_site_fract_x
  _atom_site_fract_y
  _atom_site_fract_z
  _atom_site_occupancy
  In  In1       1.0  0.06427999999999999  0.87122  0.50017  1.0000
  In  In2       1.0  0.4355200000000002  0.12885  0.50017  1.0000
  In  In3       1.0  0.6861100000000001  0.9998800000000001  0.62795  1.0000
  In  In4       1.0  0.3139899999999999  0.9998800000000001  0.37211  1.0000
  H   H1        1.0  0.011949999999999992  0.9413  0.18602  1.0000
  H   H2        1.0  0.13917999999999994  0.05886000000000001  0.81403  1.0000
  H   H3        1.0  0.7034199999999999  0.68584  0.55864  1.0000
  H   H4        1.0  0.9479  0.3143  0.44112  1.0000
  H   H5        1.0  0.7379500000000002  0.31421  0.55867  1.0000
  H   H6        1.0  0.6109100000000001  0.68575  0.44115  1.0000
  H   H7        1.0  0.04669999999999997  0.9413200000000002  0.81393  1.0000
  H   H8        1.0  0.8020300000000002  0.05888  0.18591999999999997  1.0000
  H   H9        1.0  0.8753600000000001  0.06527  0.4345  1.0000
  H   H10       1.0  0.37520999999999993  0.9347200000000001  0.5655  1.0000
  H   H11       1.0  0.6899300000000002  0.93504  0.43427  1.0000
  H   H12       1.0  0.05940000000000001  0.06562  0.56526  1.0000
  H   H13       1.0  0.3738000000000001  0.99981  0.99979  1.0000
  H   H14       1.0  0.12366999999999997  0.49968  0.50006  1.0000
  H   H15       1.0  0.37625000000000014  0.5002  0.50021  1.0000
  H   H16       1.0  0.6262500000000001  0.99993  0.00036  1.0000
  C   C1        1.0  0.19128999999999988  0.9717900000000003  0.10533  1.0000
  C   C2        1.0  0.08083999999999997  0.96882  0.10430999999999999  1.0000
  C   C3        1.0  0.20565999999999995  0.9475  0.22024  1.0000
  C   C4        1.0  0.26835000000000003  0.02819  0.89465  1.0000
  C   C5        1.0  0.15387999999999993  0.03125  0.89573  1.0000
  C   C6        1.0  0.3733  0.05244  0.77975  1.0000
  C   C7        1.0  0.9133299999999999  0.60515  0.52787  1.0000
  C   C8        1.0  0.7997600000000006  0.60419  0.53113  1.0000
  C   C9        1.0  0.9042099999999997  0.7197400000000002  0.55145  1.0000
  C   C10       1.0  0.04637000000000006  0.39474  0.47199  1.0000
  C   C11       1.0  0.9350400000000001  0.39586000000000005  0.46877  1.0000
  C   C12       1.0  0.17535000000000003  0.28013  0.44834  1.0000
  C   C13       1.0  0.5587799999999999  0.39483  0.52797  1.0000
  C   C14       1.0  0.6691200000000002  0.39582  0.53114  1.0000
  C   C15       1.0  0.5442700000000003  0.28025000000000005  0.55171  1.0000
  C   C16       1.0  0.4815900000000003  0.60524  0.47208  1.0000
  C   C17       1.0  0.5961599999999999  0.6041500000000001  0.46878  1.0000
  C   C18       1.0  0.37615  0.71985  0.4485799999999999  1.0000
  C   C19       1.0  0.8368400000000005  0.97186  0.8947299999999999  1.0000
  C   C20       1.0  0.95033  0.96882  0.89569  1.0000
  C   C21       1.0  0.8466900000000002  0.94759  0.77986  1.0000
  C   C22       1.0  0.70342  0.02826  0.10541  1.0000
  C   C23       1.0  0.8149000000000001  0.03125  0.10427  1.0000
  C   C24       1.0  0.5742300000000002  0.05254000000000001  0.22035  1.0000
  C   C25       1.0  0.2864699999999999  0.99991  0.99994  1.0000
  C   C26       1.0  0.05958000000000014  0.99993  0.9999699999999999  1.0000
  C   C27       1.0  0.036450000000000024  0.49989000000000006  0.49994  1.0000
  C   C28       1.0  0.8095500000000003  0.50006  0.49990999999999997  1.0000
  C   C29       1.0  0.4635500000000001  0.50008  0.5001  1.0000
  C   C30       1.0  0.6904300000000001  0.50003  0.50005  1.0000
  C   C31       1.0  0.7135100000000001  5e-05  0.00014  1.0000
  C   C32       1.0  0.9404599999999999  7e-05  0.99994  1.0000
  O   O1        1.0  0.14924999999999988  0.8849700000000001  0.30029  1.0000
  O   O2        1.0  0.27234  0.99469  0.22691  1.0000
  O   O3        1.0  0.33425000000000005  0.11525  0.6998  1.0000
  O   O4        1.0  0.4938300000000001  0.00526  0.7729399999999998  1.0000
  O   O5        1.0  0.7853800000000004  0.80024  0.61353  1.0000
  O   O6        1.0  0.018460000000000004  0.72568  0.50435  1.0000
  O   O7        1.0  0.19898000000000002  0.19964  0.38637  1.0000
  O   O8        1.0  0.2484700000000002  0.27419  0.49540999999999996  1.0000
  O   O9        1.0  0.6013000000000002  0.19968  0.6135  1.0000
  O   O10       1.0  0.4768500000000001  0.27442  0.50479  1.0000
  O   O11       1.0  0.4145700000000001  0.8002900000000001  0.38634  1.0000
  O   O12       1.0  0.25595000000000023  0.72589  0.49578  1.0000
  O   O13       1.0  0.9656499999999999  0.8848500000000001  0.69986  1.0000
  O   O14       1.0  0.7328800000000002  0.99472  0.77315  1.0000
  O   O15       1.0  0.5505800000000001  0.11515  0.30035  1.0000
  O   O16       1.0  0.50092  0.00529  0.22711  1.0000
  O   O17       1.0  0.87519  0.00381  0.49661999999999995  1.0000
  O   O18       1.0  0.37531999999999993  0.99639  0.50358  1.0000
  O   O19       1.0  0.62802  0.99607  0.49681999999999993  1.0000
  O   O20       1.0  0.12128999999999998  0.00337  0.50392  1.0000
