data_image0
_chemical_formula_structural       Cu2H16C20N12
_chemical_formula_sum              "Cu2 H16 C20 N12"
_cell_length_a       8.5229
_cell_length_b       13.68589
_cell_length_c       13.68765
_cell_angle_alpha    59.09128999999999
_cell_angle_beta     75.77685
_cell_angle_gamma    75.77498

_space_group_name_H-M_alt    "P 1"
_space_group_IT_number       1

loop_
  _space_group_symop_operation_xyz
  'x, y, z'

loop_
  _atom_site_type_symbol
  _atom_site_label
  _atom_site_symmetry_multiplicity
  _atom_site_fract_x
  _atom_site_fract_y
  _atom_site_fract_z
  _atom_site_occupancy
  Cu  Cu1       1.0  0.5387899999999999  0.9993300000000002  0.98461  1.0000
  Cu  Cu2       1.0  0.9612100000000001  0.01535  0.00067  1.0000
  H   H1        1.0  0.6372899999999999  0.7684900000000001  0.99675  1.0000
  H   H2        1.0  0.70614  0.59631  0.00059  1.0000
  H   H3        1.0  0.86267  0.00324  0.23154  1.0000
  H   H4        1.0  0.79383  0.9994099999999999  0.40372  1.0000
  H   H5        1.0  0.8675000000000002  0.23983  0.007  1.0000
  H   H6        1.0  0.7905900000000001  0.41504999999999986  0.99919  1.0000
  H   H7        1.0  0.63249  0.9930000000000001  0.7601499999999999  1.0000
  H   H8        1.0  0.70941  0.0008000000000000168  0.58492  1.0000
  H   H9        1.0  0.37842  0.21592999999999998  0.02273  1.0000
  H   H10       1.0  0.28633000000000014  0.40230999999999995  0.99969  1.0000
  H   H11       1.0  0.12159999999999996  0.97728  0.78403  1.0000
  H   H12       1.0  0.21368  0.00031000000000000195  0.59765  1.0000
  H   H13       1.0  0.15199  0.7748  0.9761000000000001  1.0000
  H   H14       1.0  0.20236000000000004  0.58444  0.00094  1.0000
  H   H15       1.0  0.3479900000000001  0.02389999999999999  0.22524  1.0000
  H   H16       1.0  0.2976000000000001  0.99906  0.41559  1.0000
  C   C1        1.0  0.5091300000000001  0.78533  0.9916299999999999  1.0000
  C   C2        1.0  0.61414  0.55424  0.99989  1.0000
  C   C3        1.0  0.99082  0.008370000000000002  0.21472  1.0000
  C   C4        1.0  0.88586  0.00011000000000003956  0.4457499999999999  1.0000
  C   C5        1.0  0.75186  0.21798  0.01113  1.0000
  C   C6        1.0  0.66175  0.45089  0.00016  1.0000
  C   C7        1.0  0.74814  0.9888699999999999  0.78197  1.0000
  C   C8        1.0  0.8382400000000001  0.9998299999999999  0.54912  1.0000
  C   C9        1.0  0.37865000000000015  0.44414999999999993  0.00044000000000000007  1.0000
  C   C10       1.0  0.12134000000000013  0.99956  0.55585  1.0000
  C   C11       1.0  0.3312499999999999  0.5487200000000001  0.99947  1.0000
  C   C12       1.0  0.16873  0.0005300000000000141  0.45128  1.0000
  C   C13       1.0  0.44818000000000013  0.60739  0.99812  1.0000
  C   C14       1.0  0.40868000000000004  0.7179299999999998  0.99258  1.0000
  C   C15       1.0  0.05179000000000002  0.0018799999999999945  0.39264  1.0000
  C   C16       1.0  0.09129  0.007429999999999988  0.28211  1.0000
  C   C17       1.0  0.54427  0.39155  0.00175  1.0000
  C   C18       1.0  0.59626  0.28169  0.00751  1.0000
  C   C19       1.0  0.95573  0.99824  0.60843  1.0000
  C   C20       1.0  0.9037500000000002  0.99249  0.7182700000000001  1.0000
  N   N1        1.0  0.4228199999999999  0.88716  0.9791900000000001  1.0000
  N   N2        1.0  0.26258999999999993  0.78897  0.9794200000000001  1.0000
  N   N3        1.0  0.07715000000000002  0.02082  0.11289  1.0000
  N   N4        1.0  0.23738  0.02059  0.21109  1.0000
  N   N5        1.0  0.7473700000000002  0.11588000000000001  0.021550000000000003  1.0000
  N   N6        1.0  0.50127  0.20795  0.01724  1.0000
  N   N7        1.0  0.75266  0.9784600000000001  0.88406  1.0000
  N   N8        1.0  0.99875  0.98276  0.792  1.0000
  N   N9        1.0  0.59328  0.10504  0.026500000000000003  1.0000
  N   N10       1.0  0.9067499999999998  0.97351  0.8949  1.0000
  N   N11       1.0  0.26921000000000006  0.8927399999999999  0.96987  1.0000
  N   N12       1.0  0.23076  0.03013  0.10731999999999998  1.0000
