data_image0
_chemical_formula_structural       Co4Mo2H4C16N16O4
_chemical_formula_sum              "Co4 Mo2 H4 C16 N16 O4"
_cell_length_a       10.28924
_cell_length_b       10.26832
_cell_length_c       10.29462
_cell_angle_alpha    67.37987
_cell_angle_beta     76.63956
_cell_angle_gamma    112.55336

_symmetry_space_group_name_H-M    'P 1'
_symmetry_Int_Tables_number       1

loop_
  _symmetry_equiv_pos_as_xyz
  'x,y,z'

loop_
  _atom_site_type_symbol
  _atom_site_label
  _atom_site_symmetry_multiplicity
  _atom_site_fract_x
  _atom_site_fract_y
  _atom_site_fract_z
  _atom_site_occupancy
  Co  Co1       1.0  0.7798399999999999  0.07139  0.7079  1.0000
  Co  Co2       1.0  0.22061  0.92872  0.29187  1.0000
  Co  Co3       1.0  0.29204  0.5123799999999997  0.77924  1.0000
  Co  Co4       1.0  0.70862  0.48784  0.22019  1.0000
  Mo  Mo1       1.0  0.75199  0.99998  0.24799999999999997  1.0000
  Mo  Mo2       1.0  0.24786000000000005  9.999999999986755e-06  0.7521  1.0000
  H   H1        1.0  0.57644  0.8148399999999998  0.76354  1.0000
  H   H2        1.0  0.42179  0.18512999999999996  0.23815  1.0000
  H   H3        1.0  0.23721999999999993  0.6625199999999999  0.57704  1.0000
  H   H4        1.0  0.7607900000000001  0.33747000000000005  0.42503  1.0000
  C   C1        1.0  0.8069500000000002  0.09456000000000006  0.39279999999999987  1.0000
  C   C2        1.0  0.08283999999999998  0.06418999999999997  0.70544  1.0000
  C   C3        1.0  0.51268  0.90538  0.28781  1.0000
  C   C4        1.0  0.23042  0.936  0.98127  1.0000
  C   C5        1.0  0.6077399999999998  0.79947  0.48667  1.0000
  C   C6        1.0  0.29414  0.21090000000000003  0.77107  1.0000
  C   C7        1.0  0.71373  0.20063999999999999  0.19206  1.0000
  C   C8        1.0  0.018189999999999942  0.7890499999999999  0.91656  1.0000
  C   C9        1.0  0.19406  0.9059999999999999  0.60658  1.0000
  C   C10       1.0  0.9168899999999999  0.93577  0.29523  1.0000
  C   C11       1.0  0.48732999999999993  0.09418000000000001  0.71179  1.0000
  C   C12       1.0  0.7691  0.06398  0.01896  1.0000
  C   C13       1.0  0.39301  0.19993  0.5133  1.0000
  C   C14       1.0  0.70552  0.78883  0.22929  1.0000
  C   C15       1.0  0.28684000000000004  0.80003  0.80664  1.0000
  C   C16       1.0  0.9816  0.21113  0.08361  1.0000
  N   N1        1.0  0.83557  0.13588999999999998  0.47946999999999995  1.0000
  N   N2        1.0  0.98601  0.08928000000000004  0.68275  1.0000
  N   N3        1.0  0.38466  0.86378  0.30051  1.0000
  N   N4        1.0  0.22770000000000007  0.9105700000000001  0.10324999999999997  1.0000
  N   N5        1.0  0.52021  0.6841599999999999  0.61433  1.0000
  N   N6        1.0  0.31806  0.33076000000000005  0.77354  1.0000
  N   N7        1.0  0.7014600000000001  0.31638  0.16398999999999994  1.0000
  N   N8        1.0  0.8959799999999999  0.6697799999999999  0.01234  1.0000
  N   N9        1.0  0.16918000000000005  0.86516  0.51846  1.0000
  N   N10       1.0  0.012010000000000033  0.9099900000000001  0.3218699999999999  1.0000
  N   N11       1.0  0.6162800000000002  0.13500000000000004  0.69585  1.0000
  N   N12       1.0  0.7682500000000001  0.09005000000000014  0.8980799999999998  1.0000
  N   N13       1.0  0.48228999999999994  0.31305  0.38485  1.0000
  N   N14       1.0  0.67793  0.6668  0.23009  1.0000
  N   N15       1.0  0.3021299999999999  0.68646  0.83078  1.0000
  N   N16       1.0  0.10283000000000003  0.33251  0.98936  1.0000
  O   O1        1.0  0.6531500000000001  0.8498000000000002  0.8031899999999997  1.0000
  O   O2        1.0  0.34718  0.15028  0.19633  1.0000
  O   O3        1.0  0.19889000000000004  0.54643  0.6517  1.0000
  O   O4        1.0  0.80159  0.45345  0.34764  1.0000
