data_image0
_chemical_formula_structural       CoH42C42N12
_chemical_formula_sum              "Co1 H42 C42 N12"
_cell_length_a       9.17647
_cell_length_b       9.62798
_cell_length_c       13.07338
_cell_angle_alpha    78.11344
_cell_angle_beta     74.14859
_cell_angle_gamma    82.3183

_space_group_name_H-M_alt    "P 1"
_space_group_IT_number       1

loop_
  _space_group_symop_operation_xyz
  'x, y, z'

loop_
  _atom_site_type_symbol
  _atom_site_label
  _atom_site_symmetry_multiplicity
  _atom_site_fract_x
  _atom_site_fract_y
  _atom_site_fract_z
  _atom_site_occupancy
  Co  Co1       1.0  0.49987  0.99746  0.00221  1.0000
  H   H1        1.0  0.14519  0.91667  0.02076  1.0000
  H   H2        1.0  0.88611  0.014879999999999996  0.16497  1.0000
  H   H3        1.0  0.27360999999999996  0.17925  0.19667  1.0000
  H   H4        1.0  0.8381299999999998  0.17520000000000002  0.29465  1.0000
  H   H5        1.0  0.97853  0.28603  0.2928  1.0000
  H   H6        1.0  0.9667600000000001  0.8854  0.35457  1.0000
  H   H7        1.0  0.002200000000000021  0.26345  0.47133  1.0000
  H   H8        1.0  0.53522  0.05394000000000001  0.24879  1.0000
  H   H9        1.0  0.59983  0.32014  0.26497  1.0000
  H   H10       1.0  0.62131  0.30929999999999996  0.93897  1.0000
  H   H11       1.0  0.61882  0.56107  0.12782  1.0000
  H   H12       1.0  0.62257  0.55708  0.9925400000000001  1.0000
  H   H13       1.0  0.85639  0.48872  0.19217  1.0000
  H   H14       1.0  0.8597  0.52192  0.8586999999999999  1.0000
  H   H15       1.0  0.22154000000000001  0.19275  0.9069500000000001  1.0000
  H   H16       1.0  0.25999999999999995  0.29170999999999997  0.68612  1.0000
  H   H17       1.0  0.68845  0.15778000000000003  0.7516899999999999  1.0000
  H   H18       1.0  0.6898399999999999  0.2542  0.55753  1.0000
  H   H19       1.0  0.5228699999999998  0.35046  0.52607  1.0000
  H   H20       1.0  0.3346700000000001  0.22458  0.47732  1.0000
  H   H21       1.0  0.72579  0.989  0.57343  1.0000
  H   H22       1.0  0.85397  0.08213999999999992  0.98116  1.0000
  H   H23       1.0  0.11260000000000002  0.98691  0.83511  1.0000
  H   H24       1.0  0.7259400000000001  0.81793  0.80631  1.0000
  H   H25       1.0  0.16082000000000002  0.8248100000000002  0.70613  1.0000
  H   H26       1.0  0.019970000000000036  0.7145  0.70797  1.0000
  H   H27       1.0  0.032180000000000014  0.11513999999999998  0.64629  1.0000
  H   H28       1.0  0.9968199999999998  0.7371100000000002  0.52952  1.0000
  H   H29       1.0  0.4649699999999998  0.9460199999999999  0.75456  1.0000
  H   H30       1.0  0.40063  0.6809199999999999  0.7361000000000001  1.0000
  H   H31       1.0  0.3772  0.68752  0.06315  1.0000
  H   H32       1.0  0.38053000000000003  0.43896  0.87155  1.0000
  H   H33       1.0  0.37694000000000005  0.44053  0.00717  1.0000
  H   H34       1.0  0.14303999999999997  0.51062  0.80774  1.0000
  H   H35       1.0  0.13972  0.47711  0.14125  1.0000
  H   H36       1.0  0.77805  0.80558  0.09549999999999999  1.0000
  H   H37       1.0  0.7394  0.70498  0.31614  1.0000
  H   H38       1.0  0.3111  0.84093  0.2508  1.0000
  H   H39       1.0  0.3096999999999999  0.74411  0.44484  1.0000
  H   H40       1.0  0.47659  0.64815  0.47659  1.0000
  H   H41       1.0  0.66542  0.7743499999999999  0.52397  1.0000
  H   H42       1.0  0.27405000000000007  0.009900000000000006  0.42805999999999994  1.0000
  C   C1        1.0  0.13434000000000001  0.9859699999999999  0.07833  1.0000
  C   C2        1.0  0.004839999999999999  0.03352  0.1483  1.0000
  C   C3        1.0  0.20619  0.1219  0.16570000000000001  1.0000
  C   C4        1.0  0.95633  0.17509  0.29869  1.0000
  C   C5        1.0  0.9821499999999999  0.0853  0.40201  1.0000
  C   C6        1.0  0.98168  0.93511  0.41812999999999995  1.0000
  C   C7        1.0  0.99996  0.1481  0.48445  1.0000
  C   C8        1.0  0.56329  0.14554999999999998  0.18564  1.0000
  C   C9        1.0  0.59567  0.27712  0.19575  1.0000
  C   C10       1.0  0.60616  0.27416  0.02489  1.0000
  C   C11       1.0  0.67009  0.50417  0.06039  1.0000
  C   C12       1.0  0.8399499999999999  0.50567  0.028709999999999996  1.0000
  C   C13       1.0  0.91989  0.49299999999999994  0.10819999999999999  1.0000
  C   C14       1.0  0.92151  0.5120700000000001  0.9204099999999998  1.0000
  C   C15       1.0  0.32461999999999996  0.20063999999999999  0.8422900000000001  1.0000
  C   C16       1.0  0.34145  0.25216  0.73355  1.0000
  C   C17       1.0  0.5667999999999999  0.18324  0.7667299999999999  1.0000
  C   C18       1.0  0.56749  0.24966  0.56815  1.0000
  C   C19       1.0  0.53718  0.12390000000000001  0.52768  1.0000
  C   C20       1.0  0.40773  0.12639999999999996  0.48747000000000007  1.0000
  C   C21       1.0  0.6270899999999999  0.99396  0.5414  1.0000
  C   C22       1.0  0.86481  0.013070000000000007  0.92347  1.0000
  C   C23       1.0  0.99414  0.96711  0.85244  1.0000
  C   C24       1.0  0.79324  0.8762  0.83667  1.0000
  C   C25       1.0  0.04252999999999997  0.8253  0.7021699999999998  1.0000
  C   C26       1.0  0.01673999999999997  0.91526  0.59888  1.0000
  C   C27       1.0  0.017270000000000018  0.06544000000000001  0.58274  1.0000
  C   C28       1.0  0.9990500000000001  0.8524600000000002  0.5164  1.0000
  C   C29       1.0  0.43657999999999997  0.8538799999999999  0.81713  1.0000
  C   C30       1.0  0.40434999999999993  0.72284  0.80591  1.0000
  C   C31       1.0  0.3927200000000002  0.72364  0.97729  1.0000
  C   C32       1.0  0.3293600000000001  0.4947099999999999  0.9396199999999999  1.0000
  C   C33       1.0  0.15948  0.49336  0.97123  1.0000
  C   C34       1.0  0.07955000000000004  0.50621  0.89172  1.0000
  C   C35       1.0  0.07791999999999998  0.48704  0.07953  1.0000
  C   C36       1.0  0.67498  0.79742  0.16017  1.0000
  C   C37       1.0  0.65797  0.74517  0.26878  1.0000
  C   C38       1.0  0.43268  0.81516  0.23573000000000002  1.0000
  C   C39       1.0  0.43205999999999994  0.7487000000000001  0.43411  1.0000
  C   C40       1.0  0.46257999999999994  0.8748799999999999  0.47397999999999996  1.0000
  C   C41       1.0  0.5921899999999999  0.8724600000000001  0.514  1.0000
  C   C42       1.0  0.37277  0.004869999999999994  0.46011  1.0000
  N   N1        1.0  0.26035  0.041600000000000005  0.08929  1.0000
  N   N2        1.0  0.05155000000000001  0.12058999999999999  0.20316  1.0000
  N   N3        1.0  0.56834  0.14495  0.07845  1.0000
  N   N4        1.0  0.62184  0.35858  0.09304  1.0000
  N   N5        1.0  0.46592  0.15737999999999996  0.8628199999999999  1.0000
  N   N6        1.0  0.49638000000000004  0.242  0.6858  1.0000
  N   N7        1.0  0.7391299999999996  0.95583  0.91352  1.0000
  N   N8        1.0  0.94757  0.8795  0.79792  1.0000
  N   N9        1.0  0.4309400000000001  0.85312  0.9246299999999998  1.0000
  N   N10       1.0  0.37760999999999995  0.64029  0.90823  1.0000
  N   N11       1.0  0.5337  0.84146  0.13966  1.0000
  N   N12       1.0  0.50307  0.7556  0.31656  1.0000
