data_image0
_chemical_formula_structural       Cu4H28C40I4N8
_chemical_formula_sum              "Cu4 H28 C40 I4 N8"
_cell_length_a       10.00748
_cell_length_b       10.00846
_cell_length_c       16.429639999999996
_cell_angle_alpha    95.85324
_cell_angle_beta     95.76607
_cell_angle_gamma    89.47697

_space_group_name_H-M_alt    "P 1"
_space_group_IT_number       1

loop_
  _space_group_symop_operation_xyz
  'x, y, z'

loop_
  _atom_site_type_symbol
  _atom_site_label
  _atom_site_symmetry_multiplicity
  _atom_site_fract_x
  _atom_site_fract_y
  _atom_site_fract_z
  _atom_site_occupancy
  Cu  Cu1       1.0  0.59057  0.91476  0.52046  1.0000
  Cu  Cu2       1.0  0.08532  0.40928  0.97974  1.0000
  Cu  Cu3       1.0  0.40943  0.08524  0.47953  1.0000
  Cu  Cu4       1.0  0.91468  0.59072  0.020259999999999993  1.0000
  H   H1        1.0  0.5782700000000003  0.77935  0.66795  1.0000
  H   H2        1.0  0.86029  0.9744799999999999  0.85855  1.0000
  H   H3        1.0  0.79494  0.10165999999999999  0.61372  1.0000
  H   H4        1.0  0.88373  0.76256  0.8889  1.0000
  H   H5        1.0  0.4691600000000001  0.74119  0.78389  1.0000
  H   H6        1.0  0.4325800000000001  0.57138  0.8811999999999998  1.0000
  H   H7        1.0  0.62722  0.50466  0.9776399999999997  1.0000
  H   H8        1.0  0.22059  0.42165  0.8321699999999997  1.0000
  H   H9        1.0  0.02538000000000002  0.13986  0.64138  1.0000
  H   H10       1.0  0.8983800000000001  0.20489  0.88645  1.0000
  H   H11       1.0  0.23747  0.11642000000000001  0.61088  1.0000
  H   H12       1.0  0.25863  0.53103  0.71623  1.0000
  H   H13       1.0  0.42857  0.56761  0.61889  1.0000
  H   H14       1.0  0.49549  0.37289  0.52229  1.0000
  H   H15       1.0  0.42173  0.22065  0.33205  1.0000
  H   H16       1.0  0.13971  0.025519999999999998  0.14145  1.0000
  H   H17       1.0  0.20506  0.8983399999999999  0.38628  1.0000
  H   H18       1.0  0.11627000000000001  0.23743999999999998  0.1111  1.0000
  H   H19       1.0  0.53084  0.25881  0.21611  1.0000
  H   H20       1.0  0.56742  0.42861999999999995  0.11879999999999998  1.0000
  H   H21       1.0  0.37278000000000006  0.49534  0.02236  1.0000
  H   H22       1.0  0.77941  0.57835  0.16783  1.0000
  H   H23       1.0  0.9746200000000002  0.86014  0.35862  1.0000
  H   H24       1.0  0.10162000000000002  0.79511  0.11354  1.0000
  H   H25       1.0  0.7625300000000003  0.8835800000000001  0.38911  1.0000
  H   H26       1.0  0.74137  0.46897000000000005  0.2837699999999999  1.0000
  H   H27       1.0  0.5714300000000002  0.43239  0.38111  1.0000
  H   H28       1.0  0.50451  0.62711  0.47771  1.0000
  C   C1        1.0  0.65333  0.8556  0.69085  1.0000
  C   C2        1.0  0.7136900000000002  0.8644799999999999  0.77191  1.0000
  C   C3        1.0  0.8110800000000002  0.9644200000000002  0.79599  1.0000
  C   C4        1.0  0.84513  0.05047999999999997  0.7390899999999998  1.0000
  C   C5        1.0  0.7771499999999999  0.03476999999999999  0.6598999999999998  1.0000
  C   C6        1.0  0.78098  0.72572  0.8859  1.0000
  C   C7        1.0  0.6802599999999999  0.76696  0.8283799999999998  1.0000
  C   C8        1.0  0.5517300000000002  0.7104  0.8263099999999998  1.0000
  C   C9        1.0  0.53126  0.61563  0.8804  1.0000
  C   C10       1.0  0.63755  0.5800799999999999  0.93532  1.0000
  C   C11       1.0  0.14435000000000003  0.34661  0.80924  1.0000
  C   C12       1.0  0.13541  0.28639  0.7281  1.0000
  C   C13       1.0  0.03547000000000002  0.189  0.704  1.0000
  C   C14       1.0  0.94947  0.15485  0.76095  1.0000
  C   C15       1.0  0.96523  0.22272  0.84022  1.0000
  C   C16       1.0  0.27426000000000006  0.21919  0.61396  1.0000
  C   C17       1.0  0.23293  0.3199  0.67158  1.0000
  C   C18       1.0  0.28946  0.44845000000000007  0.67373  1.0000
  C   C19       1.0  0.38432  0.46890999999999994  0.6196199999999997  1.0000
  C   C20       1.0  0.41998000000000013  0.3626  0.56461  1.0000
  C   C21       1.0  0.34667  0.1444  0.30915  1.0000
  C   C22       1.0  0.28631  0.13552  0.22809  1.0000
  C   C23       1.0  0.18892000000000003  0.03558  0.20401  1.0000
  C   C24       1.0  0.15488  0.94952  0.2609  1.0000
  C   C25       1.0  0.22285  0.96523  0.3401  1.0000
  C   C26       1.0  0.21902000000000002  0.27428  0.1141  1.0000
  C   C27       1.0  0.31974  0.23303999999999997  0.17162  1.0000
  C   C28       1.0  0.4482700000000001  0.2896  0.17369  1.0000
  C   C29       1.0  0.46874  0.38437  0.1196  1.0000
  C   C30       1.0  0.36245000000000005  0.41991999999999996  0.06467  1.0000
  C   C31       1.0  0.85565  0.65339  0.19076  1.0000
  C   C32       1.0  0.8646  0.71361  0.2719  1.0000
  C   C33       1.0  0.9645300000000001  0.811  0.296  1.0000
  C   C34       1.0  0.05053  0.84515  0.23904999999999996  1.0000
  C   C35       1.0  0.034770000000000016  0.77728  0.15978  1.0000
  C   C36       1.0  0.72574  0.78081  0.38604  1.0000
  C   C37       1.0  0.76707  0.6801  0.32841  1.0000
  C   C38       1.0  0.71054  0.55155  0.32627  1.0000
  C   C39       1.0  0.6156800000000001  0.53109  0.38038  1.0000
  C   C40       1.0  0.58003  0.6374  0.43539  1.0000
  I   I1        1.0  0.6661500000000001  0.1389  0.45142  1.0000
  I   I2        1.0  0.8608700000000002  0.33415  0.0487  1.0000
  I   I3        1.0  0.3338500000000001  0.8611000000000001  0.54857  1.0000
  I   I4        1.0  0.13912999999999998  0.6658499999999999  0.9512999999999998  1.0000
  N   N1        1.0  0.6833500000000001  0.9392099999999999  0.63583  1.0000
  N   N2        1.0  0.7613000000000001  0.6351299999999999  0.9388399999999998  1.0000
  N   N3        1.0  0.06080999999999998  0.31649  0.86431  1.0000
  N   N4        1.0  0.36494  0.23885  0.56101  1.0000
  N   N5        1.0  0.31665000000000004  0.06079  0.36417  1.0000
  N   N6        1.0  0.23870000000000005  0.36487  0.06116  1.0000
  N   N7        1.0  0.9391900000000001  0.68351  0.13568999999999995  1.0000
  N   N8        1.0  0.63506  0.76115  0.43899  1.0000
