data_image0
_chemical_formula_structural       Zn6H12C36O24
_chemical_formula_sum              "Zn6 H12 C36 O24"
_cell_length_a       10.03201
_cell_length_b       10.3468
_cell_length_c       16.22055
_cell_angle_alpha    89.97206999999999
_cell_angle_beta     98.47098
_cell_angle_gamma    90.00992999999998

_space_group_name_H-M_alt    "P 1"
_space_group_IT_number       1

loop_
  _space_group_symop_operation_xyz
  'x, y, z'

loop_
  _atom_site_type_symbol
  _atom_site_label
  _atom_site_symmetry_multiplicity
  _atom_site_fract_x
  _atom_site_fract_y
  _atom_site_fract_z
  _atom_site_occupancy
  Zn  Zn1       1.0  0.24315  0.7868599999999999  0.10634  1.0000
  Zn  Zn2       1.0  0.7569700000000001  0.28375  0.39375  1.0000
  Zn  Zn3       1.0  0.75692  0.21637999999999996  0.8937300000000002  1.0000
  Zn  Zn4       1.0  0.24311  0.71383  0.60635  1.0000
  Zn  Zn5       1.0  0.9973299999999999  0.00213  0.00147  1.0000
  Zn  Zn6       1.0  0.99741  0.49799  0.50153  1.0000
  H   H1        1.0  0.6711899999999998  0.7722099999999998  0.05759  1.0000
  H   H2        1.0  0.99547  0.63486  0.24053  1.0000
  H   H3        1.0  0.58352  0.58409  0.2808  1.0000
  H   H4        1.0  0.33000000000000007  0.27162  0.4436000000000001  1.0000
  H   H5        1.0  0.004740000000000005  0.13489  0.26125  1.0000
  H   H6        1.0  0.41613  0.08441  0.2199  1.0000
  H   H7        1.0  0.33002000000000004  0.22854  0.94365  1.0000
  H   H8        1.0  0.004700000000000013  0.36497  0.7612  1.0000
  H   H9        1.0  0.41615  0.41562  0.7198  1.0000
  H   H10       1.0  0.67146  0.72779  0.55795  1.0000
  H   H11       1.0  0.9953099999999999  0.86591  0.74087  1.0000
  H   H12       1.0  0.58319  0.9161499999999999  0.78082  1.0000
  C   C1        1.0  0.46635  0.7065099999999999  0.14195  1.0000
  C   C2        1.0  0.9461999999999999  0.7591  0.09323000000000002  1.0000
  C   C3        1.0  0.84398  0.54066  0.3509  1.0000
  C   C4        1.0  0.6122  0.6785099999999998  0.16587  1.0000
  C   C5        1.0  0.70578  0.72275  0.11602  1.0000
  C   C6        1.0  0.84418  0.706  0.14266  1.0000
  C   C7        1.0  0.88826  0.64574  0.21908  1.0000
  C   C8        1.0  0.79483  0.60085  0.26867  1.0000
  C   C9        1.0  0.6565499999999999  0.61672  0.24194  1.0000
  C   C10       1.0  0.53355  0.20618  0.35858  1.0000
  C   C11       1.0  0.054139999999999994  0.25914  0.4078  1.0000
  C   C12       1.0  0.15374  0.04151  0.1507  1.0000
  C   C13       1.0  0.38786999999999994  0.17818  0.335  1.0000
  C   C14       1.0  0.29484  0.22254  0.38517  1.0000
  C   C15       1.0  0.15641  0.20607  0.35874  1.0000
  C   C16       1.0  0.11197999999999998  0.14566999999999997  0.28256  1.0000
  C   C17       1.0  0.20488  0.10071999999999999  0.23273  1.0000
  C   C18       1.0  0.3432399999999999  0.11649  0.25901  1.0000
  C   C19       1.0  0.53362  0.29415  0.85861  1.0000
  C   C20       1.0  0.05418999999999997  0.24082999999999996  0.9078  1.0000
  C   C21       1.0  0.1535  0.45861  0.65065  1.0000
  C   C22       1.0  0.38793000000000005  0.32215999999999995  0.8350200000000002  1.0000
  C   C23       1.0  0.29488999999999993  0.27759  0.88518  1.0000
  C   C24       1.0  0.15642999999999996  0.29384  0.85869  1.0000
  C   C25       1.0  0.11197  0.35423  0.78249  1.0000
  C   C26       1.0  0.20483  0.3993399999999999  0.73266  1.0000
  C   C27       1.0  0.34322  0.38365  0.75894  1.0000
  C   C28       1.0  0.46638  0.79368  0.64199  1.0000
  C   C29       1.0  0.9461599999999999  0.74091  0.59356  1.0000
  C   C30       1.0  0.84404  0.95955  0.85096  1.0000
  C   C31       1.0  0.61217  0.8217699999999999  0.66598  1.0000
  C   C32       1.0  0.70588  0.77743  0.61628  1.0000
  C   C33       1.0  0.84424  0.7942  0.64297  1.0000
  C   C34       1.0  0.88816  0.85475  0.71928  1.0000
  C   C35       1.0  0.7946299999999998  0.8995  0.7688  1.0000
  C   C36       1.0  0.65636  0.8836299999999999  0.74202  1.0000
  O   O1        1.0  0.38724  0.70232  0.19697  1.0000
  O   O2        1.0  0.42011  0.74113  0.0666  1.0000
  O   O3        1.0  0.90737  0.83674  0.03408  1.0000
  O   O4        1.0  0.06797  0.72028  0.11625  1.0000
  O   O5        1.0  0.96638  0.55876  0.38265  1.0000
  O   O6        1.0  0.76072  0.47462  0.38773000000000013  1.0000
  O   O7        1.0  0.61241  0.20217  0.30336  1.0000
  O   O8        1.0  0.5800499999999998  0.24039999999999997  0.43387  1.0000
  O   O9        1.0  0.09242999999999998  0.33705  0.46676  1.0000
  O   O10       1.0  0.93262  0.21990999999999997  0.38429  1.0000
  O   O11       1.0  0.03045000000000001  0.05933  0.12081000000000003  1.0000
  O   O12       1.0  0.23523999999999998  0.9769499999999999  0.11189  1.0000
  O   O13       1.0  0.61261  0.29809  0.80344  1.0000
  O   O14       1.0  0.57994  0.25961  0.93388  1.0000
  O   O15       1.0  0.09252000000000003  0.16302  0.96685  1.0000
  O   O16       1.0  0.93266  0.28003  0.8842900000000002  1.0000
  O   O17       1.0  0.030210000000000015  0.44052  0.6208  1.0000
  O   O18       1.0  0.23465  0.52362  0.61177  1.0000
  O   O19       1.0  0.38721  0.79786  0.6969700000000002  1.0000
  O   O20       1.0  0.42019  0.75906  0.56664  1.0000
  O   O21       1.0  0.9073299999999999  0.66319  0.53452  1.0000
  O   O22       1.0  0.06792  0.7798399999999999  0.61642  1.0000
  O   O23       1.0  0.9665299999999998  0.94151  0.88254  1.0000
  O   O24       1.0  0.76084  0.02546  0.88786  1.0000
