data_image0
_chemical_formula_structural       Cu2H32C56N8
_chemical_formula_sum              "Cu2 H32 C56 N8"
_cell_length_a       10.48897
_cell_length_b       10.47391
_cell_length_c       14.17631
_cell_angle_alpha    111.87032000000002
_cell_angle_beta     111.87076
_cell_angle_gamma    89.92265

_symmetry_space_group_name_H-M    'P 1'
_symmetry_Int_Tables_number       1

loop_
  _symmetry_equiv_pos_as_xyz
  'x,y,z'

loop_
  _atom_site_type_symbol
  _atom_site_label
  _atom_site_symmetry_multiplicity
  _atom_site_fract_x
  _atom_site_fract_y
  _atom_site_fract_z
  _atom_site_occupancy
  Cu  Cu1       1.0  0.87553  0.62491  0.75031  1.0000
  Cu  Cu2       1.0  0.12446  0.3750999999999999  0.24969  1.0000
  H   H1        1.0  0.29535  0.14529999999999998  0.22144  1.0000
  H   H2        1.0  0.42176  0.006199999999999986  0.32562  1.0000
  H   H3        1.0  0.40739  0.04524  0.50852  1.0000
  H   H4        1.0  0.263  0.21921  0.57465  1.0000
  H   H5        1.0  0.92711  0.57829  0.22174000000000002  1.0000
  H   H6        1.0  0.90526  0.82173  0.32711  1.0000
  H   H7        1.0  0.10253  0.96486  0.51121  1.0000
  H   H8        1.0  0.31284  0.85637  0.57732  1.0000
  H   H9        1.0  0.07856999999999993  0.79599  0.72376  1.0000
  H   H10       1.0  0.32209  0.92164  0.82907  1.0000
  H   H11       1.0  0.46531000000000006  0.90689  0.01214  1.0000
  H   H12       1.0  0.35628  0.7619899999999997  0.07714  1.0000
  H   H13       1.0  0.64538  0.42658  0.72006  1.0000
  H   H14       1.0  0.50617  0.40279999999999994  0.82344  1.0000
  H   H15       1.0  0.54559  0.59944  0.00754  1.0000
  H   H16       1.0  0.71987  0.8105699999999998  0.07565  1.0000
  H   H17       1.0  0.70464  0.8546999999999999  0.77857  1.0000
  H   H18       1.0  0.57823  0.9937999999999999  0.67438  1.0000
  H   H19       1.0  0.5926  0.9547699999999999  0.49148  1.0000
  H   H20       1.0  0.7369900000000001  0.7808  0.42535  1.0000
  H   H21       1.0  0.07288000000000001  0.42171999999999993  0.77826  1.0000
  H   H22       1.0  0.09473  0.17827999999999994  0.67289  1.0000
  H   H23       1.0  0.89747  0.03514000000000001  0.48879000000000006  1.0000
  H   H24       1.0  0.6871499999999999  0.14364  0.42268  1.0000
  H   H25       1.0  0.9214299999999999  0.20400999999999997  0.27624  1.0000
  H   H26       1.0  0.6779  0.07837  0.17094  1.0000
  H   H27       1.0  0.53469  0.09311000000000004  0.98786  1.0000
  H   H28       1.0  0.64371  0.23801000000000005  0.92286  1.0000
  H   H29       1.0  0.35462  0.57342  0.27995  1.0000
  H   H30       1.0  0.4938200000000001  0.5972  0.17656000000000002  1.0000
  H   H31       1.0  0.4544  0.40055999999999997  0.99246  1.0000
  H   H32       1.0  0.28012  0.18944000000000003  0.92435  1.0000
  C   C1        1.0  0.29118  0.15908  0.30014  1.0000
  C   C2        1.0  0.36231  0.08199999999999999  0.35904  1.0000
  C   C3        1.0  0.3536500000000001  0.10350000000000004  0.46012000000000003  1.0000
  C   C4        1.0  0.27382  0.19948  0.49727  1.0000
  C   C5        1.0  0.20239999999999997  0.27299  0.43265  1.0000
  C   C6        1.0  0.11874  0.36911  0.46534  1.0000
  C   C7        1.0  0.04113999999999999  0.45338999999999996  0.48846  1.0000
  C   C8        1.0  0.009829999999999992  0.6429  0.30105  1.0000
  C   C9        1.0  0.9979499999999998  0.77903  0.36050000000000004  1.0000
  C   C10       1.0  0.10777000000000007  0.8582099999999999  0.46229000000000003  1.0000
  C   C11       1.0  0.22451  0.79905  0.49941  1.0000
  C   C12       1.0  0.23082  0.66072  0.43413  1.0000
  C   C13       1.0  0.34692  0.5969  0.46654  1.0000
  C   C14       1.0  0.44742  0.53534  0.48888  1.0000
  C   C15       1.0  0.14306  0.79148  0.80252  1.0000
  C   C16       1.0  0.27931000000000006  0.86214  0.8620400000000001  1.0000
  C   C17       1.0  0.35858000000000007  0.8531999999999998  0.96323  1.0000
  C   C18       1.0  0.29921  0.77329  0.99974  1.0000
  C   C19       1.0  0.16081  0.70247  0.93442  1.0000
  C   C20       1.0  0.09701  0.6189299999999999  0.96655  1.0000
  C   C21       1.0  0.03539000000000001  0.54117  0.9889  1.0000
  C   C22       1.0  0.65916  0.50887  0.79929  1.0000
  C   C23       1.0  0.58204  0.4959599999999999  0.8576999999999999  1.0000
  C   C24       1.0  0.60388  0.6053500000000002  0.9594700000000002  1.0000
  C   C25       1.0  0.7000100000000001  0.72273  0.99765  1.0000
  C   C26       1.0  0.7734299999999998  0.73027  0.93336  1.0000
  C   C27       1.0  0.8694800000000001  0.8468799999999999  0.96632  1.0000
  C   C28       1.0  0.9535199999999999  0.9473  0.98865  1.0000
  C   C29       1.0  0.70881  0.8409199999999999  0.69986  1.0000
  C   C30       1.0  0.63769  0.91801  0.64096  1.0000
  C   C31       1.0  0.64634  0.8964999999999997  0.53988  1.0000
  C   C32       1.0  0.72617  0.80052  0.50273  1.0000
  C   C33       1.0  0.7976  0.7270099999999999  0.56735  1.0000
  C   C34       1.0  0.88126  0.63089  0.53466  1.0000
  C   C35       1.0  0.95885  0.54662  0.51155  1.0000
  C   C36       1.0  0.99016  0.35711  0.69896  1.0000
  C   C37       1.0  0.002040000000000019  0.22097000000000006  0.6395  1.0000
  C   C38       1.0  0.89222  0.1418  0.53772  1.0000
  C   C39       1.0  0.7754799999999998  0.20095  0.5006  1.0000
  C   C40       1.0  0.76917  0.3392899999999999  0.56587  1.0000
  C   C41       1.0  0.65308  0.40309999999999996  0.53346  1.0000
  C   C42       1.0  0.55258  0.46465999999999996  0.51112  1.0000
  C   C43       1.0  0.85694  0.20853  0.19748  1.0000
  C   C44       1.0  0.72068  0.13787  0.13796  1.0000
  C   C45       1.0  0.64142  0.14679999999999999  0.03677  1.0000
  C   C46       1.0  0.70078  0.22670999999999994  0.00027  1.0000
  C   C47       1.0  0.83919  0.29754  0.06558  1.0000
  C   C48       1.0  0.90298  0.38108  0.03345  1.0000
  C   C49       1.0  0.96461  0.45883  0.0111  1.0000
  C   C50       1.0  0.34083  0.49112999999999996  0.20071  1.0000
  C   C51       1.0  0.41796000000000005  0.50405  0.1423  1.0000
  C   C52       1.0  0.39612  0.3946499999999999  0.04053  1.0000
  C   C53       1.0  0.29998  0.27727  0.00235  1.0000
  C   C54       1.0  0.22656000000000004  0.26973  0.06665  1.0000
  C   C55       1.0  0.13051  0.15312  0.03368  1.0000
  C   C56       1.0  0.04647  0.05270999999999999  0.01135  1.0000
  N   N1        1.0  0.21290999999999996  0.25303  0.33405  1.0000
  N   N2        1.0  0.12152  0.58227  0.33492  1.0000
  N   N3        1.0  0.08227999999999992  0.7132799999999999  0.8357599999999998  1.0000
  N   N4        1.0  0.7533400000000001  0.62128  0.8342300000000001  1.0000
  N   N5        1.0  0.78708  0.74698  0.66595  1.0000
  N   N6        1.0  0.8784799999999999  0.41774  0.66508  1.0000
  N   N7        1.0  0.91771  0.28672  0.16424  1.0000
  N   N8        1.0  0.24666  0.37872999999999996  0.16577  1.0000
