data_image0
_chemical_formula_structural       Eu2H28C40N10O14
_chemical_formula_sum              "Eu2 H28 C40 N10 O14"
_cell_length_a       9.96216
_cell_length_b       11.983689999999998
_cell_length_c       11.99083
_cell_angle_alpha    64.18936
_cell_angle_beta     72.01615
_cell_angle_gamma    72.02517999999999

_space_group_name_H-M_alt    "P 1"
_space_group_IT_number       1

loop_
  _space_group_symop_operation_xyz
  'x, y, z'

loop_
  _atom_site_type_symbol
  _atom_site_label
  _atom_site_symmetry_multiplicity
  _atom_site_fract_x
  _atom_site_fract_y
  _atom_site_fract_z
  _atom_site_occupancy
  Eu  Eu1       1.0  0.25008  0.06391000000000002  0.93603  1.0000
  Eu  Eu2       1.0  0.74996  0.9360799999999999  0.06396  1.0000
  H   H1        1.0  0.39685  0.87261  0.28320000000000006  1.0000
  H   H2        1.0  0.3215700000000001  0.9217500000000001  0.66123  1.0000
  H   H3        1.0  0.19576  0.78857  0.43313  1.0000
  H   H4        1.0  0.9462300000000002  0.8104699999999998  0.5568600000000001  1.0000
  H   H5        1.0  0.8864999999999998  0.87698  0.74109  1.0000
  H   H6        1.0  0.56753  0.80101  0.5975900000000001  1.0000
  H   H7        1.0  0.7802600000000001  0.7910999999999999  0.3886  1.0000
  H   H8        1.0  0.10301000000000005  0.71704  0.12721  1.0000
  H   H9        1.0  0.17846000000000004  0.33878  0.07826  1.0000
  H   H10       1.0  0.30405  0.56694  0.21157  1.0000
  H   H11       1.0  0.55377  0.44318  0.18956  1.0000
  H   H12       1.0  0.61349  0.25892  0.12303000000000003  1.0000
  H   H13       1.0  0.9324900000000002  0.40226  0.19904  1.0000
  H   H14       1.0  0.7197100000000001  0.6113299999999999  0.20891000000000007  1.0000
  H   H15       1.0  0.60312  0.12735  0.71683  1.0000
  H   H16       1.0  0.6784299999999999  0.07825999999999998  0.33877  1.0000
  H   H17       1.0  0.8042  0.21145999999999995  0.56687  1.0000
  H   H18       1.0  0.05377000000000001  0.18954  0.44314  1.0000
  H   H19       1.0  0.11350000000000002  0.12303  0.25892  1.0000
  H   H20       1.0  0.43247  0.19899999999999998  0.4024  1.0000
  H   H21       1.0  0.21972999999999998  0.20890000000000003  0.61139  1.0000
  H   H22       1.0  0.89696  0.2829999999999999  0.87273  1.0000
  H   H23       1.0  0.8215399999999999  0.66123  0.92174  1.0000
  H   H24       1.0  0.69592  0.43307  0.7884500000000001  1.0000
  H   H25       1.0  0.4462400000000001  0.55683  0.81045  1.0000
  H   H26       1.0  0.38650999999999996  0.7410999999999999  0.8769700000000001  1.0000
  H   H27       1.0  0.06751000000000001  0.59774  0.8009700000000001  1.0000
  H   H28       1.0  0.2802800000000001  0.38866999999999996  0.79109  1.0000
  C   C1        1.0  0.06752000000000005  0.9383699999999999  0.8241000000000002  1.0000
  C   C2        1.0  0.10193999999999989  0.9006100000000001  0.71266  1.0000
  C   C3        1.0  0.24159999999999995  0.89383  0.6394  1.0000
  C   C4        1.0  0.27749000000000007  0.8530399999999999  0.53814  1.0000
  C   C5        1.0  0.16900999999999997  0.82309  0.50927  1.0000
  C   C6        1.0  0.028809999999999964  0.83312  0.58082  1.0000
  C   C7        1.0  0.9947800000000002  0.8703499999999997  0.68326  1.0000
  C   C8        1.0  0.4257399999999999  0.8404500000000003  0.46736  1.0000
  C   C9        1.0  0.5556600000000002  0.8156599999999999  0.50517  1.0000
  C   C10       1.0  0.6643800000000001  0.8088699999999999  0.40031  1.0000
  C   C11       1.0  0.43246  0.17584  0.06167  1.0000
  C   C12       1.0  0.39807  0.28735  0.09939  1.0000
  C   C13       1.0  0.25842  0.36063  0.10617000000000003  1.0000
  C   C14       1.0  0.22248999999999997  0.46193  0.14699  1.0000
  C   C15       1.0  0.3309500000000001  0.49082  0.17695  1.0000
  C   C16       1.0  0.47116  0.41923999999999995  0.1669  1.0000
  C   C17       1.0  0.5052000000000001  0.31676999999999994  0.12966000000000003  1.0000
  C   C18       1.0  0.07420999999999998  0.53267  0.15956000000000004  1.0000
  C   C19       1.0  0.9443299999999998  0.49474  0.18438000000000002  1.0000
  C   C20       1.0  0.83558  0.59963  0.19114000000000006  1.0000
  C   C21       1.0  0.9324799999999999  0.06164000000000001  0.17591  1.0000
  C   C22       1.0  0.89806  0.09939999999999997  0.28734000000000004  1.0000
  C   C23       1.0  0.7584  0.10617999999999998  0.3606  1.0000
  C   C24       1.0  0.7225  0.14697  0.46187  1.0000
  C   C25       1.0  0.83099  0.17692  0.49074  1.0000
  C   C26       1.0  0.97118  0.16689  0.41918000000000005  1.0000
  C   C27       1.0  0.005210000000000002  0.12965999999999997  0.31675000000000003  1.0000
  C   C28       1.0  0.57425  0.15954999999999994  0.5326400000000001  1.0000
  C   C29       1.0  0.44434  0.18434999999999999  0.49482  1.0000
  C   C30       1.0  0.33560999999999996  0.19113  0.59967  1.0000
  C   C31       1.0  0.56755  0.8241700000000001  0.93833  1.0000
  C   C32       1.0  0.6019300000000001  0.71266  0.90061  1.0000
  C   C33       1.0  0.7415799999999999  0.6393799999999998  0.8938300000000002  1.0000
  C   C34       1.0  0.77751  0.5380899999999998  0.8530100000000002  1.0000
  C   C35       1.0  0.66904  0.5092  0.8230500000000001  1.0000
  C   C36       1.0  0.52884  0.5807700000000001  0.8331  1.0000
  C   C37       1.0  0.49478999999999984  0.68325  0.8703400000000001  1.0000
  C   C38       1.0  0.9257800000000003  0.46733999999999987  0.84043  1.0000
  C   C39       1.0  0.055670000000000025  0.5052599999999998  0.8156300000000001  1.0000
  C   C40       1.0  0.16440999999999995  0.40036999999999995  0.8088600000000002  1.0000
  N   N1        1.0  0.6079299999999999  0.83094  0.30174000000000006  1.0000
  N   N2        1.0  0.46362  0.8482499999999998  0.34504000000000007  1.0000
  N   N3        1.0  0.892  0.69831  0.16902  1.0000
  N   N4        1.0  0.03628000000000007  0.6550599999999999  0.1517  1.0000
  N   N5        1.0  0.3920499999999999  0.16906000000000002  0.69825  1.0000
  N   N6        1.0  0.53636  0.15175000000000002  0.65496  1.0000
  N   N7        1.0  0.1079900000000001  0.30168999999999996  0.83097  1.0000
  N   N8        1.0  0.9637000000000001  0.34496  0.84828  1.0000
  N   N9        1.0  0.24855  0.8211399999999999  0.17926000000000003  1.0000
  N   N10       1.0  0.7509700000000001  0.17892  0.82078  1.0000
  O   O1        1.0  0.14531  0.006879999999999951  0.8209800000000003  1.0000
  O   O2        1.0  0.9652000000000002  0.89836  0.9138600000000001  1.0000
  O   O3        1.0  0.29631  0.9145299999999998  0.16732000000000002  1.0000
  O   O4        1.0  0.35473000000000005  0.17900999999999986  0.9931300000000002  1.0000
  O   O5        1.0  0.53464  0.08596999999999999  0.10178000000000001  1.0000
  O   O6        1.0  0.20352  0.83287  0.08455  1.0000
  O   O7        1.0  0.85469  0.99315  0.17901000000000003  1.0000
  O   O8        1.0  0.03484  0.10161  0.08615000000000003  1.0000
  O   O9        1.0  0.70355  0.08535999999999992  0.8326900000000003  1.0000
  O   O10       1.0  0.6452600000000001  0.82099  0.00688  1.0000
  O   O11       1.0  0.4653899999999999  0.9140599999999998  0.8981800000000001  1.0000
  O   O12       1.0  0.7963100000000001  0.16715999999999995  0.9153300000000002  1.0000
  O   O13       1.0  0.24606000000000006  0.72396  0.27765  1.0000
  O   O14       1.0  0.7530000000000002  0.27626999999999985  0.7225100000000001  1.0000
