data_image0
_chemical_formula_structural       La2H6C18N6O12
_chemical_formula_sum              "La2 H6 C18 N6 O12"
_cell_length_a       6.44629
_cell_length_b       6.46177
_cell_length_c       15.62825
_cell_angle_alpha    68.12896
_cell_angle_beta     73.31801
_cell_angle_gamma    71.50779

_symmetry_space_group_name_H-M    'P 1'
_symmetry_Int_Tables_number       1

loop_
  _symmetry_equiv_pos_as_xyz
  'x,y,z'

loop_
  _atom_site_type_symbol
  _atom_site_label
  _atom_site_symmetry_multiplicity
  _atom_site_fract_x
  _atom_site_fract_y
  _atom_site_fract_z
  _atom_site_occupancy
  La  La1       1.0  0.4435500000000001  0.8966999999999998  0.26237  1.0000
  La  La2       1.0  0.5563100000000001  0.10192000000000001  0.7377499999999999  1.0000
  H   H1        1.0  0.16038  0.89976  0.50719  1.0000
  H   H2        1.0  0.7535200000000001  0.19730000000000006  0.97612  1.0000
  H   H3        1.0  0.7845300000000004  0.97104  0.9341399999999997  1.0000
  H   H4        1.0  0.8394900000000001  0.09936000000000002  0.49273999999999996  1.0000
  H   H5        1.0  0.2465800000000001  0.8014999999999998  0.024359999999999993  1.0000
  H   H6        1.0  0.21484  0.02865  0.06542  1.0000
  C   C1        1.0  0.8657300000000001  0.9205499999999998  0.3513899999999999  1.0000
  C   C2        1.0  0.67467  0.9600000000000001  0.43123  1.0000
  C   C3        1.0  0.3128600000000001  0.94385  0.50401  1.0000
  C   C4        1.0  0.7318  0.7010299999999998  0.11866999999999997  1.0000
  C   C5        1.0  0.76019  0.63151  0.03342  1.0000
  C   C6        1.0  0.75569  0.3727  0.96683  1.0000
  C   C7        1.0  0.69761  0.5149600000000001  0.7963199999999998  1.0000
  C   C8        1.0  0.7421700000000001  0.5440900000000001  0.8805299999999999  1.0000
  C   C9        1.0  0.7696000000000002  0.7992000000000001  0.9449299999999998  1.0000
  C   C10       1.0  0.13404000000000002  0.07913999999999999  0.64838  1.0000
  C   C11       1.0  0.32518000000000014  0.039370000000000176  0.5686199999999998  1.0000
  C   C12       1.0  0.6870000000000002  0.05534999999999989  0.4959  1.0000
  C   C13       1.0  0.26847000000000015  0.2983700000000001  0.8811899999999998  1.0000
  C   C14       1.0  0.23967999999999995  0.3680899999999999  0.9665  1.0000
  C   C15       1.0  0.24437  0.62622  0.03341  1.0000
  C   C16       1.0  0.30234000000000005  0.4831599999999999  0.20387  1.0000
  C   C17       1.0  0.25775000000000003  0.45435999999999993  0.11962999999999999  1.0000
  C   C18       1.0  0.23017  0.20013999999999998  0.05491  1.0000
  N   N1        1.0  0.4857500000000001  0.9053799999999999  0.43531  1.0000
  N   N2        1.0  0.7572  0.41589  0.04407999999999999  1.0000
  N   N3        1.0  0.7513600000000001  0.7580600000000001  0.87036  1.0000
  N   N4        1.0  0.5141700000000001  0.0937100000000002  0.5646199999999998  1.0000
  N   N5        1.0  0.24282  0.58356  0.95604  1.0000
  N   N6        1.0  0.24859  0.24053000000000002  0.12961  1.0000
  O   O1        1.0  0.8138100000000001  0.88735  0.28655999999999987  1.0000
  O   O2        1.0  0.057269999999999974  0.9251300000000001  0.35726999999999987  1.0000
  O   O3        1.0  0.67662  0.9202  0.10329  1.0000
  O   O4        1.0  0.74014  0.5572699999999999  0.19913999999999996  1.0000
  O   O5        1.0  0.7186800000000001  0.31323000000000006  0.7964199999999999  1.0000
  O   O6        1.0  0.63482  0.7003999999999999  0.73302  1.0000
  O   O7        1.0  0.18605999999999995  0.11282000000000002  0.71313  1.0000
  O   O8        1.0  0.94263  0.07432999999999994  0.64257  1.0000
  O   O9        1.0  0.32386000000000004  0.07919000000000005  0.89666  1.0000
  O   O10       1.0  0.2601400000000001  0.4418500000000002  0.8006799999999998  1.0000
  O   O11       1.0  0.28121000000000007  0.68482  0.20374  1.0000
  O   O12       1.0  0.36531  0.29749000000000003  0.26711  1.0000
