data_image0
_chemical_formula_structural       Zn4H24C42O19
_chemical_formula_sum              "Zn4 H24 C42 O19"
_cell_length_a       17.34807
_cell_length_b       17.36043
_cell_length_c       17.36648
_cell_angle_alpha    89.9013
_cell_angle_beta     90.19173999999998
_cell_angle_gamma    90.11043

_space_group_name_H-M_alt    "P 1"
_space_group_IT_number       1

loop_
  _space_group_symop_operation_xyz
  'x, y, z'

loop_
  _atom_site_type_symbol
  _atom_site_label
  _atom_site_symmetry_multiplicity
  _atom_site_fract_x
  _atom_site_fract_y
  _atom_site_fract_z
  _atom_site_occupancy
  Zn  Zn1       1.0  0.56492  0.43502  0.43494  1.0000
  Zn  Zn2       1.0  0.43488999999999994  0.56549  0.43491  1.0000
  Zn  Zn3       1.0  0.4347  0.43518  0.56521  1.0000
  Zn  Zn4       1.0  0.56491  0.56581  0.56519  1.0000
  H   H1        1.0  0.80191  0.58547  0.58997  1.0000
  H   H2        1.0  0.9218299999999998  0.62528  0.63295  1.0000
  H   H3        1.0  0.19758  0.42103  0.59487  1.0000
  H   H4        1.0  0.994  0.41873  0.60524  1.0000
  H   H5        1.0  0.19545  0.58185  0.40605  1.0000
  H   H6        1.0  0.8047099999999999  0.41427  0.41178  1.0000
  H   H7        1.0  0.57894  0.80379  0.59499  1.0000
  H   H8        1.0  0.58178  0.007960000000000002  0.60121  1.0000
  H   H9        1.0  0.58221  0.19568  0.4088  1.0000
  H   H10       1.0  0.41856  0.19803  0.5937  1.0000
  H   H11       1.0  0.38064  0.07842  0.63769  1.0000
  H   H12       1.0  0.4193199999999999  0.80406  0.40465  1.0000
  H   H13       1.0  0.59198  0.58445  0.80203  1.0000
  H   H14       1.0  0.41747999999999996  0.59225  0.19749  1.0000
  H   H15       1.0  0.37863  0.63538  0.07826  1.0000
  H   H16       1.0  0.58476  0.41033  0.19566  1.0000
  H   H17       1.0  0.40685  0.41908  0.80494  1.0000
  H   H18       1.0  0.4028199999999999  0.41681  0.00869  1.0000
  H   H19       1.0  0.05096  0.58109  0.40806  1.0000
  H   H20       1.0  0.94932  0.41576  0.41419  1.0000
  H   H21       1.0  0.57982  0.0512  0.40973  1.0000
  H   H22       1.0  0.41813  0.9483499999999999  0.4069  1.0000
  H   H23       1.0  0.59229  0.58586  0.94623  1.0000
  H   H24       1.0  0.58365  0.41224  0.05122  1.0000
  C   C1        1.0  0.8348  0.5482  0.55196  1.0000
  C   C2        1.0  0.91532  0.54861  0.5533  1.0000
  C   C3        1.0  0.16566  0.45664  0.55444  1.0000
  C   C4        1.0  0.08521  0.45785  0.55669  1.0000
  C   C5        1.0  0.16395  0.54713  0.44745  1.0000
  C   C6        1.0  0.08371  0.54651  0.44886  1.0000
  C   C7        1.0  0.8361999999999999  0.45156  0.45104  1.0000
  C   C8        1.0  0.9165299999999997  0.45266  0.45257  1.0000
  C   C9        1.0  0.54362  0.83531  0.55397  1.0000
  C   C10       1.0  0.54221  0.91573  0.55532  1.0000
  C   C11       1.0  0.5463099999999999  0.16409  0.44912  1.0000
  C   C12       1.0  0.54477  0.08383  0.44992  1.0000
  C   C13       1.0  0.45408  0.16528  0.55394  1.0000
  C   C14       1.0  0.45361  0.08479  0.5549  1.0000
  C   C15       1.0  0.45363  0.83583  0.44629  1.0000
  C   C16       1.0  0.45323999999999987  0.91604  0.44763  1.0000
  C   C17       1.0  0.55206  0.549  0.83463  1.0000
  C   C18       1.0  0.55192  0.54957  0.91478  1.0000
  C   C19       1.0  0.45369  0.55301  0.16486  1.0000
  C   C20       1.0  0.45389  0.55456  0.0844  1.0000
  C   C21       1.0  0.54818  0.4501  0.16397  1.0000
  C   C22       1.0  0.5473599999999997  0.45148  0.08369  1.0000
  C   C23       1.0  0.4474  0.45567  0.83566  1.0000
  C   C24       1.0  0.4475  0.45674  0.91611  1.0000
  C   C25       1.0  0.7089  0.49987  0.50029  1.0000
  C   C26       1.0  0.79513  0.4996999999999999  0.50096  1.0000
  C   C27       1.0  0.9575199999999999  0.50088  0.50311  1.0000
  C   C28       1.0  0.2909799999999999  0.50041  0.4988  1.0000
  C   C29       1.0  0.20501999999999995  0.50145  0.50016  1.0000
  C   C30       1.0  0.043229999999999984  0.5022  0.503  1.0000
  C   C31       1.0  0.50107  0.70933  0.4984799999999999  1.0000
  C   C32       1.0  0.49941  0.79531  0.49946  1.0000
  C   C33       1.0  0.49732999999999994  0.9570599999999999  0.50164  1.0000
  C   C34       1.0  0.5001599999999998  0.2912  0.50053  1.0000
  C   C35       1.0  0.50041  0.20504  0.50118  1.0000
  C   C36       1.0  0.49862999999999996  0.04271  0.50213  1.0000
  C   C37       1.0  0.49983999999999995  0.50048  0.70894  1.0000
  C   C38       1.0  0.4996499999999999  0.5017  0.7949  1.0000
  C   C39       1.0  0.5001599999999998  0.5037  0.95667  1.0000
  C   C40       1.0  0.50021  0.50024  0.29099  1.0000
  C   C41       1.0  0.50076  0.50092  0.2048  1.0000
  C   C42       1.0  0.5006299999999998  0.50323  0.0424  1.0000
  O   O1        1.0  0.5001599999999998  0.49999  0.49988999999999995  1.0000
  O   O2        1.0  0.67579  0.45345  0.45347  1.0000
  O   O3        1.0  0.95714  0.59477  0.60212  1.0000
  O   O4        1.0  0.3243799999999999  0.54722  0.4526  1.0000
  O   O5        1.0  0.0497  0.41379000000000005  0.61195  1.0000
  O   O6        1.0  0.32463  0.45282000000000006  0.54403  1.0000
  O   O7        1.0  0.67572  0.54641  0.54658  1.0000
  O   O8        1.0  0.45703  0.67573  0.44956  1.0000
  O   O9        1.0  0.58637  0.9525400000000002  0.60964  1.0000
  O   O10       1.0  0.45356  0.32434  0.54675  1.0000
  O   O11       1.0  0.54646  0.32424  0.45363  1.0000
  O   O12       1.0  0.40988  0.04299  0.60581  1.0000
  O   O13       1.0  0.5463099999999999  0.67598  0.54655  1.0000
  O   O14       1.0  0.45340999999999987  0.45353  0.67567  1.0000
  O   O15       1.0  0.54664  0.45343  0.32415  1.0000
  O   O16       1.0  0.40973  0.60539  0.04279  1.0000
  O   O17       1.0  0.4535299999999999  0.5464  0.32408  1.0000
  O   O18       1.0  0.54674  0.54662  0.67546  1.0000
  O   O19       1.0  0.39511  0.41041  0.9533  1.0000
