data_image0
_chemical_formula_structural       Fe4H12C12O24
_chemical_formula_sum              "Fe4 H12 C12 O24"
_cell_length_a       8.17552
_cell_length_b       8.687319999999998
_cell_length_c       11.555150000000001
_cell_angle_alpha    90.06765999999999
_cell_angle_beta     89.72889
_cell_angle_gamma    89.92629

_symmetry_space_group_name_H-M    'P 1'
_symmetry_Int_Tables_number       1

loop_
  _symmetry_equiv_pos_as_xyz
  'x,y,z'

loop_
  _atom_site_type_symbol
  _atom_site_label
  _atom_site_symmetry_multiplicity
  _atom_site_fract_x
  _atom_site_fract_y
  _atom_site_fract_z
  _atom_site_occupancy
  Fe  Fe1       1.0  0.24981999999999996  0.24568999999999996  0.24853  1.0000
  Fe  Fe2       1.0  0.25069  0.25462  0.74757  1.0000
  Fe  Fe3       1.0  0.7501799999999997  0.7543100000000003  0.7514700000000001  1.0000
  Fe  Fe4       1.0  0.74931  0.74538  0.25243  1.0000
  H   H1        1.0  0.55769  0.43699  0.18093  1.0000
  H   H2        1.0  0.5607399999999998  0.06186  0.81936  1.0000
  H   H3        1.0  0.94063  0.06133000000000001  0.68023  1.0000
  H   H4        1.0  0.9396399999999998  0.43793  0.32065  1.0000
  H   H5        1.0  0.44230999999999987  0.5630100000000001  0.8190699999999999  1.0000
  H   H6        1.0  0.4392599999999999  0.9381400000000001  0.18064  1.0000
  H   H7        1.0  0.05936999999999998  0.93867  0.31977  1.0000
  H   H8        1.0  0.06035999999999999  0.56207  0.67936  1.0000
  H   H9        1.0  0.16572  0.25043  0.99828  1.0000
  H   H10       1.0  0.3297199999999999  0.24989999999999998  0.49912  1.0000
  H   H11       1.0  0.83428  0.74957  0.00172  1.0000
  H   H12       1.0  0.6702800000000001  0.7501  0.50088  1.0000
  C   C1        1.0  0.5173299999999997  0.47697999999999996  0.26703  1.0000
  C   C2        1.0  0.5219799999999998  0.0237  0.73272  1.0000
  C   C3        1.0  0.9813999999999999  0.02121  0.76576  1.0000
  C   C4        1.0  0.9800799999999998  0.47829  0.23482999999999998  1.0000
  C   C5        1.0  0.48267  0.52302  0.73297  1.0000
  C   C6        1.0  0.4780199999999999  0.9763000000000001  0.26729  1.0000
  C   C7        1.0  0.01859  0.97879  0.23423999999999998  1.0000
  C   C8        1.0  0.01992  0.52171  0.7651700000000001  1.0000
  C   C9        1.0  0.3001899999999999  0.24943999999999997  0.99785  1.0000
  C   C10       1.0  0.19546999999999998  0.24917  0.49911  1.0000
  C   C11       1.0  0.69982  0.75056  0.00215  1.0000
  C   C12       1.0  0.8045299999999997  0.75083  0.50089  1.0000
  O   O1        1.0  0.59357  0.58538  0.31728  1.0000
  O   O2        1.0  0.37547  0.24160000000000004  0.09421999999999998  1.0000
  O   O3        1.0  0.39412  0.41257  0.31341  1.0000
  O   O4        1.0  0.59584  0.9121900000000001  0.68383  1.0000
  O   O5        1.0  0.37551  0.25672  0.90116  1.0000
  O   O6        1.0  0.40448  0.09343  0.68374  1.0000
  O   O7        1.0  0.90507  0.91307  0.81652  1.0000
  O   O8        1.0  0.12034999999999998  0.25686000000000003  0.59609  1.0000
  O   O9        1.0  0.10456999999999997  0.08627  0.81126  1.0000
  O   O10       1.0  0.9038199999999997  0.58652  0.18435  1.0000
  O   O11       1.0  0.12049999999999998  0.24115999999999999  0.40285  1.0000
  O   O12       1.0  0.10354  0.41353  0.18831  1.0000
  O   O13       1.0  0.40643  0.41462  0.68272  1.0000
  O   O14       1.0  0.62453  0.7584  0.90578  1.0000
  O   O15       1.0  0.60588  0.58743  0.68659  1.0000
  O   O16       1.0  0.40415999999999985  0.08781  0.31617  1.0000
  O   O17       1.0  0.62449  0.74328  0.09883999999999998  1.0000
  O   O18       1.0  0.59552  0.90657  0.31626  1.0000
  O   O19       1.0  0.09492999999999997  0.08693000000000001  0.18348  1.0000
  O   O20       1.0  0.87965  0.74314  0.40391  1.0000
  O   O21       1.0  0.8954299999999997  0.91373  0.18874  1.0000
  O   O22       1.0  0.09617999999999997  0.41348  0.81565  1.0000
  O   O23       1.0  0.8794999999999997  0.75884  0.59715  1.0000
  O   O24       1.0  0.89646  0.58647  0.8117  1.0000
