data_image0
_chemical_formula_structural       Zn4H20C48O26
_chemical_formula_sum              "Zn4 H20 C48 O26"
_cell_length_a       8.36775
_cell_length_b       10.22567
_cell_length_c       23.72915
_cell_angle_alpha    100.65673
_cell_angle_beta     89.99910999999999
_cell_angle_gamma    114.41915999999999

_space_group_name_H-M_alt    "P 1"
_space_group_IT_number       1

loop_
  _space_group_symop_operation_xyz
  'x, y, z'

loop_
  _atom_site_type_symbol
  _atom_site_label
  _atom_site_symmetry_multiplicity
  _atom_site_fract_x
  _atom_site_fract_y
  _atom_site_fract_z
  _atom_site_occupancy
  Zn  Zn1       1.0  0.87147  0.15533999999999998  0.30349999999999994  1.0000
  Zn  Zn2       1.0  0.7146400000000003  0.84486  0.19646  1.0000
  Zn  Zn3       1.0  0.12853  0.84467  0.6964999999999998  1.0000
  Zn  Zn4       1.0  0.28536  0.15514  0.80355  1.0000
  H   H1        1.0  0.19757  0.014519999999999998  0.38743  1.0000
  H   H2        1.0  0.85349  0.59667  0.28493999999999997  1.0000
  H   H3        1.0  0.22371  0.6171  0.41639  1.0000
  H   H4        1.0  0.20784  0.8222599999999999  0.5201  1.0000
  H   H5        1.0  0.58421  0.034859999999999974  0.22015  1.0000
  H   H6        1.0  0.1818500000000001  0.9849  0.11230999999999997  1.0000
  H   H7        1.0  0.25925  0.40289  0.21423999999999996  1.0000
  H   H8        1.0  0.60976  0.38226999999999994  0.08309999999999998  1.0000
  H   H9        1.0  0.38633000000000006  0.1769300000000001  0.97988  1.0000
  H   H10       1.0  0.5489800000000001  0.9666199999999999  0.28049999999999997  1.0000
  H   H11       1.0  0.80243  0.9854799999999999  0.61257  1.0000
  H   H12       1.0  0.14650999999999997  0.4033399999999999  0.7150699999999999  1.0000
  H   H13       1.0  0.77629  0.3829  0.58361  1.0000
  H   H14       1.0  0.7921600000000001  0.17774  0.47991  1.0000
  H   H15       1.0  0.4157900000000001  0.9651500000000001  0.7798499999999998  1.0000
  H   H16       1.0  0.8181400000000002  0.01509999999999999  0.88769  1.0000
  H   H17       1.0  0.7407500000000001  0.5971099999999999  0.7857599999999999  1.0000
  H   H18       1.0  0.39023000000000013  0.61773  0.91691  1.0000
  H   H19       1.0  0.61367  0.82307  0.020129999999999995  1.0000
  H   H20       1.0  0.45100999999999997  0.03337999999999995  0.7194999999999999  1.0000
  C   C1        1.0  0.15226999999999996  0.8959  0.37705999999999995  1.0000
  C   C2        1.0  0.22909  0.8261699999999998  0.40736999999999995  1.0000
  C   C3        1.0  0.5882  0.029029999999999924  0.38291999999999987  1.0000
  C   C4        1.0  0.95841  0.66085  0.31905  1.0000
  C   C5        1.0  0.9262500000000004  0.88649  0.30459  1.0000
  C   C6        1.0  0.16616999999999996  0.67313  0.394  1.0000
  C   C7        1.0  0.03512000000000003  0.5911  0.349  1.0000
  C   C8        1.0  0.33691999999999994  0.8976399999999999  0.51073  1.0000
  C   C9        1.0  0.014639999999999966  0.81302  0.33431  1.0000
  C   C10       1.0  0.37079  0.91392  0.45385999999999993  1.0000
  C   C11       1.0  0.53715  0.01681000000000004  0.44324  1.0000
  C   C12       1.0  0.9723300000000001  0.42926  0.33466  1.0000
  C   C13       1.0  0.25661  0.10351999999999997  0.12263999999999999  1.0000
  C   C14       1.0  0.4042299999999999  0.17338  0.0925  1.0000
  C   C15       1.0  0.55988  0.97181  0.11719999999999997  1.0000
  C   C16       1.0  0.29958000000000007  0.33881999999999995  0.18018999999999993  1.0000
  C   C17       1.0  0.040749999999999995  0.11364999999999997  0.19526999999999997  1.0000
  C   C18       1.0  0.49553  0.32648  0.10554  1.0000
  C   C19       1.0  0.44641999999999993  0.40871  0.15017  1.0000
  C   C20       1.0  0.43950000000000006  0.10173999999999986  0.9892299999999998  1.0000
  C   C21       1.0  0.20263  0.18663  0.16524  1.0000
  C   C22       1.0  0.45757  0.08579999999999999  0.04609999999999999  1.0000
  C   C23       1.0  0.52089  0.9836400000000001  0.05682999999999999  1.0000
  C   C24       1.0  0.546  0.57059  0.16446  1.0000
  C   C25       1.0  0.84773  0.10409999999999991  0.6229499999999999  1.0000
  C   C26       1.0  0.7709100000000002  0.17382999999999996  0.5926399999999998  1.0000
  C   C27       1.0  0.41179999999999994  0.9709699999999999  0.6170899999999999  1.0000
  C   C28       1.0  0.04158999999999999  0.33914999999999995  0.6809599999999999  1.0000
  C   C29       1.0  0.07375000000000002  0.11351  0.69541  1.0000
  C   C30       1.0  0.83383  0.32687999999999995  0.6060099999999999  1.0000
  C   C31       1.0  0.96487  0.40889999999999993  0.6509999999999999  1.0000
  C   C32       1.0  0.66308  0.10235999999999996  0.48926999999999987  1.0000
  C   C33       1.0  0.98535  0.18697999999999995  0.6656999999999998  1.0000
  C   C34       1.0  0.62921  0.08609  0.5461499999999999  1.0000
  C   C35       1.0  0.46285000000000015  0.9831900000000001  0.55676  1.0000
  C   C36       1.0  0.027669999999999993  0.57074  0.6653499999999999  1.0000
  C   C37       1.0  0.74339  0.89648  0.87736  1.0000
  C   C38       1.0  0.59577  0.8266199999999999  0.9075099999999998  1.0000
  C   C39       1.0  0.44012  0.028190000000000017  0.8827999999999999  1.0000
  C   C40       1.0  0.7004100000000001  0.66118  0.81981  1.0000
  C   C41       1.0  0.95925  0.8863499999999997  0.8047299999999997  1.0000
  C   C42       1.0  0.5044600000000002  0.67352  0.89446  1.0000
  C   C43       1.0  0.55357  0.59129  0.84983  1.0000
  C   C44       1.0  0.5605  0.89826  0.01077  1.0000
  C   C45       1.0  0.79737  0.8133699999999999  0.8347599999999998  1.0000
  C   C46       1.0  0.54243  0.9142  0.9539  1.0000
  C   C47       1.0  0.47911  0.016359999999999875  0.9431799999999999  1.0000
  C   C48       1.0  0.45399  0.42940999999999985  0.8355499999999998  1.0000
  O   O1        1.0  0.7459400000000003  0.11686000000000002  0.37775  1.0000
  O   O2        1.0  0.7919  0.80152  0.27046  1.0000
  O   O3        1.0  0.06558  0.36913  0.35099  1.0000
  O   O4        1.0  0.82322  0.34993  0.30586  1.0000
  O   O5        1.0  0.9934600000000001  0.02642000000000004  0.31711  1.0000
  O   O6        1.0  0.47456000000000004  0.9499300000000002  0.34080999999999995  1.0000
  O   O7        1.0  0.6277300000000002  0.88314  0.12234  1.0000
  O   O8        1.0  0.99178  0.19877999999999998  0.22913999999999995  1.0000
  O   O9        1.0  0.7003100000000002  0.63175  0.14862  1.0000
  O   O10       1.0  0.47575999999999996  0.6493  0.19316  1.0000
  O   O11       1.0  0.9676700000000001  0.97364  0.18322999999999995  1.0000
  O   O12       1.0  0.52754  0.05187  0.15928  1.0000
  O   O13       1.0  0.25405999999999995  0.8831499999999999  0.6222499999999999  1.0000
  O   O14       1.0  0.20808999999999997  0.19847999999999993  0.7295399999999999  1.0000
  O   O15       1.0  0.9344200000000005  0.63088  0.6490099999999999  1.0000
  O   O16       1.0  0.17677000000000007  0.65008  0.6941499999999998  1.0000
  O   O17       1.0  0.006540000000000035  0.97358  0.6828999999999998  1.0000
  O   O18       1.0  0.5254400000000002  0.050069999999999976  0.65919  1.0000
  O   O19       1.0  0.3722700000000001  0.11686000000000009  0.87766  1.0000
  O   O20       1.0  0.008219999999999943  0.8012199999999999  0.7708599999999998  1.0000
  O   O21       1.0  0.29969  0.36825  0.85138  1.0000
  O   O22       1.0  0.52424  0.3507  0.80684  1.0000
  O   O23       1.0  0.03232999999999995  0.0263599999999999  0.8167699999999998  1.0000
  O   O24       1.0  0.4724599999999998  0.9481299999999999  0.8407199999999998  1.0000
  O   O25       1.0  0.6353400000000002  9.999999999999456e-05  0.25023  1.0000
  O   O26       1.0  0.36465999999999993  0.99991  0.74977  1.0000
