data_image0
_chemical_formula_structural       Mn6P6H24C18N6O18
_chemical_formula_sum              "Mn6 P6 H24 C18 N6 O18"
_cell_length_a       5.02212
_cell_length_b       18.47915
_cell_length_c       18.78785
_cell_angle_alpha    115.73940000000002
_cell_angle_beta     94.36875
_cell_angle_gamma    89.29069

_symmetry_space_group_name_H-M    'P 1'
_symmetry_Int_Tables_number       1

loop_
  _symmetry_equiv_pos_as_xyz
  'x,y,z'

loop_
  _atom_site_type_symbol
  _atom_site_label
  _atom_site_symmetry_multiplicity
  _atom_site_fract_x
  _atom_site_fract_y
  _atom_site_fract_z
  _atom_site_occupancy
  Mn  Mn1       1.0  0.74093  0.75386  0.45437  1.0000
  Mn  Mn2       1.0  0.12689  0.72483  0.30635  1.0000
  Mn  Mn3       1.0  0.59224  0.58933  0.26786  1.0000
  Mn  Mn4       1.0  0.11366000000000002  0.37834  0.6451  1.0000
  Mn  Mn5       1.0  0.73164  0.19906  0.57807  1.0000
  Mn  Mn6       1.0  0.58724  0.3672  0.74636  1.0000
  P   P1        1.0  0.04712  0.5257  0.2019  1.0000
  P   P2        1.0  0.31978  0.6727  0.45254  1.0000
  P   P3        1.0  0.61371  0.80716  0.32742  1.0000
  P   P4        1.0  0.12585  0.47934000000000004  0.80823  1.0000
  P   P5        1.0  0.58516  0.33215  0.53332  1.0000
  P   P6        1.0  0.2721  0.19067000000000003  0.6464  1.0000
  H   H1        1.0  0.24390999999999996  0.52697  0.06232000000000001  1.0000
  H   H2        1.0  0.41577  0.62165  0.10701  1.0000
  H   H3        1.0  0.8921400000000003  0.42098  0.04856  1.0000
  H   H4        1.0  0.5407  0.40347  0.02377  1.0000
  H   H5        1.0  0.56634  0.52599  0.45896  1.0000
  H   H6        1.0  0.77664  0.49881000000000003  0.3793  1.0000
  H   H7        1.0  0.11778000000000001  0.64334  0.60752  1.0000
  H   H8        1.0  0.7963000000000001  0.59728  0.59712  1.0000
  H   H9        1.0  0.22482999999999997  0.98827  0.56634  1.0000
  H   H10       1.0  0.44503999999999994  0.9147700000000001  0.57746  1.0000
  H   H11       1.0  0.32309  0.9276399999999999  0.35946  1.0000
  H   H12       1.0  0.16865999999999998  0.9975  0.44466  1.0000
  H   H13       1.0  0.75809  0.37668  0.90091  1.0000
  H   H14       1.0  0.92789  0.47214  0.94631  1.0000
  H   H15       1.0  0.62589  0.5950400000000001  0.98312  1.0000
  H   H16       1.0  0.27395  0.57632  0.9587500000000001  1.0000
  H   H17       1.0  0.15789  0.5224  0.63701  1.0000
  H   H18       1.0  0.3143  0.50281  0.54777  1.0000
  H   H19       1.0  0.03369  0.4078300000000001  0.41802  1.0000
  H   H20       1.0  0.69198  0.38798  0.42716  1.0000
  H   H21       1.0  0.56949  0.0642  0.41992  1.0000
  H   H22       1.0  0.78169  0.9889900000000001  0.42964  1.0000
  H   H23       1.0  0.8430900000000001  0.98736  0.56255  1.0000
  H   H24       1.0  0.66093  0.057449999999999994  0.64142  1.0000
  C   C1        1.0  0.76777  0.55761  0.16006  1.0000
  C   C2        1.0  0.42816000000000004  0.55946  0.06217  1.0000
  C   C3        1.0  0.71179  0.44143  0.02674  1.0000
  C   C4        1.0  0.16524  0.59312  0.45879  1.0000
  C   C5        1.0  0.77214  0.50919  0.44121  1.0000
  C   C6        1.0  0.99329  0.58925  0.57328  1.0000
  C   C7        1.0  0.54055  0.84329  0.43034  1.0000
  C   C8        1.0  0.41956  0.9568699999999999  0.55068  1.0000
  C   C9        1.0  0.3564900000000001  0.96419  0.42359  1.0000
  C   C10       1.0  0.41169999999999995  0.4434100000000001  0.84729  1.0000
  C   C11       1.0  0.7450599999999998  0.43896  0.94567  1.0000
  C   C12       1.0  0.45621  0.55704  0.98098  1.0000
  C   C13       1.0  0.8764299999999999  0.39790000000000003  0.56231  1.0000
  C   C14       1.0  0.12256  0.5153  0.57592  1.0000
  C   C15       1.0  0.8549  0.43309999999999993  0.44967  1.0000
  C   C16       1.0  0.43901  0.13364  0.56159  1.0000
  C   C17       1.0  0.5936499999999999  0.022760000000000002  0.44752  1.0000
  C   C18       1.0  0.6477  0.018770000000000002  0.57748  1.0000
  N   N1        1.0  0.65925  0.52369  0.08609  1.0000
  N   N2        1.0  0.9504099999999999  0.57844  0.49072000000000005  1.0000
  N   N3        1.0  0.41480000000000006  0.9111399999999998  0.46352  1.0000
  N   N4        1.0  0.51547  0.47535  0.92064  1.0000
  N   N5        1.0  0.9337200000000001  0.44711  0.5322700000000001  1.0000
  N   N6        1.0  0.61404  0.07049999999999995  0.53509  1.0000
  O   O1        1.0  0.22521999999999998  0.45782000000000006  0.15778  1.0000
  O   O2        1.0  0.90827  0.52652  0.27418  1.0000
  O   O3        1.0  0.22414000000000006  0.60875  0.23586  1.0000
  O   O4        1.0  0.49307  0.72722  0.52799  1.0000
  O   O5        1.0  0.11923999999999998  0.72754  0.42822  1.0000
  O   O6        1.0  0.5184900000000001  0.63675  0.38604  1.0000
  O   O7        1.0  0.82713  0.8653  0.33078  1.0000
  O   O8        1.0  0.35824  0.789  0.2713  1.0000
  O   O9        1.0  0.73365  0.72246  0.31389  1.0000
  O   O10       1.0  0.9598400000000001  0.54177  0.866  1.0000
  O   O11       1.0  0.25246  0.49148  0.74171  1.0000
  O   O12       1.0  0.97452  0.39247999999999994  0.75898  1.0000
  O   O13       1.0  0.3739199999999999  0.34314  0.47852  1.0000
  O   O14       1.0  0.69402  0.2452  0.50545  1.0000
  O   O15       1.0  0.50572  0.36009  0.62234  1.0000
  O   O16       1.0  0.11983  0.14664  0.68101  1.0000
  O   O17       1.0  0.51969  0.24697  0.69641  1.0000
  O   O18       1.0  0.09272000000000001  0.24362  0.61457  1.0000
