data_image0
_chemical_formula_structural       Ni4H28C36N4O20
_chemical_formula_sum              "Ni4 H28 C36 N4 O20"
_cell_length_a       9.58356
_cell_length_b       10.7522
_cell_length_c       12.31363
_cell_angle_alpha    111.345
_cell_angle_beta     89.90599
_cell_angle_gamma    89.99775

_space_group_name_H-M_alt    "P 1"
_space_group_IT_number       1

loop_
  _space_group_symop_operation_xyz
  'x, y, z'

loop_
  _atom_site_type_symbol
  _atom_site_label
  _atom_site_symmetry_multiplicity
  _atom_site_fract_x
  _atom_site_fract_y
  _atom_site_fract_z
  _atom_site_occupancy
  Ni  Ni1       1.0  0.23886999999999997  0.19615  0.44261  1.0000
  Ni  Ni2       1.0  0.7386  0.30407  0.55694  1.0000
  Ni  Ni3       1.0  0.7670999999999998  0.7978300000000002  0.55689  1.0000
  Ni  Ni4       1.0  0.26668  0.7021800000000001  0.44343  1.0000
  H   H1        1.0  0.37389  0.49116  0.67355  1.0000
  H   H2        1.0  0.13688  0.49887  0.7422999999999998  1.0000
  H   H3        1.0  0.1415  0.58764  0.645  1.0000
  H   H4        1.0  0.10172  0.30408  0.28564  1.0000
  H   H5        1.0  0.99368  0.23014  0.09041  1.0000
  H   H6        1.0  0.07554  0.8229500000000002  0.06217  1.0000
  H   H7        1.0  0.17941  0.9159000000000002  0.25978  1.0000
  H   H8        1.0  0.87472  0.008830000000000003  0.32705  1.0000
  H   H9        1.0  0.6381499999999999  0.0006499999999999998  0.25787  1.0000
  H   H10       1.0  0.6424899999999999  0.91207  0.3553299999999999  1.0000
  H   H11       1.0  0.60063  0.1959  0.7141  1.0000
  H   H12       1.0  0.49351  0.27037  0.9099499999999999  1.0000
  H   H13       1.0  0.57609  0.67727  0.93745  1.0000
  H   H14       1.0  0.67907  0.5836600000000001  0.7391999999999999  1.0000
  H   H15       1.0  0.633  0.5249400000000001  0.31755  1.0000
  H   H16       1.0  0.87476  0.51157  0.2517  1.0000
  H   H17       1.0  0.86769  0.41485000000000005  0.34197  1.0000
  H   H18       1.0  0.89648  0.68107  0.7037999999999999  1.0000
  H   H19       1.0  0.004719999999999999  0.7560800000000001  0.89841  1.0000
  H   H20       1.0  0.9041799999999999  0.162  0.93288  1.0000
  H   H21       1.0  0.8020499999999999  0.06927000000000001  0.73526  1.0000
  H   H22       1.0  0.13156  0.9762200000000001  0.68206  1.0000
  H   H23       1.0  0.3725399999999999  0.98665  0.74808  1.0000
  H   H24       1.0  0.3661  0.08482999999999999  0.65885  1.0000
  H   H25       1.0  0.39742  0.81925  0.29703  1.0000
  H   H26       1.0  0.50488  0.74459  0.10187  1.0000
  H   H27       1.0  0.40427  0.3385600000000001  0.06718  1.0000
  H   H28       1.0  0.30302  0.43103  0.26542  1.0000
  C   C1        1.0  0.32922  0.4502  0.49183  1.0000
  C   C2        1.0  0.2981  0.43136  0.608  1.0000
  C   C3        1.0  0.1498  0.48768000000000006  0.65059  1.0000
  C   C4        1.0  0.030679999999999992  0.40065  0.58113  1.0000
  C   C5        1.0  0.09517  0.19846000000000003  0.23179  1.0000
  C   C6        1.0  0.03436  0.15519  0.12195  1.0000
  C   C7        1.0  0.02624  0.01789  0.055  1.0000
  C   C8        1.0  0.08011999999999998  0.93067  0.10639  1.0000
  C   C9        1.0  0.14009  0.98114  0.21668999999999997  1.0000
  C   C10       1.0  0.82926  0.05072000000000001  0.50874  1.0000
  C   C11       1.0  0.79841  0.06873999999999997  0.39226999999999995  1.0000
  C   C12       1.0  0.6504699999999999  0.012009999999999988  0.34962999999999994  1.0000
  C   C13       1.0  0.531  0.09920999999999996  0.4188399999999999  1.0000
  C   C14       1.0  0.59432  0.30157999999999996  0.76785  1.0000
  C   C15       1.0  0.5339799999999999  0.34515000000000007  0.87804  1.0000
  C   C16       1.0  0.5261999999999999  0.48252000000000006  0.94491  1.0000
  C   C17       1.0  0.58015  0.56952  0.89325  1.0000
  C   C18       1.0  0.6396699999999997  0.51874  0.78262  1.0000
  C   C19       1.0  0.67464  0.54773  0.4944799999999999  1.0000
  C   C20       1.0  0.71179  0.5756  0.38429  1.0000
  C   C21       1.0  0.85772  0.5168600000000001  0.34146999999999994  1.0000
  C   C22       1.0  0.97309  0.60292  0.41734  1.0000
  C   C23       1.0  0.89947  0.7865300000000001  0.75863  1.0000
  C   C24       1.0  0.9598099999999999  0.83072  0.86851  1.0000
  C   C25       1.0  0.9632099999999999  0.9677200000000002  0.93712  1.0000
  C   C26       1.0  0.90423  0.054380000000000074  0.8874  1.0000
  C   C27       1.0  0.8448199999999999  0.0042100000000000115  0.77703  1.0000
  C   C28       1.0  0.17436999999999997  0.9522700000000001  0.50473  1.0000
  C   C29       1.0  0.21021  0.92463  0.6152  1.0000
  C   C30       1.0  0.3563499999999999  0.98241  0.6585  1.0000
  C   C31       1.0  0.47261999999999993  0.8968600000000001  0.58274  1.0000
  C   C32       1.0  0.40035  0.7138400000000003  0.24206  1.0000
  C   C33       1.0  0.46035999999999994  0.66981  0.13188  1.0000
  C   C34       1.0  0.46352999999999994  0.53284  0.06309  1.0000
  C   C35       1.0  0.4046899999999999  0.44614  0.11291  1.0000
  C   C36       1.0  0.34563  0.4961400000000001  0.22356  1.0000
  N   N1        1.0  0.14895  0.11318000000000002  0.2783  1.0000
  N   N2        1.0  0.64794  0.38667000000000007  0.721  1.0000
  N   N3        1.0  0.8418  0.87213  0.7140399999999999  1.0000
  N   N4        1.0  0.34277  0.6281600000000002  0.28669  1.0000
  O   O1        1.0  0.31948  0.3469  0.39893  1.0000
  O   O2        1.0  0.36161  0.56631  0.49843  1.0000
  O   O3        1.0  0.30543  0.29723000000000005  0.59464  1.0000
  O   O4        1.0  0.05525  0.3056  0.4858  1.0000
  O   O5        1.0  0.9081599999999999  0.43184  0.62388  1.0000
  O   O6        1.0  0.81932  0.15433  0.60147  1.0000
  O   O7        1.0  0.86203  0.9348500000000001  0.50243  1.0000
  O   O8        1.0  0.80541  0.20267  0.4049  1.0000
  O   O9        1.0  0.55521  0.19444  0.51404  1.0000
  O   O10       1.0  0.40867  0.06811  0.37602  1.0000
  O   O11       1.0  0.6803299999999999  0.6490100000000001  0.59112  1.0000
  O   O12       1.0  0.6467199999999999  0.4306700000000001  0.4864899999999999  1.0000
  O   O13       1.0  0.7079  0.7130800000000003  0.40628  1.0000
  O   O14       1.0  0.9446399999999999  0.69511  0.51387  1.0000
  O   O15       1.0  0.09838999999999999  0.57497  0.3807  1.0000
  O   O16       1.0  0.1803  0.8504500000000002  0.40835  1.0000
  O   O17       1.0  0.14668  0.06914000000000003  0.51227  1.0000
  O   O18       1.0  0.20382  0.78726  0.59322  1.0000
  O   O19       1.0  0.44461  0.80439  0.48632  1.0000
  O   O20       1.0  0.59781  0.92492  0.6192899999999999  1.0000
