data_image0
_chemical_formula_structural       Ni2H2C10O8
_chemical_formula_sum              "Ni2 H2 C10 O8"
_cell_length_a       6.45168
_cell_length_b       7.329910000000001
_cell_length_c       8.16865
_cell_angle_alpha    90.74394
_cell_angle_beta     109.80768
_cell_angle_gamma    91.3363

_symmetry_space_group_name_H-M    'P 1'
_symmetry_Int_Tables_number       1

loop_
  _symmetry_equiv_pos_as_xyz
  'x,y,z'

loop_
  _atom_site_type_symbol
  _atom_site_label
  _atom_site_symmetry_multiplicity
  _atom_site_fract_x
  _atom_site_fract_y
  _atom_site_fract_z
  _atom_site_occupancy
  Ni  Ni1       1.0  0.0035599999999999994  0.49912  0.0031  1.0000
  Ni  Ni2       1.0  0.50471  0.00104  0.0030399999999999993  1.0000
  H   H1        1.0  0.4395099999999999  0.82881  0.5377399999999998  1.0000
  H   H2        1.0  0.56095  0.17139000000000001  0.46439999999999987  1.0000
  C   C1        1.0  0.5719699999999999  0.6711000000000001  0.8399499999999998  1.0000
  C   C2        1.0  0.53852  0.5772  0.66828  1.0000
  C   C3        1.0  0.57239  0.38976  0.6489  1.0000
  C   C4        1.0  0.4666  0.68482  0.52013  1.0000
  C   C5        1.0  0.63643  0.26366  0.7995099999999999  1.0000
  C   C6        1.0  0.43438  0.3297  0.16341  1.0000
  C   C7        1.0  0.46342999999999995  0.42322  0.3343699999999999  1.0000
  C   C8        1.0  0.42937  0.6107  0.35364  1.0000
  C   C9        1.0  0.53356  0.3152800000000001  0.48229  1.0000
  C   C10       1.0  0.36828  0.73722  0.20325999999999994  1.0000
  O   O1        1.0  0.4295699999999999  0.7895  0.8370199999999998  1.0000
  O   O2        1.0  0.73501  0.63902  0.97657  1.0000
  O   O3        1.0  0.8243899999999998  0.27851  0.9198199999999999  1.0000
  O   O4        1.0  0.49490999999999996  0.13848  0.7946599999999998  1.0000
  O   O5        1.0  0.57914  0.21294000000000005  0.16765  1.0000
  O   O6        1.0  0.27142  0.36033  0.02622  1.0000
  O   O7        1.0  0.18118999999999996  0.72157  0.08192  1.0000
  O   O8        1.0  0.5106199999999997  0.86225  0.20943999999999996  1.0000
