data_image0
_chemical_formula_structural       Ni3P4H34C34N8O14
_chemical_formula_sum              "Ni3 P4 H34 C34 N8 O14"
_cell_length_a       8.92938
_cell_length_b       10.70619
_cell_length_c       15.36606
_cell_angle_alpha    76.30008
_cell_angle_beta     78.4355
_cell_angle_gamma    79.01362

_space_group_name_H-M_alt    "P 1"
_space_group_IT_number       1

loop_
  _space_group_symop_operation_xyz
  'x, y, z'

loop_
  _atom_site_type_symbol
  _atom_site_label
  _atom_site_symmetry_multiplicity
  _atom_site_fract_x
  _atom_site_fract_y
  _atom_site_fract_z
  _atom_site_occupancy
  Ni  Ni1       1.0  0.8064500000000003  0.92811  0.63063  1.0000
  Ni  Ni2       1.0  0.19340999999999997  0.07165  0.36932  1.0000
  Ni  Ni3       1.0  0.0023399999999999263  0.49811000000000005  0.49998000000000004  1.0000
  P   P1        1.0  0.7217500000000001  0.72771  0.53727  1.0000
  P   P2        1.0  0.03778999999999993  0.8121100000000002  0.4689  1.0000
  P   P3        1.0  0.27922  0.27125000000000005  0.46273  1.0000
  P   P4        1.0  0.9625  0.18712999999999996  0.53107  1.0000
  H   H1        1.0  0.8710500000000001  0.9623300000000002  0.32297  1.0000
  H   H2        1.0  0.8794399999999999  0.7941700000000002  0.32889000000000007  1.0000
  H   H3        1.0  0.5554500000000002  0.07450000000000001  0.386  1.0000
  H   H4        1.0  0.35858  0.83285  0.2737800000000001  1.0000
  H   H5        1.0  0.6697899999999999  0.73008  0.28079  1.0000
  H   H6        1.0  0.51098  0.7374000000000003  0.48221000000000014  1.0000
  H   H7        1.0  0.84352  0.04086999999999998  0.4639600000000001  1.0000
  H   H8        1.0  0.8141600000000007  0.41337  0.39319  1.0000
  H   H9        1.0  0.7607  0.4734900000000001  0.23314000000000001  1.0000
  H   H10       1.0  0.15330999999999997  0.68186  0.16330000000000003  1.0000
  H   H11       1.0  0.18479  0.6148600000000001  0.32716  1.0000
  H   H12       1.0  0.8366100000000001  0.5763200000000002  0.07455  1.0000
  H   H13       1.0  0.028639999999999968  0.79552  0.049880000000000015  1.0000
  H   H14       1.0  0.9784800000000001  0.97198  0.91956  1.0000
  H   H15       1.0  0.9100599999999998  0.04215999999999996  0.7626900000000001  1.0000
  H   H16       1.0  0.81637  0.6787600000000003  0.76598  1.0000
  H   H17       1.0  0.8734300000000002  0.59238  0.92409  1.0000
  H   H18       1.0  0.12894999999999998  0.037519999999999984  0.67714  1.0000
  H   H19       1.0  0.1206099999999999  0.20568999999999998  0.6710000000000003  1.0000
  H   H20       1.0  0.4447100000000001  0.9253600000000001  0.61402  1.0000
  H   H21       1.0  0.6413899999999999  0.16714  0.72622  1.0000
  H   H22       1.0  0.3302  0.26989  0.7192  1.0000
  H   H23       1.0  0.48922  0.26236  0.51782  1.0000
  H   H24       1.0  0.15637999999999996  0.9584000000000001  0.53593  1.0000
  H   H25       1.0  0.18634999999999993  0.5860900000000001  0.6068600000000001  1.0000
  H   H26       1.0  0.23898000000000003  0.52697  0.76711  1.0000
  H   H27       1.0  0.8463  0.3186  0.83683  1.0000
  H   H28       1.0  0.8158199999999999  0.38469999999999993  0.6727100000000003  1.0000
  H   H29       1.0  0.16344  0.42364  0.9255100000000002  1.0000
  H   H30       1.0  0.9713200000000002  0.20448  0.95013  1.0000
  H   H31       1.0  0.021510000000000005  0.027989999999999998  0.08045  1.0000
  H   H32       1.0  0.0899  0.9578  0.23735  1.0000
  H   H33       1.0  0.18359000000000003  0.32126000000000005  0.23397  1.0000
  H   H34       1.0  0.12656999999999988  0.40758  0.07592  1.0000
  C   C1        1.0  0.8266799999999999  0.8545800000000001  0.45809  1.0000
  C   C2        1.0  0.8153100000000001  0.87721  0.35731  1.0000
  C   C3        1.0  0.5433000000000002  0.9982300000000002  0.35356  1.0000
  C   C4        1.0  0.4469600000000001  0.86892  0.29568  1.0000
  C   C5        1.0  0.59863  0.81625  0.2998900000000001  1.0000
  C   C6        1.0  0.8834  0.4744100000000001  0.3395800000000001  1.0000
  C   C7        1.0  0.8554300000000001  0.50856  0.2505  1.0000
  C   C8        1.0  0.9477299999999999  0.5894000000000001  0.18428  1.0000
  C   C9        1.0  0.07206999999999998  0.62542  0.21177000000000004  1.0000
  C   C10       1.0  0.09342000000000003  0.5867  0.30182  1.0000
  C   C11       1.0  0.9130800000000001  0.63132  0.09214  1.0000
  C   C12       1.0  0.96229  0.7343000000000002  0.02995  1.0000
  C   C13       1.0  0.92815  0.7756200000000001  0.93763  1.0000
  C   C14       1.0  0.94155  0.9033800000000002  0.88904  1.0000
  C   C15       1.0  0.9052199999999998  0.94359  0.80199  1.0000
  C   C16       1.0  0.8508499999999999  0.73943  0.80405  1.0000
  C   C17       1.0  0.8817000000000002  0.69344  0.89205  1.0000
  C   C18       1.0  0.17363  0.1447  0.5419  1.0000
  C   C19       1.0  0.18478000000000006  0.12254  0.6427  1.0000
  C   C20       1.0  0.45672999999999997  0.0016800000000000302  0.64646  1.0000
  C   C21       1.0  0.55305  0.13107999999999995  0.7042800000000002  1.0000
  C   C22       1.0  0.4013699999999999  0.18372999999999998  0.7000800000000003  1.0000
  C   C23       1.0  0.1175  0.5247400000000001  0.66047  1.0000
  C   C24       1.0  0.14452000000000007  0.4915800000000001  0.7497  1.0000
  C   C25       1.0  0.05217  0.4107100000000001  0.81585  1.0000
  C   C26       1.0  0.92783  0.37470000000000003  0.78831  1.0000
  C   C27       1.0  0.90745  0.4124399999999999  0.6980800000000001  1.0000
  C   C28       1.0  0.08687000000000006  0.3687000000000001  0.90794  1.0000
  C   C29       1.0  0.037700000000000004  0.26566000000000006  0.97008  1.0000
  C   C30       1.0  0.07185000000000002  0.22432000000000002  0.06239  1.0000
  C   C31       1.0  0.05845000000000001  0.09658000000000001  0.11097000000000001  1.0000
  C   C32       1.0  0.09475000000000001  0.056360000000000014  0.19803000000000004  1.0000
  C   C33       1.0  0.14912999999999998  0.26053  0.19595000000000004  1.0000
  C   C34       1.0  0.11829999999999997  0.30652000000000007  0.10796  1.0000
  N   N1        1.0  0.6584399999999999  0.89938  0.33627  1.0000
  N   N2        1.0  0.41398999999999997  0.9818900000000002  0.32928  1.0000
  N   N3        1.0  0.9984300000000002  0.51512  0.36531  1.0000
  N   N4        1.0  0.86143  0.8631600000000001  0.75925  1.0000
  N   N5        1.0  0.34157  0.10052000000000007  0.66376  1.0000
  N   N6        1.0  0.58603  0.018080000000000002  0.67071  1.0000
  N   N7        1.0  0.003550000000000014  0.48288  0.63453  1.0000
  N   N8        1.0  0.13855  0.13679  0.24076000000000006  1.0000
  O   O1        1.0  0.7740199999999999  0.59916  0.50735  1.0000
  O   O2        1.0  0.73478  0.74317  0.63124  1.0000
  O   O3        1.0  0.53843  0.76954  0.53041  1.0000
  O   O4        1.0  0.09228999999999996  0.6678000000000002  0.47160000000000013  1.0000
  O   O5        1.0  0.04460000000000007  0.85642  0.55739  1.0000
  O   O6        1.0  0.12011000000000004  0.8940900000000002  0.38215  1.0000
  O   O7        1.0  0.76592  0.9749800000000002  0.48929  1.0000
  O   O8        1.0  0.22773999999999994  0.3997800000000001  0.49296000000000006  1.0000
  O   O9        1.0  0.26548  0.2565200000000001  0.3687400000000001  1.0000
  O   O10       1.0  0.4624199999999999  0.22983000000000006  0.46959  1.0000
  O   O11       1.0  0.90826  0.3315  0.52841  1.0000
  O   O12       1.0  0.9555600000000001  0.1432  0.4425  1.0000
  O   O13       1.0  0.88005  0.10538  0.61784  1.0000
  O   O14       1.0  0.23415  0.024349999999999997  0.51073  1.0000
