data_image0
_chemical_formula_structural       U4H8C24S4O16
_chemical_formula_sum              "U4 H8 C24 S4 O16"
_cell_length_a       9.63035
_cell_length_b       11.327510000000002
_cell_length_c       12.79095
_cell_angle_alpha    90.00448
_cell_angle_beta     89.99059000000001
_cell_angle_gamma    90.01529

_space_group_name_H-M_alt    "P 1"
_space_group_IT_number       1

loop_
  _space_group_symop_operation_xyz
  'x, y, z'

loop_
  _atom_site_type_symbol
  _atom_site_label
  _atom_site_symmetry_multiplicity
  _atom_site_fract_x
  _atom_site_fract_y
  _atom_site_fract_z
  _atom_site_occupancy
  U   U1        1.0  0.92552  0.305  0.45575000000000004  1.0000
  U   U2        1.0  0.5768800000000001  0.69516  0.95882  1.0000
  U   U3        1.0  0.07645  0.80568  0.0422  1.0000
  U   U4        1.0  0.42606000000000005  0.19451  0.54453  1.0000
  H   H1        1.0  0.32476  0.47408999999999996  0.48152000000000006  1.0000
  H   H2        1.0  0.18084  0.58515  0.33788000000000007  1.0000
  H   H3        1.0  0.17535000000000003  0.52589  0.9815300000000001  1.0000
  H   H4        1.0  0.31937  0.41475  0.8378500000000001  1.0000
  H   H5        1.0  0.6746  0.9738299999999999  0.01848  1.0000
  H   H6        1.0  0.8188300000000001  0.08469999999999998  0.16179000000000004  1.0000
  H   H7        1.0  0.82452  0.025849999999999998  0.51842  1.0000
  H   H8        1.0  0.6812  0.91481  0.66255  1.0000
  C   C1        1.0  0.5987  0.40582999999999997  0.43165  1.0000
  C   C2        1.0  0.4956400000000001  0.45974  0.36922  1.0000
  C   C3        1.0  0.35980000000000006  0.49083  0.4021  1.0000
  C   C4        1.0  0.28427  0.54939  0.32636  1.0000
  C   C5        1.0  0.35683  0.5635  0.23081000000000002  1.0000
  C   C6        1.0  0.31309000000000003  0.61719  0.13737  1.0000
  C   C7        1.0  0.90146  0.59382  0.93152  1.0000
  C   C8        1.0  0.00508  0.54048  0.86914  1.0000
  C   C9        1.0  0.14074  0.50929  0.902  1.0000
  C   C10       1.0  0.21603  0.45052999999999993  0.8262300000000001  1.0000
  C   C11       1.0  0.14313  0.43636  0.7306600000000001  1.0000
  C   C12       1.0  0.18661000000000003  0.38288  0.6373500000000002  1.0000
  C   C13       1.0  0.39937  0.9069799999999999  0.06819  1.0000
  C   C14       1.0  0.50368  0.95976  0.13063  1.0000
  C   C15       1.0  0.6395500000000001  0.99052  0.09794000000000001  1.0000
  C   C16       1.0  0.71541  0.04905  0.17360000000000003  1.0000
  C   C17       1.0  0.64296  0.06335  0.26934  1.0000
  C   C18       1.0  0.68694  0.11679  0.36268  1.0000
  C   C19       1.0  0.09891000000000001  0.09430999999999999  0.56855  1.0000
  C   C20       1.0  0.9957600000000001  0.04047  0.6307800000000002  1.0000
  C   C21       1.0  0.8597800000000001  0.0095  0.5979000000000001  1.0000
  C   C22       1.0  0.7845  0.9507999999999999  0.67377  1.0000
  C   C23       1.0  0.85695  0.93655  0.76931  1.0000
  C   C24       1.0  0.8133  0.8824  0.8625200000000002  1.0000
  S   S1        1.0  0.52502  0.50417  0.23953  1.0000
  S   S2        1.0  0.9749700000000001  0.49565  0.7397  1.0000
  S   S3        1.0  0.47459  0.00429  0.26051  1.0000
  S   S4        1.0  0.02535  0.9958599999999999  0.7603  1.0000
  O   O1        1.0  0.7291900000000001  0.40574  0.4030000000000001  1.0000
  O   O2        1.0  0.5635600000000001  0.35607  0.52094  1.0000
  O   O3        1.0  0.18868  0.66355  0.13074  1.0000
  O   O4        1.0  0.39754  0.6188  0.056330000000000005  1.0000
  O   O5        1.0  0.77146  0.59333  0.90272  1.0000
  O   O6        1.0  0.93635  0.64369  0.021220000000000006  1.0000
  O   O7        1.0  0.31115000000000004  0.33665999999999996  0.62986  1.0000
  O   O8        1.0  0.10193  0.3813  0.55595  1.0000
  O   O9        1.0  0.26993  0.9095099999999999  0.09833  1.0000
  O   O10       1.0  0.43314  0.85649  0.97867  1.0000
  O   O11       1.0  0.81162  0.16244999999999998  0.3699700000000001  1.0000
  O   O12       1.0  0.60273  0.11890999999999997  0.4442600000000001  1.0000
  O   O13       1.0  0.22994  0.09313999999999999  0.59659  1.0000
  O   O14       1.0  0.06356  0.14487  0.47969000000000006  1.0000
  O   O15       1.0  0.68897  0.83513  0.86918  1.0000
  O   O16       1.0  0.89752  0.88084  0.9436100000000001  1.0000
