data_image0
_chemical_formula_structural       Zn2H24C24N48
_chemical_formula_sum              "Zn2 H24 C24 N48"
_cell_length_a       8.20819
_cell_length_b       9.00765
_cell_length_c       20.46737
_cell_angle_alpha    90.00040999999999
_cell_angle_beta     90.00365
_cell_angle_gamma    90.71344

_symmetry_space_group_name_H-M    'P 1'
_symmetry_Int_Tables_number       1

loop_
  _symmetry_equiv_pos_as_xyz
  'x,y,z'

loop_
  _atom_site_type_symbol
  _atom_site_label
  _atom_site_symmetry_multiplicity
  _atom_site_fract_x
  _atom_site_fract_y
  _atom_site_fract_z
  _atom_site_occupancy
  Zn  Zn1       1.0  0.5  0.0  0.0  1.0000
  Zn  Zn2       1.0  0.0  0.5  0.5  1.0000
  H   H1        1.0  0.53366  0.20496  0.8654900000000001  1.0000
  H   H2        1.0  0.02157  0.16583000000000003  0.8448200000000001  1.0000
  H   H3        1.0  0.94798  0.32677  0.64487  1.0000
  H   H4        1.0  0.45638  0.37879  0.6736  1.0000
  H   H5        1.0  0.91198  0.13405  0.00098  1.0000
  H   H6        1.0  0.68009  0.5552600000000002  0.00264  1.0000
  H   H7        1.0  0.9662  0.29551000000000005  0.36535  1.0000
  H   H8        1.0  0.4783  0.33451  0.34467  1.0000
  H   H9        1.0  0.55197  0.17436  0.14463  1.0000
  H   H10       1.0  0.0438  0.12128  0.17356  1.0000
  H   H11       1.0  0.58758  0.36596  0.501  1.0000
  H   H12       1.0  0.81981  0.9449700000000001  0.50264  1.0000
  H   H13       1.0  0.46633  0.79504  0.13451  1.0000
  H   H14       1.0  0.9784199999999998  0.83416  0.15518  1.0000
  H   H15       1.0  0.05201  0.67322  0.35513  1.0000
  H   H16       1.0  0.54362  0.62121  0.3264  1.0000
  H   H17       1.0  0.08801  0.86594  0.99902  1.0000
  H   H18       1.0  0.3199  0.44473  0.99736  1.0000
  H   H19       1.0  0.03379  0.70448  0.63465  1.0000
  H   H20       1.0  0.52169  0.66548  0.65533  1.0000
  H   H21       1.0  0.44803  0.8256300000000002  0.85537  1.0000
  H   H22       1.0  0.95619  0.8787100000000002  0.82644  1.0000
  H   H23       1.0  0.41241  0.63403  0.499  1.0000
  H   H24       1.0  0.18019  0.05503  0.4973600000000001  1.0000
  C   C1        1.0  0.40759  0.17802  0.8757499999999999  1.0000
  C   C2        1.0  0.14245  0.15647  0.86504  1.0000
  C   C3        1.0  0.07452  0.3549900000000001  0.63627  1.0000
  C   C4        1.0  0.33783  0.38267  0.6509  1.0000
  C   C5        1.0  0.81849  0.21806  0.00215  1.0000
  C   C6        1.0  0.69887  0.4364800000000001  0.0031899999999999997  1.0000
  C   C7        1.0  0.09231  0.3221600000000001  0.37565  1.0000
  C   C8        1.0  0.35747  0.34353  0.36495  1.0000
  C   C9        1.0  0.4255  0.14572  0.1361  1.0000
  C   C10       1.0  0.16228  0.11754  0.1508  1.0000
  C   C11       1.0  0.68124  0.2821100000000001  0.50211  1.0000
  C   C12       1.0  0.80104  0.06376000000000002  0.50316  1.0000
  C   C13       1.0  0.5924  0.82198  0.12425000000000001  1.0000
  C   C14       1.0  0.85755  0.84352  0.13496  1.0000
  C   C15       1.0  0.92548  0.645  0.36373  1.0000
  C   C16       1.0  0.66217  0.61732  0.3491  1.0000
  C   C17       1.0  0.1815  0.7819400000000001  0.9978499999999999  1.0000
  C   C18       1.0  0.30113  0.56351  0.9968099999999999  1.0000
  C   C19       1.0  0.90768  0.6778400000000001  0.62435  1.0000
  C   C20       1.0  0.64253  0.65646  0.63505  1.0000
  C   C21       1.0  0.5745  0.8542700000000002  0.8639000000000001  1.0000
  C   C22       1.0  0.83772  0.8824600000000002  0.8491899999999999  1.0000
  C   C23       1.0  0.31875  0.7178900000000003  0.49789  1.0000
  C   C24       1.0  0.19896  0.9362400000000001  0.49684  1.0000
  N   N1        1.0  0.34835  0.11064000000000003  0.92826  1.0000
  N   N2        1.0  0.18176  0.09637000000000003  0.9219199999999999  1.0000
  N   N3        1.0  0.28208  0.20876000000000006  0.83397  1.0000
  N   N4        1.0  0.30773  0.2708  0.77349  1.0000
  N   N5        1.0  0.16766  0.27417  0.74211  1.0000
  N   N6        1.0  0.19596  0.33306000000000013  0.68104  1.0000
  N   N7        1.0  0.13846  0.4145900000000001  0.58278  1.0000
  N   N8        1.0  0.30389  0.43269000000000013  0.59162  1.0000
  N   N9        1.0  0.65854  0.19683000000000006  0.0038599999999999997  1.0000
  N   N10       1.0  0.58294  0.33372  0.0045  1.0000
  N   N11       1.0  0.84928  0.36842  0.0016  1.0000
  N   N12       1.0  0.00483  0.42802  0.9992699999999999  1.0000
  N   N13       1.0  0.15168  0.38904  0.42827  1.0000
  N   N14       1.0  0.31826  0.40323  0.42191  1.0000
  N   N15       1.0  0.21775  0.2916  0.33381  1.0000
  N   N16       1.0  0.192  0.23026  0.27319  1.0000
  N   N17       1.0  0.33206  0.22731000000000007  0.2418  1.0000
  N   N18       1.0  0.30396  0.16811  0.18078  1.0000
  N   N19       1.0  0.36171  0.08509000000000001  0.0828  1.0000
  N   N20       1.0  0.19637  0.06661  0.09169  1.0000
  N   N21       1.0  0.8412  0.30343  0.50373  1.0000
  N   N22       1.0  0.91689  0.16657  0.50438  1.0000
  N   N23       1.0  0.65057  0.13173  0.5016  1.0000
  N   N24       1.0  0.49507000000000007  0.07198  0.49928  1.0000
  N   N25       1.0  0.65165  0.88935  0.07174  1.0000
  N   N26       1.0  0.81823  0.9036200000000001  0.07808  1.0000
  N   N27       1.0  0.71792  0.79123  0.16603  1.0000
  N   N28       1.0  0.69227  0.72919  0.22651  1.0000
  N   N29       1.0  0.83233  0.72582  0.25789  1.0000
  N   N30       1.0  0.80404  0.66693  0.31896  1.0000
  N   N31       1.0  0.86153  0.5854  0.41722  1.0000
  N   N32       1.0  0.6961  0.5673  0.40838  1.0000
  N   N33       1.0  0.34145  0.80317  0.9961399999999999  1.0000
  N   N34       1.0  0.41705  0.66627  0.9955000000000002  1.0000
  N   N35       1.0  0.15071  0.63157  0.9984000000000001  1.0000
  N   N36       1.0  0.9951600000000002  0.57198  0.00073  1.0000
  N   N37       1.0  0.84832  0.61095  0.57173  1.0000
  N   N38       1.0  0.6817299999999998  0.59676  0.57809  1.0000
  N   N39       1.0  0.78225  0.7083900000000002  0.66619  1.0000
  N   N40       1.0  0.808  0.76973  0.72681  1.0000
  N   N41       1.0  0.66793  0.7726900000000002  0.7582  1.0000
  N   N42       1.0  0.69603  0.83189  0.8192199999999998  1.0000
  N   N43       1.0  0.63828  0.9149  0.9171999999999999  1.0000
  N   N44       1.0  0.80363  0.9333900000000002  0.9083099999999998  1.0000
  N   N45       1.0  0.1588  0.69656  0.49627  1.0000
  N   N46       1.0  0.0831  0.8334200000000002  0.49562  1.0000
  N   N47       1.0  0.34942  0.8682700000000002  0.4984  1.0000
  N   N48       1.0  0.50492  0.9280100000000001  0.50072  1.0000
