data_image0
_chemical_formula_structural       Zn6H6C24O18
_chemical_formula_sum              "Zn6 H6 C24 O18"
_cell_length_a       6.44904
_cell_length_b       15.29118
_cell_length_c       15.313280000000002
_cell_angle_alpha    118.15233
_cell_angle_beta     98.08438
_cell_angle_gamma    98.14121

_symmetry_space_group_name_H-M    'P 1'
_symmetry_Int_Tables_number       1

loop_
  _symmetry_equiv_pos_as_xyz
  'x,y,z'

loop_
  _atom_site_type_symbol
  _atom_site_label
  _atom_site_symmetry_multiplicity
  _atom_site_fract_x
  _atom_site_fract_y
  _atom_site_fract_z
  _atom_site_occupancy
  Zn  Zn1       1.0  0.04597000000000002  0.73361  0.41753  1.0000
  Zn  Zn2       1.0  0.31591  0.68415  0.26628  1.0000
  Zn  Zn3       1.0  0.6291999999999999  0.5791099999999998  0.31538  1.0000
  Zn  Zn4       1.0  0.95402  0.26639  0.58246  1.0000
  Zn  Zn5       1.0  0.6840900000000001  0.31584  0.73372  1.0000
  Zn  Zn6       1.0  0.3708000000000001  0.4208899999999999  0.68462  1.0000
  H   H1        1.0  0.88667  0.022960000000000064  0.56799  1.0000
  H   H2        1.0  0.86316  0.5449  0.97647  1.0000
  H   H3        1.0  0.31853999999999993  0.43217999999999995  0.45486  1.0000
  H   H4        1.0  0.11333  0.97704  0.43201  1.0000
  H   H5        1.0  0.13683  0.45509  0.02352  1.0000
  H   H6        1.0  0.68146  0.5678099999999998  0.5451299999999999  1.0000
  C   C1        1.0  0.71039  0.8317  0.43441  1.0000
  C   C2        1.0  0.59185  0.9144099999999998  0.46787  1.0000
  C   C3        1.0  0.36807999999999985  0.9001799999999996  0.42925999999999986  1.0000
  C   C4        1.0  0.7167  0.013200000000000019  0.53841  1.0000
  C   C5        1.0  0.8801100000000001  0.60195  0.16808999999999993  1.0000
  C   C6        1.0  0.67882  0.55291  0.08522  1.0000
  C   C7        1.0  0.46956  0.52855  0.09962999999999998  1.0000
  C   C8        1.0  0.7032799999999999  0.52518  0.98654  1.0000
  C   C9        1.0  0.27494  0.56536  0.39705  1.0000
  C   C10       1.0  0.12375999999999998  0.53202  0.44656999999999997  1.0000
  C   C11       1.0  0.93868  0.5703699999999998  0.4709299999999999  1.0000
  C   C12       1.0  0.1782999999999999  0.46171999999999985  0.4747599999999999  1.0000
  C   C13       1.0  0.2896000000000001  0.16829  0.56558  1.0000
  C   C14       1.0  0.40814  0.08558999999999999  0.53212  1.0000
  C   C15       1.0  0.63192  0.09981000000000001  0.57074  1.0000
  C   C16       1.0  0.28329999999999994  0.9867999999999999  0.46158  1.0000
  C   C17       1.0  0.11987999999999989  0.3980499999999999  0.8318999999999998  1.0000
  C   C18       1.0  0.32117  0.44708  0.91477  1.0000
  C   C19       1.0  0.53044  0.4714399999999999  0.9003699999999998  1.0000
  C   C20       1.0  0.29671  0.47481  0.01346  1.0000
  C   C21       1.0  0.72505  0.43463999999999997  0.60294  1.0000
  C   C22       1.0  0.87623  0.4679699999999999  0.55343  1.0000
  C   C23       1.0  0.061319999999999986  0.42961999999999995  0.52907  1.0000
  C   C24       1.0  0.82169  0.53827  0.52523  1.0000
  O   O1        1.0  0.89698  0.8485  0.48801  1.0000
  O   O2        1.0  0.63195  0.74644  0.34947  1.0000
  O   O3        1.0  0.2297499999999999  0.8075799999999999  0.3638299999999999  1.0000
  O   O4        1.0  0.051079999999999987  0.63822  0.15162  1.0000
  O   O5        1.0  0.8846100000000001  0.60265  0.25328999999999996  1.0000
  O   O6        1.0  0.42554999999999993  0.55573  0.19227999999999995  1.0000
  O   O7        1.0  0.40762000000000004  0.5115299999999998  0.3604  1.0000
  O   O8        1.0  0.28032  0.64994  0.39639  1.0000
  O   O9        1.0  0.86523  0.63532  0.44347  1.0000
  O   O10       1.0  0.10302000000000001  0.15150000000000002  0.51198  1.0000
  O   O11       1.0  0.36804000000000003  0.25356  0.65052  1.0000
  O   O12       1.0  0.77025  0.19241  0.6361699999999999  1.0000
  O   O13       1.0  0.94891  0.36176999999999987  0.84838  1.0000
  O   O14       1.0  0.11538999999999987  0.3973399999999998  0.7467099999999998  1.0000
  O   O15       1.0  0.57445  0.4442699999999999  0.8077199999999999  1.0000
  O   O16       1.0  0.59238  0.48845999999999984  0.63959  1.0000
  O   O17       1.0  0.7196700000000003  0.3500599999999999  0.6036099999999999  1.0000
  O   O18       1.0  0.13476  0.36467  0.55652  1.0000
