data_image0
_chemical_formula_structural       Cd4H32C24N24Cl4
_chemical_formula_sum              "Cd4 H32 C24 N24 Cl4"
_cell_length_a       7.77878
_cell_length_b       14.25784
_cell_length_c       18.0079
_cell_angle_alpha    90.01318
_cell_angle_beta     90.0
_cell_angle_gamma    90.0

_symmetry_space_group_name_H-M    'P 1'
_symmetry_Int_Tables_number       1

loop_
  _symmetry_equiv_pos_as_xyz
  'x,y,z'

loop_
  _atom_site_type_symbol
  _atom_site_label
  _atom_site_symmetry_multiplicity
  _atom_site_fract_x
  _atom_site_fract_y
  _atom_site_fract_z
  _atom_site_occupancy
  Cd  Cd1       1.0  0.5  0.4999999999999999  0.5  1.0000
  Cd  Cd2       1.0  0.5  0.0  0.0  1.0000
  Cd  Cd3       1.0  0.0  0.4999999999999999  0.5  1.0000
  Cd  Cd4       1.0  0.0  0.0  0.0  1.0000
  H   H1        1.0  0.3638  0.16187  0.69565  1.0000
  H   H2        1.0  0.3639700000000001  0.30580999999999997  0.77672  1.0000
  H   H3        1.0  0.52439  0.30418  0.61989  1.0000
  H   H4        1.0  0.52429  0.16911999999999994  0.85667  1.0000
  H   H5        1.0  0.63619  0.66189  0.80436  1.0000
  H   H6        1.0  0.63603  0.8058599999999998  0.72334  1.0000
  H   H7        1.0  0.47547  0.8041599999999998  0.88022  1.0000
  H   H8        1.0  0.4755700000000001  0.66934  0.6431800000000001  1.0000
  H   H9        1.0  0.86379  0.83813  0.30435  1.0000
  H   H10       1.0  0.86397  0.69419  0.22328  1.0000
  H   H11       1.0  0.0244  0.6958199999999998  0.38011  1.0000
  H   H12       1.0  0.02429  0.8308799999999997  0.14333  1.0000
  H   H13       1.0  0.13619  0.33811  0.19564  1.0000
  H   H14       1.0  0.13603000000000007  0.19414  0.27666  1.0000
  H   H15       1.0  0.97547  0.19584  0.11977999999999998  1.0000
  H   H16       1.0  0.9755700000000003  0.33066  0.35682  1.0000
  H   H17       1.0  0.6362000000000002  0.83813  0.30435  1.0000
  H   H18       1.0  0.63602  0.69419  0.22328  1.0000
  H   H19       1.0  0.4756  0.6958199999999998  0.38011  1.0000
  H   H20       1.0  0.47571  0.8308799999999997  0.14333  1.0000
  H   H21       1.0  0.36381  0.33811  0.19564  1.0000
  H   H22       1.0  0.3639600000000001  0.19414  0.27666  1.0000
  H   H23       1.0  0.52453  0.19584  0.11977999999999998  1.0000
  H   H24       1.0  0.5244200000000002  0.33066  0.35682  1.0000
  H   H25       1.0  0.1362  0.16187  0.69565  1.0000
  H   H26       1.0  0.13603000000000007  0.30580999999999997  0.77672  1.0000
  H   H27       1.0  0.9756  0.30418  0.61989  1.0000
  H   H28       1.0  0.97571  0.16913  0.85667  1.0000
  H   H29       1.0  0.86381  0.66189  0.80436  1.0000
  H   H30       1.0  0.86396  0.8058599999999998  0.72334  1.0000
  H   H31       1.0  0.024530000000000007  0.8041599999999998  0.88022  1.0000
  H   H32       1.0  0.02443  0.66934  0.6431800000000001  1.0000
  C   C1        1.0  0.39184  0.3265099999999999  0.61611  1.0000
  C   C2        1.0  0.3917600000000001  0.14827999999999994  0.86398  1.0000
  C   C3        1.0  0.60809  0.82637  0.8840500000000001  1.0000
  C   C4        1.0  0.60819  0.6486499999999998  0.63582  1.0000
  C   C5        1.0  0.89184  0.67349  0.38389  1.0000
  C   C6        1.0  0.89175  0.85172  0.13602  1.0000
  C   C7        1.0  0.10809000000000003  0.17362999999999998  0.11595  1.0000
  C   C8        1.0  0.10819  0.3513499999999999  0.36418  1.0000
  C   C9        1.0  0.60815  0.67349  0.38389  1.0000
  C   C10       1.0  0.60824  0.85172  0.13602  1.0000
  C   C11       1.0  0.39191  0.17362999999999998  0.11595  1.0000
  C   C12       1.0  0.39181  0.3513499999999999  0.36418  1.0000
  C   C13       1.0  0.10816  0.3265099999999999  0.61611  1.0000
  C   C14       1.0  0.10824  0.14827999999999994  0.86398  1.0000
  C   C15       1.0  0.8919  0.82637  0.8840500000000001  1.0000
  C   C16       1.0  0.8918000000000003  0.6486499999999998  0.63582  1.0000
  C   C17       1.0  0.25  0.20729999999999996  0.69878  1.0000
  C   C18       1.0  0.25  0.26033  0.7744  1.0000
  C   C19       1.0  0.75  0.7073099999999998  0.80118  1.0000
  C   C20       1.0  0.75  0.76038  0.72564  1.0000
  C   C21       1.0  0.75  0.7927  0.30122  1.0000
  C   C22       1.0  0.75  0.7396699999999998  0.22561  1.0000
  C   C23       1.0  0.25  0.2926899999999999  0.19882  1.0000
  C   C24       1.0  0.25  0.23962  0.27436  1.0000
  N   N1        1.0  0.3377  0.40355999999999986  0.58109  1.0000
  N   N2        1.0  0.33772  0.07866  0.90754  1.0000
  N   N3        1.0  0.6623100000000002  0.9033899999999998  0.9191100000000001  1.0000
  N   N4        1.0  0.66229  0.57912  0.59215  1.0000
  N   N5        1.0  0.8377  0.59644  0.41891  1.0000
  N   N6        1.0  0.83772  0.9213399999999999  0.09246  1.0000
  N   N7        1.0  0.16231  0.09661  0.08089000000000002  1.0000
  N   N8        1.0  0.16229  0.42087999999999987  0.40785  1.0000
  N   N9        1.0  0.6623000000000002  0.59644  0.41891  1.0000
  N   N10       1.0  0.66228  0.9213399999999999  0.09246  1.0000
  N   N11       1.0  0.33769  0.09661  0.08089000000000002  1.0000
  N   N12       1.0  0.33771  0.42087999999999987  0.40785  1.0000
  N   N13       1.0  0.1623  0.40355999999999986  0.58109  1.0000
  N   N14       1.0  0.16228  0.07866  0.90754  1.0000
  N   N15       1.0  0.8376800000000002  0.9033899999999998  0.9191100000000001  1.0000
  N   N16       1.0  0.83771  0.57912  0.59215  1.0000
  N   N17       1.0  0.25  0.27144  0.63681  1.0000
  N   N18       1.0  0.25  0.19766  0.83673  1.0000
  N   N19       1.0  0.75  0.7714999999999997  0.8630900000000001  1.0000
  N   N20       1.0  0.75  0.6977999999999998  0.6632700000000001  1.0000
  N   N21       1.0  0.75  0.7285599999999998  0.36319000000000007  1.0000
  N   N22       1.0  0.75  0.80234  0.16327  1.0000
  N   N23       1.0  0.25  0.2285  0.13691  1.0000
  N   N24       1.0  0.25  0.3021999999999999  0.33673  1.0000
  Cl  Cl1       1.0  0.25  0.6298999999999998  0.50821  1.0000
  Cl  Cl2       1.0  0.75  0.12988999999999995  0.99166  1.0000
  Cl  Cl3       1.0  0.75  0.3701  0.49179  1.0000
  Cl  Cl4       1.0  0.25  0.87011  0.00834  1.0000
