data_image0
_chemical_formula_structural       Co2H8C12O8
_chemical_formula_sum              "Co2 H8 C12 O8"
_cell_length_a       5.63386
_cell_length_b       7.63679
_cell_length_c       10.73283
_cell_angle_alpha    106.37185
_cell_angle_beta     107.12105
_cell_angle_gamma    89.42495

_space_group_name_H-M_alt    "P 1"
_space_group_IT_number       1

loop_
  _space_group_symop_operation_xyz
  'x, y, z'

loop_
  _atom_site_type_symbol
  _atom_site_label
  _atom_site_symmetry_multiplicity
  _atom_site_fract_x
  _atom_site_fract_y
  _atom_site_fract_z
  _atom_site_occupancy
  Co  Co1       1.0  0.50334  0.9936699999999999  0.49816  1.0000
  Co  Co2       1.0  0.0029799999999999944  0.50399  0.5009  1.0000
  H   H1        1.0  0.32759  0.00588999999999999  0.18871  1.0000
  H   H2        1.0  0.81264  0.12346999999999995  0.05985999999999999  1.0000
  H   H3        1.0  0.15010999999999988  0.5076999999999999  0.8211399999999999  1.0000
  H   H4        1.0  0.75423  0.37930999999999987  0.92528  1.0000
  H   H5        1.0  0.6672799999999998  0.9912699999999995  0.8037799999999999  1.0000
  H   H6        1.0  0.18559  0.87875  0.9418  1.0000
  H   H7        1.0  0.8521499999999999  0.49810999999999983  0.18554999999999996  1.0000
  H   H8        1.0  0.24668999999999996  0.61984  0.0764  1.0000
  C   C1        1.0  0.13535  0.17731999999999995  0.32013  1.0000
  C   C2        1.0  0.15986999999999996  0.07679000000000001  0.18582  1.0000
  C   C3        1.0  0.9852999999999998  0.055579999999999984  0.0654  1.0000
  C   C4        1.0  0.8253999999999999  0.3239  0.685  1.0000
  C   C5        1.0  0.98729  0.4314799999999999  0.8196199999999999  1.0000
  C   C6        1.0  0.9271299999999999  0.44883999999999996  0.9335899999999999  1.0000
  C   C7        1.0  0.8839599999999999  0.8169999999999996  0.68613  1.0000
  C   C8        1.0  0.84336  0.92765  0.81475  1.0000
  C   C9        1.0  0.01261000000000002  0.9458899999999998  0.93787  1.0000
  C   C10       1.0  0.18384999999999993  0.6806499999999998  0.31488999999999995  1.0000
  C   C11       1.0  0.01601999999999998  0.56873  0.1841  1.0000
  C   C12       1.0  0.07137  0.55409  0.06725  1.0000
  O   O1        1.0  0.27514  0.15651  0.43278  1.0000
  O   O2        1.0  0.97267  0.29485  0.32362  1.0000
  O   O3        1.0  0.83623  0.35672  0.57534  1.0000
  O   O4        1.0  0.6759799999999998  0.19689  0.68167  1.0000
  O   O5        1.0  0.72282  0.8127399999999998  0.57057  1.0000
  O   O6        1.0  0.07108999999999986  0.7197899999999999  0.6887599999999999  1.0000
  O   O7        1.0  0.16782999999999998  0.66256  0.42745999999999995  1.0000
  O   O8        1.0  0.33919  0.7997899999999998  0.31268  1.0000
