data_image0
_chemical_formula_structural       Cu8H12C32S4O32
_chemical_formula_sum              "Cu8 H12 C32 S4 O32"
_cell_length_a       7.67108
_cell_length_b       9.94615
_cell_length_c       18.461290000000005
_cell_angle_alpha    90.02248
_cell_angle_beta     90.02981
_cell_angle_gamma    99.86645

_space_group_name_H-M_alt    "P 1"
_space_group_IT_number       1

loop_
  _space_group_symop_operation_xyz
  'x, y, z'

loop_
  _atom_site_type_symbol
  _atom_site_label
  _atom_site_symmetry_multiplicity
  _atom_site_fract_x
  _atom_site_fract_y
  _atom_site_fract_z
  _atom_site_occupancy
  Cu  Cu1       1.0  0.5311600000000002  0.9338199999999999  0.93176  1.0000
  Cu  Cu2       1.0  0.79383  0.67965  0.58031  1.0000
  Cu  Cu3       1.0  0.9423399999999998  0.55392  0.42915  1.0000
  Cu  Cu4       1.0  0.6986400000000003  0.81805  0.08011  1.0000
  Cu  Cu5       1.0  0.44404  0.05464999999999999  0.06994  1.0000
  Cu  Cu6       1.0  0.19812  0.31686  0.41814000000000007  1.0000
  Cu  Cu7       1.0  0.025730000000000003  0.43044  0.5668000000000001  1.0000
  Cu  Cu8       1.0  0.29919  0.18165  0.91861  1.0000
  H   H1        1.0  0.45595  0.8096599999999999  0.71622  1.0000
  H   H2        1.0  0.27685  0.19619999999999999  0.70131  1.0000
  H   H3        1.0  0.2867  0.94797  0.5101900000000001  1.0000
  H   H4        1.0  0.05206999999999995  0.6959599999999998  0.21546  1.0000
  H   H5        1.0  0.22223999999999997  0.30661999999999995  0.20011  1.0000
  H   H6        1.0  0.21673000000000006  0.55474  0.00895  1.0000
  H   H7        1.0  0.55304  0.19422  0.283  1.0000
  H   H8        1.0  0.72442  0.8054  0.29995  1.0000
  H   H9        1.0  0.7141300000000003  0.05474999999999999  0.49046000000000006  1.0000
  H   H10       1.0  0.95671  0.3109  0.7829200000000001  1.0000
  H   H11       1.0  0.7768300000000002  0.69718  0.7973500000000001  1.0000
  H   H12       1.0  0.78718  0.44949  0.98867  1.0000
  C   C1        1.0  0.40645  0.8864499999999998  0.68392  1.0000
  C   C2        1.0  0.27669  0.08442  0.60115  1.0000
  C   C3        1.0  0.37373  0.86652  0.60985  1.0000
  C   C4        1.0  0.30583  0.10433  0.6755500000000001  1.0000
  C   C5        1.0  0.37197000000000013  0.005919999999999999  0.7168  1.0000
  C   C6        1.0  0.39659  0.02606  0.79679  1.0000
  C   C7        1.0  0.31092  0.96464  0.5678  1.0000
  C   C8        1.0  0.20602  0.19038999999999998  0.55772  1.0000
  C   C9        1.0  0.10005000000000003  0.61835  0.18323  1.0000
  C   C10       1.0  0.22445000000000004  0.41829  0.10011  1.0000
  C   C11       1.0  0.13228  0.63709  0.10903  1.0000
  C   C12       1.0  0.19567  0.39933  0.17455  1.0000
  C   C13       1.0  0.13250000000000006  0.49855  0.21605000000000002  1.0000
  C   C14       1.0  0.10516999999999999  0.47819999999999996  0.29583  1.0000
  C   C15       1.0  0.19328  0.53856  0.06664  1.0000
  C   C16       1.0  0.28841999999999995  0.30801999999999996  0.05775  1.0000
  C   C17       1.0  0.60084  0.11697  0.31553  1.0000
  C   C18       1.0  0.72424  0.9179399999999999  0.39956  1.0000
  C   C19       1.0  0.63155  0.1363  0.3898  1.0000
  C   C20       1.0  0.6969500000000002  0.89835  0.32500000000000007  1.0000
  C   C21       1.0  0.63448  0.99725  0.28296000000000004  1.0000
  C   C22       1.0  0.60851  0.9774799999999999  0.20298  1.0000
  C   C23       1.0  0.69217  0.03831  0.43267  1.0000
  C   C24       1.0  0.78734  0.80803  0.44245  1.0000
  C   C25       1.0  0.9071799999999999  0.38794  0.81504  1.0000
  C   C26       1.0  0.77675  0.5859499999999999  0.8975700000000001  1.0000
  C   C27       1.0  0.8747100000000001  0.36856  0.88911  1.0000
  C   C28       1.0  0.8056800000000002  0.60535  0.82315  1.0000
  C   C29       1.0  0.8718400000000002  0.50681  0.78198  1.0000
  C   C30       1.0  0.8957900000000002  0.52609  0.70195  1.0000
  C   C31       1.0  0.81128  0.46641  0.9310800000000001  1.0000
  C   C32       1.0  0.7070400000000002  0.69271  0.94068  1.0000
  S   S1        1.0  0.38841  0.7034699999999999  0.57239  1.0000
  S   S2        1.0  0.11107  0.79818  0.0723  1.0000
  S   S3        1.0  0.60875  0.2975499999999999  0.42600000000000005  1.0000
  S   S4        1.0  0.89196  0.20598  0.92605  1.0000
  O   O1        1.0  0.54465  0.6604  0.61128  1.0000
  O   O2        1.0  0.19922  0.17385999999999996  0.4888700000000001  1.0000
  O   O3        1.0  0.4076400000000001  0.71455  0.49404  1.0000
  O   O4        1.0  0.3674200000000001  0.13979  0.8217500000000001  1.0000
  O   O5        1.0  0.37527  0.04155  0.96802  1.0000
  O   O6        1.0  0.15758  0.28711  0.59371  1.0000
  O   O7        1.0  0.44146000000000013  0.92716  0.83256  1.0000
  O   O8        1.0  0.22605  0.61687  0.60005  1.0000
  O   O9        1.0  0.9503600000000002  0.83439  0.10912  1.0000
  O   O10       1.0  0.3085700000000001  0.32618  0.98925  1.0000
  O   O11       1.0  0.10718  0.79241  0.99364  1.0000
  O   O12       1.0  0.14118  0.36612999999999996  0.32089  1.0000
  O   O13       1.0  0.09324  0.43983  0.46948  1.0000
  O   O14       1.0  0.31886  0.20614999999999997  0.09419000000000001  1.0000
  O   O15       1.0  0.05128  0.57309  0.33108  1.0000
  O   O16       1.0  0.2670800000000001  0.8889899999999998  0.10581  1.0000
  O   O17       1.0  0.4486100000000002  0.33382  0.3886200000000001  1.0000
  O   O18       1.0  0.8070600000000002  0.82641  0.51094  1.0000
  O   O19       1.0  0.6019900000000002  0.2923  0.50465  1.0000
  O   O20       1.0  0.6420600000000001  0.86477  0.17779  1.0000
  O   O21       1.0  0.60051  0.9454899999999999  0.02893  1.0000
  O   O22       1.0  0.8173600000000002  0.70563  0.40647  1.0000
  O   O23       1.0  0.55793  0.07338  0.16739  1.0000
  O   O24       1.0  0.76474  0.38803  0.39258  1.0000
  O   O25       1.0  0.05019000000000001  0.16656  0.8870800000000001  1.0000
  O   O26       1.0  0.69287  0.67407  0.00929  1.0000
  O   O27       1.0  0.9087799999999999  0.21546999999999997  0.0045  1.0000
  O   O28       1.0  0.86657  0.6396199999999999  0.6767700000000001  1.0000
  O   O29       1.0  0.87374  0.5414299999999999  0.53072  1.0000
  O   O30       1.0  0.66637  0.79259  0.9048200000000001  1.0000
  O   O31       1.0  0.94016  0.42688  0.6662900000000002  1.0000
  O   O32       1.0  0.7315  0.11811  0.8975100000000001  1.0000
