data_image0
_chemical_formula_structural       Gd2P2H24C42O14
_chemical_formula_sum              "Gd2 P2 H24 C42 O14"
_cell_length_a       10.68566
_cell_length_b       12.015230000000003
_cell_length_c       14.479679999999998
_cell_angle_alpha    73.51419
_cell_angle_beta     74.40020999999999
_cell_angle_gamma    68.30706000000002

_symmetry_space_group_name_H-M    'P 1'
_symmetry_Int_Tables_number       1

loop_
  _symmetry_equiv_pos_as_xyz
  'x,y,z'

loop_
  _atom_site_type_symbol
  _atom_site_label
  _atom_site_symmetry_multiplicity
  _atom_site_fract_x
  _atom_site_fract_y
  _atom_site_fract_z
  _atom_site_occupancy
  Gd  Gd1       1.0  0.98845  0.46692000000000006  0.3706900000000001  1.0000
  Gd  Gd2       1.0  0.011539999999999955  0.53308  0.6293100000000001  1.0000
  P   P1        1.0  0.8633999999999998  0.27738  0.27362  1.0000
  P   P2        1.0  0.13658999999999988  0.72262  0.72638  1.0000
  H   H1        1.0  0.49330999999999997  0.37212999999999996  0.5537300000000003  1.0000
  H   H2        1.0  0.05671  0.10565999999999999  0.3906800000000001  1.0000
  H   H3        1.0  0.7360599999999996  0.3245  0.4645200000000001  1.0000
  H   H4        1.0  0.04447000000000001  0.17022  0.11175  1.0000
  H   H5        1.0  0.3618299999999999  0.37322000000000005  0.29724  1.0000
  H   H6        1.0  0.60318  0.3236899999999999  0.20811000000000004  1.0000
  H   H7        1.0  0.8008399999999999  0.09035999999999997  0.21247000000000005  1.0000
  H   H8        1.0  0.7504000000000002  0.5821699999999999  0.9699300000000002  1.0000
  H   H9        1.0  0.08472999999999989  0.25453999999999993  0.9310900000000002  1.0000
  H   H10       1.0  0.12044  0.87844  0.44883  1.0000
  H   H11       1.0  0.8721900000000001  0.86262  0.26669000000000004  1.0000
  H   H12       1.0  0.7165  0.50569  0.15163000000000004  1.0000
  H   H13       1.0  0.5066799999999998  0.62787  0.4462700000000001  1.0000
  H   H14       1.0  0.9432900000000001  0.89435  0.60932  1.0000
  H   H15       1.0  0.26393  0.67551  0.53548  1.0000
  H   H16       1.0  0.95552  0.8297800000000001  0.8882500000000002  1.0000
  H   H17       1.0  0.6381699999999998  0.6267900000000001  0.7027600000000003  1.0000
  H   H18       1.0  0.39680999999999994  0.6763100000000002  0.79189  1.0000
  H   H19       1.0  0.19914999999999985  0.9096500000000001  0.78753  1.0000
  H   H20       1.0  0.24958999999999998  0.4178300000000001  0.030070000000000006  1.0000
  H   H21       1.0  0.9152599999999999  0.74546  0.06891  1.0000
  H   H22       1.0  0.8795499999999998  0.12155999999999997  0.5511700000000002  1.0000
  H   H23       1.0  0.12780999999999995  0.13738000000000006  0.73331  1.0000
  H   H24       1.0  0.28348999999999996  0.49430999999999997  0.8483700000000002  1.0000
  C   C1        1.0  0.8767799999999998  0.3320400000000001  0.14326000000000003  1.0000
  C   C2        1.0  0.51925  0.36013  0.4784600000000001  1.0000
  C   C3        1.0  0.92447  0.11209000000000001  0.29873  1.0000
  C   C4        1.0  0.68498  0.31989999999999996  0.3308800000000001  1.0000
  C   C5        1.0  0.016960000000000006  0.05193000000000001  0.36372  1.0000
  C   C6        1.0  0.65449  0.33327000000000007  0.4286400000000001  1.0000
  C   C7        1.0  0.41363999999999995  0.37398  0.43158  1.0000
  C   C8        1.0  0.98105  0.2608  0.08111  1.0000
  C   C9        1.0  0.44417000000000006  0.36035000000000006  0.33404  1.0000
  C   C10       1.0  0.57964  0.33298  0.28399  1.0000
  C   C11       1.0  0.87251  0.04406000000000001  0.26293  1.0000
  C   C12       1.0  0.9191900000000001  0.42184  0.9405100000000002  1.0000
  C   C13       1.0  0.9481199999999996  0.46642  0.8317700000000002  1.0000
  C   C14       1.0  0.81427  0.49265  0.0020800000000000003  1.0000
  C   C15       1.0  0.00305999999999996  0.3066199999999999  0.9805900000000002  1.0000
  C   C16       1.0  0.99863  0.8572300000000002  0.36206  1.0000
  C   C17       1.0  0.05252000000000003  0.92513  0.39589  1.0000
  C   C18       1.0  0.9112899999999998  0.91708  0.29334  1.0000
  C   C19       1.0  0.025769999999999887  0.7222500000000002  0.40282  1.0000
  C   C20       1.0  0.2685399999999998  0.4078900000000001  0.4853400000000001  1.0000
  C   C21       1.0  0.7946399999999999  0.44909  0.10339  1.0000
  C   C22       1.0  0.12320999999999993  0.66797  0.8567400000000002  1.0000
  C   C23       1.0  0.48075  0.63988  0.52154  1.0000
  C   C24       1.0  0.07551999999999987  0.8879200000000003  0.70127  1.0000
  C   C25       1.0  0.31501  0.6800999999999999  0.6691200000000002  1.0000
  C   C26       1.0  0.9830300000000001  0.9480699999999999  0.6362800000000001  1.0000
  C   C27       1.0  0.3455000000000001  0.66674  0.57136  1.0000
  C   C28       1.0  0.5863600000000002  0.62602  0.56842  1.0000
  C   C29       1.0  0.018939999999999957  0.7392  0.9188900000000001  1.0000
  C   C30       1.0  0.5558199999999999  0.6396500000000002  0.66596  1.0000
  C   C31       1.0  0.42034999999999983  0.6670200000000001  0.7160100000000003  1.0000
  C   C32       1.0  0.1274799999999999  0.95594  0.73707  1.0000
  C   C33       1.0  0.08080000000000001  0.57816  0.05949000000000001  1.0000
  C   C34       1.0  0.05188000000000001  0.53358  0.16823000000000002  1.0000
  C   C35       1.0  0.18571999999999989  0.50736  0.9979200000000001  1.0000
  C   C36       1.0  0.9969399999999999  0.6933900000000001  0.01942  1.0000
  C   C37       1.0  0.0013599999999999765  0.14277000000000004  0.63794  1.0000
  C   C38       1.0  0.94747  0.07487000000000002  0.60411  1.0000
  C   C39       1.0  0.0887  0.08292000000000006  0.70666  1.0000
  C   C40       1.0  0.97422  0.2777600000000001  0.59718  1.0000
  C   C41       1.0  0.7314499999999999  0.5921099999999999  0.51466  1.0000
  C   C42       1.0  0.20534999999999984  0.55091  0.8966100000000002  1.0000
  O   O1        1.0  0.07060999999999996  0.42362  0.78689  1.0000
  O   O2        1.0  0.24421  0.43281000000000003  0.56938  1.0000
  O   O3        1.0  0.06308000000000002  0.67976  0.4859400000000001  1.0000
  O   O4        1.0  0.8525099999999998  0.5436899999999999  0.7868400000000002  1.0000
  O   O5        1.0  0.005589999999999965  0.66147  0.35254000000000013  1.0000
  O   O6        1.0  0.17435999999999993  0.41185  0.4442000000000001  1.0000
  O   O7        1.0  0.94427  0.32143  0.3188700000000001  1.0000
  O   O8        1.0  0.9293899999999999  0.57639  0.21311  1.0000
  O   O9        1.0  0.75578  0.5672  0.43063  1.0000
  O   O10       1.0  0.93691  0.32025  0.51406  1.0000
  O   O11       1.0  0.14748999999999993  0.45631000000000005  0.21316000000000004  1.0000
  O   O12       1.0  0.9944000000000001  0.33853  0.64746  1.0000
  O   O13       1.0  0.82563  0.5881499999999998  0.5558  1.0000
  O   O14       1.0  0.05571999999999992  0.67857  0.6811300000000002  1.0000
