data_image0
_chemical_formula_structural       Zn2H36C28N8
_chemical_formula_sum              "Zn2 H36 C28 N8"
_cell_length_a       7.11081
_cell_length_b       8.18496
_cell_length_c       22.00048
_cell_angle_alpha    83.56191
_cell_angle_beta     75.95988
_cell_angle_gamma    61.63077

_space_group_name_H-M_alt    "P 1"
_space_group_IT_number       1

loop_
  _space_group_symop_operation_xyz
  'x, y, z'

loop_
  _atom_site_type_symbol
  _atom_site_label
  _atom_site_symmetry_multiplicity
  _atom_site_fract_x
  _atom_site_fract_y
  _atom_site_fract_z
  _atom_site_occupancy
  Zn  Zn1       1.0  0.40585999999999994  0.05741  0.99141  1.0000
  Zn  Zn2       1.0  0.4043399999999999  0.98804  0.47703000000000007  1.0000
  H   H1        1.0  0.5179599999999999  0.85681  0.12356000000000002  1.0000
  H   H2        1.0  0.6662800000000002  0.71382  0.18015000000000003  1.0000
  H   H3        1.0  0.9803499999999999  0.53947  0.08264  1.0000
  H   H4        1.0  0.74654  0.50186  0.10056000000000001  1.0000
  H   H5        1.0  0.06689000000000009  0.49521  0.96915  1.0000
  H   H6        1.0  0.8782100000000004  0.66017  0.92606  1.0000
  H   H7        1.0  0.009770000000000003  0.21246  0.01652  1.0000
  H   H8        1.0  0.8677  0.99852  0.00149  1.0000
  H   H9        1.0  0.5994499999999999  0.60718  0.8974500000000001  1.0000
  H   H10       1.0  0.47049  0.37668  0.88795  1.0000
  H   H11       1.0  0.5189  0.14118999999999995  0.12473000000000002  1.0000
  H   H12       1.0  0.7561599999999998  0.14904  0.13387  1.0000
  H   H13       1.0  0.26770999999999995  0.09629  0.21874  1.0000
  H   H14       1.0  0.17439999999999997  0.06845  0.33584  1.0000
  H   H15       1.0  0.87406  0.061649999999999996  0.23811  1.0000
  H   H16       1.0  0.7529899999999999  0.03936  0.35436  1.0000
  H   H17       1.0  0.9348499999999998  0.81965  0.13859  1.0000
  H   H18       1.0  0.60319  0.73737  0.02287  1.0000
  H   H19       1.0  0.37614000000000003  0.15144  0.62335  1.0000
  H   H20       1.0  0.37723999999999985  0.28593999999999997  0.68102  1.0000
  H   H21       1.0  0.52037  0.45441  0.58881  1.0000
  H   H22       1.0  0.24619000000000002  0.49609999999999993  0.59895  1.0000
  H   H23       1.0  0.56948  0.50723  0.47170000000000006  1.0000
  H   H24       1.0  0.5672499999999999  0.34207  0.4270900000000001  1.0000
  H   H25       1.0  0.20466000000000004  0.79066  0.51692  1.0000
  H   H26       1.0  0.8300999999999998  0.001840000000000001  0.50146  1.0000
  H   H27       1.0  0.22536999999999993  0.38509  0.40168000000000004  1.0000
  H   H28       1.0  0.85093  0.61864  0.38831  1.0000
  H   H29       1.0  0.66562  0.85399  0.63156  1.0000
  H   H30       1.0  0.92018  0.82782  0.63952  1.0000
  H   H31       1.0  0.3468499999999999  0.94951  0.72553  1.0000
  H   H32       1.0  0.22823  0.98194  0.84238  1.0000
  H   H33       1.0  0.96623  0.88968  0.74312  1.0000
  H   H34       1.0  0.8224400000000001  0.9244799999999997  0.85917  1.0000
  H   H35       1.0  0.7721899999999996  0.15592  0.63916  1.0000
  H   H36       1.0  0.39840000000000003  0.24247  0.52053  1.0000
  C   C1        1.0  0.68432  0.76812  0.13194000000000003  1.0000
  C   C2        1.0  0.8033800000000001  0.60736  0.08438  1.0000
  C   C3        1.0  0.8931799999999999  0.5665099999999997  0.96656  1.0000
  C   C4        1.0  0.8190600000000001  0.4286599999999999  0.95715  1.0000
  C   C5        1.0  0.88949  0.25612  0.98722  1.0000
  C   C6        1.0  0.8129199999999999  0.13422  0.9788200000000002  1.0000
  C   C7        1.0  0.6637799999999998  0.47347  0.92066  1.0000
  C   C8        1.0  0.5917099999999996  0.34555  0.9155700000000001  1.0000
  C   C9        1.0  0.65943  0.07326  0.14762  1.0000
  C   C10       1.0  0.58142  0.07844999999999999  0.21831  1.0000
  C   C11       1.0  0.38072  0.08263  0.24698  1.0000
  C   C12       1.0  0.32797  0.06819  0.3121900000000001  1.0000
  C   C13       1.0  0.71699  0.06445  0.25766  1.0000
  C   C14       1.0  0.6505199999999999  0.05292  0.32236  1.0000
  C   C15       1.0  0.45738  0.22870999999999994  0.63315  1.0000
  C   C16       1.0  0.41968999999999984  0.38802  0.58586  1.0000
  C   C17       1.0  0.47707  0.43337999999999993  0.46846  1.0000
  C   C18       1.0  0.2501899999999999  0.56961  0.45948  1.0000
  C   C19       1.0  0.13262000000000002  0.74467  0.48823  1.0000
  C   C20       1.0  0.9232299999999999  0.86554  0.47916  1.0000
  C   C21       1.0  0.14400000000000002  0.52156  0.42373  1.0000
  C   C22       1.0  0.9345199999999994  0.65061  0.41712000000000005  1.0000
  C   C23       1.0  0.7421400000000001  0.91529  0.65312  1.0000
  C   C24       1.0  0.6677000000000001  0.9179099999999998  0.72394  1.0000
  C   C25       1.0  0.45824000000000004  0.9425899999999999  0.75331  1.0000
  C   C26       1.0  0.39168000000000003  0.96012  0.81855  1.0000
  C   C27       1.0  0.8019599999999996  0.90898  0.7630900000000002  1.0000
  C   C28       1.0  0.7231899999999998  0.9263999999999998  0.8278300000000001  1.0000
  N   N1        1.0  0.7944499999999999  0.88477  0.122  1.0000
  N   N2        1.0  0.76552  0.68313  0.02273  1.0000
  N   N3        1.0  0.45964  0.05295  0.34949  1.0000
  N   N4        1.0  0.6643500000000001  0.17799  0.94346  1.0000
  N   N5        1.0  0.69038  0.09784  0.62525  1.0000
  N   N6        1.0  0.4848800000000002  0.3115  0.52317  1.0000
  N   N7        1.0  0.5210499999999999  0.9519799999999999  0.85579  1.0000
  N   N8        1.0  0.8248299999999998  0.82109  0.44324  1.0000
