data_image0
_chemical_formula_structural       Tb4H16C48O24
_chemical_formula_sum              "Tb4 H16 C48 O24"
_cell_length_a       8.74532
_cell_length_b       9.374429999999998
_cell_length_c       18.83369
_cell_angle_alpha    89.99474
_cell_angle_beta     90.00045
_cell_angle_gamma    109.17667999999999

_symmetry_space_group_name_H-M    'P 1'
_symmetry_Int_Tables_number       1

loop_
  _symmetry_equiv_pos_as_xyz
  'x,y,z'

loop_
  _atom_site_type_symbol
  _atom_site_label
  _atom_site_symmetry_multiplicity
  _atom_site_fract_x
  _atom_site_fract_y
  _atom_site_fract_z
  _atom_site_occupancy
  Tb  Tb1       1.0  0.2005  0.49668  0.4431399999999999  1.0000
  Tb  Tb2       1.0  0.79929  0.5028100000000001  0.5575799999999999  1.0000
  Tb  Tb3       1.0  0.19695000000000001  0.9941900000000001  0.05806  1.0000
  Tb  Tb4       1.0  0.8000800000000001  0.00599  0.9410699999999999  1.0000
  H   H1        1.0  0.7841100000000002  0.06359000000000002  0.43556  1.0000
  H   H2        1.0  0.56869  0.56698  0.29056  1.0000
  H   H3        1.0  0.74027  0.66374  0.18352  1.0000
  H   H4        1.0  0.4315899999999999  0.9332699999999999  0.7904899999999998  1.0000
  H   H5        1.0  0.7841  0.5627  0.06417  1.0000
  H   H6        1.0  0.25969  0.83595  0.6836599999999999  1.0000
  H   H7        1.0  0.5675  0.06606000000000001  0.2098  1.0000
  H   H8        1.0  0.07800000000000006  0.9997200000000002  0.31375  1.0000
  H   H9        1.0  0.21660000000000004  0.43613000000000013  0.9359699999999999  1.0000
  H   H10       1.0  0.9237  0.0016600000000000002  0.68572  1.0000
  H   H11       1.0  0.9226399999999999  0.50044  0.81382  1.0000
  H   H12       1.0  0.26082  0.33671  0.81609  1.0000
  H   H13       1.0  0.07656000000000002  0.49865000000000004  0.18598  1.0000
  H   H14       1.0  0.21538  0.9366300000000001  0.5645399999999999  1.0000
  H   H15       1.0  0.7402500000000002  0.16342  0.31637  1.0000
  H   H16       1.0  0.43311  0.43414000000000014  0.70933  1.0000
  C   C1        1.0  0.12819  0.65358  0.86943  1.0000
  C   C2        1.0  0.72495  0.22418000000000002  0.137  1.0000
  C   C3        1.0  0.9321700000000002  0.92105  0.43817999999999996  1.0000
  C   C4        1.0  0.033960000000000004  0.59649  0.80892  1.0000
  C   C5        1.0  0.94504  0.61382  0.9742099999999999  1.0000
  C   C6        1.0  0.0351  0.09743000000000002  0.69075  1.0000
  C   C7        1.0  0.27492  0.27623  0.63671  1.0000
  C   C8        1.0  0.61765  0.15584  0.07417999999999998  1.0000
  C   C9        1.0  0.9318500000000001  0.4202  0.06171  1.0000
  C   C10       1.0  0.06846000000000001  0.08023  0.5617899999999999  1.0000
  C   C11       1.0  0.3806700000000001  0.8437300000000002  0.9260599999999999  1.0000
  C   C12       1.0  0.08162  0.66066  0.74174  1.0000
  C   C13       1.0  0.7755300000000002  0.71537  0.23548  1.0000
  C   C14       1.0  0.01746999999999999  0.89364  0.17711999999999997  1.0000
  C   C15       1.0  0.67915  0.16067  0.20463999999999996  1.0000
  C   C16       1.0  0.12368000000000004  0.46599000000000007  0.96464  1.0000
  C   C17       1.0  0.3198  0.83891  0.7953599999999998  1.0000
  C   C18       1.0  0.72686  0.72476  0.36275  1.0000
  C   C19       1.0  0.32128  0.33956  0.70441  1.0000
  C   C20       1.0  0.96535  0.40257  0.1909  1.0000
  C   C21       1.0  0.8973  0.7477300000000001  0.95508  1.0000
  C   C22       1.0  0.98154  0.10625  0.82274  1.0000
  C   C23       1.0  0.68065  0.66119  0.29521  1.0000
  C   C24       1.0  0.06830999999999998  0.57914  0.93807  1.0000
  C   C25       1.0  0.27393  0.77535  0.8629499999999999  1.0000
  C   C26       1.0  0.12883  0.15515  0.6302199999999999  1.0000
  C   C27       1.0  0.91803  0.83918  0.24194  1.0000
  C   C28       1.0  0.9173000000000001  0.33888  0.25817  1.0000
  C   C29       1.0  0.12313000000000004  0.96654  0.53565  1.0000
  C   C30       1.0  0.1038  0.25395  0.04564  1.0000
  C   C31       1.0  0.10259  0.75352  0.4546299999999999  1.0000
  C   C32       1.0  0.2245  0.78444  0.73563  1.0000
  C   C33       1.0  0.05524999999999998  0.8868  0.47444  1.0000
  C   C34       1.0  0.08269  0.16119  0.75803  1.0000
  C   C35       1.0  0.87274  0.84639  0.36958  1.0000
  C   C36       1.0  0.87148  0.34527  0.13029  1.0000
  C   C37       1.0  0.056699999999999987  0.38709  0.026209999999999994  1.0000
  C   C38       1.0  0.22575  0.28493  0.76415  1.0000
  C   C39       1.0  0.9665800000000001  0.9036900000000001  0.30902  1.0000
  C   C40       1.0  0.8957900000000002  0.24586  0.5448  1.0000
  C   C41       1.0  0.017620000000000004  0.39441  0.32310999999999995  1.0000
  C   C42       1.0  0.38157  0.34371  0.5736  1.0000
  C   C43       1.0  0.94415  0.11317000000000002  0.52577  1.0000
  C   C44       1.0  0.61859  0.65576  0.42502  1.0000
  C   C45       1.0  0.7747500000000002  0.21481  0.26431  1.0000
  C   C46       1.0  0.87699  0.53369  0.03521  1.0000
  C   C47       1.0  0.9812100000000001  0.60487  0.6768  1.0000
  C   C48       1.0  0.87662  0.03393000000000001  0.46451999999999993  1.0000
  O   O1        1.0  0.15580000000000002  0.99846  0.181  1.0000
  O   O2        1.0  0.24280999999999997  0.76451  0.43384  1.0000
  O   O3        1.0  0.84329  0.50004  0.68065  1.0000
  O   O4        1.0  0.9680599999999999  0.33544  0.38424  1.0000
  O   O5        1.0  0.0017400000000000015  0.11962  0.03502  1.0000
  O   O6        1.0  0.9682000000000001  0.83361  0.11627  1.0000
  O   O7        1.0  0.68188  0.15027  0.013859999999999999  1.0000
  O   O8        1.0  0.68058  0.64872  0.48594999999999994  1.0000
  O   O9        1.0  0.03129000000000004  0.66466  0.61582  1.0000
  O   O10       1.0  0.0008999999999999957  0.61869  0.4651199999999999  1.0000
  O   O11       1.0  0.75664  0.73476  0.93333  1.0000
  O   O12       1.0  0.24441  0.26502  0.06656  1.0000
  O   O13       1.0  0.99918  0.38025  0.53504  1.0000
  O   O14       1.0  0.15685000000000002  0.4976300000000001  0.31927  1.0000
  O   O15       1.0  0.75603  0.23357  0.56672  1.0000
  O   O16       1.0  0.84343  0.00154  0.81863  1.0000
  O   O17       1.0  0.46802  0.6036500000000001  0.4113199999999999  1.0000
  O   O18       1.0  0.53226  0.39572  0.5871499999999998  1.0000
  O   O19       1.0  0.0008500000000000919  0.8797500000000003  0.96524  1.0000
  O   O20       1.0  0.53207  0.89723  0.9123999999999999  1.0000
  O   O21       1.0  0.3187000000000001  0.8504200000000001  0.9862  1.0000
  O   O22       1.0  0.031050000000000005  0.1665  0.88374  1.0000
  O   O23       1.0  0.31876  0.35147  0.51338  1.0000
  O   O24       1.0  0.46635  0.10341000000000003  0.08777  1.0000
