data_image0
_chemical_formula_structural       Er4H4C28N8O24
_chemical_formula_sum              "Er4 H4 C28 N8 O24"
_cell_length_a       6.56423
_cell_length_b       10.06604
_cell_length_c       17.57041
_cell_angle_alpha    90.31508
_cell_angle_beta     90.02278
_cell_angle_gamma    91.35962

_space_group_name_H-M_alt    "P 1"
_space_group_IT_number       1

loop_
  _space_group_symop_operation_xyz
  'x, y, z'

loop_
  _atom_site_type_symbol
  _atom_site_label
  _atom_site_symmetry_multiplicity
  _atom_site_fract_x
  _atom_site_fract_y
  _atom_site_fract_z
  _atom_site_occupancy
  Er  Er1       1.0  0.7676699999999999  0.75301  0.62877  1.0000
  Er  Er2       1.0  0.24263999999999997  0.74397  0.12533  1.0000
  Er  Er3       1.0  0.23235  0.24695  0.37106  1.0000
  Er  Er4       1.0  0.75735  0.25603  0.87467  1.0000
  H   H1        1.0  0.74261  0.21705999999999998  0.66858  1.0000
  H   H2        1.0  0.25401  0.27969  0.17056  1.0000
  H   H3        1.0  0.25734  0.78338  0.33158  1.0000
  H   H4        1.0  0.74607  0.71992  0.82954  1.0000
  C   C1        1.0  0.75864  0.60998  0.46635  1.0000
  C   C2        1.0  0.75267  0.49194999999999994  0.52038  1.0000
  C   C3        1.0  0.74417  0.35648  0.50015  1.0000
  C   C4        1.0  0.7362  0.3036  0.41937  1.0000
  C   C5        1.0  0.74476  0.29581  0.62632  1.0000
  C   C6        1.0  0.75174  0.42987  0.64778  1.0000
  C   C7        1.0  0.75584  0.48710999999999993  0.72697  1.0000
  C   C8        1.0  0.24924999999999994  0.8895999999999998  0.96373  1.0000
  C   C9        1.0  0.25204  0.00716  0.0191  1.0000
  C   C10       1.0  0.2555  0.14309  0.00066  1.0000
  C   C11       1.0  0.25536  0.19835  0.9208300000000001  1.0000
  C   C12       1.0  0.25413  0.20171999999999998  0.12737  1.0000
  C   C13       1.0  0.25096  0.06732  0.14718  1.0000
  C   C14       1.0  0.24798999999999996  0.01022  0.22599  1.0000
  C   C15       1.0  0.24117999999999998  0.38859  0.53339  1.0000
  C   C16       1.0  0.24727  0.50777  0.47981000000000007  1.0000
  C   C17       1.0  0.25587  0.64332  0.49995  1.0000
  C   C18       1.0  0.26383  0.69654  0.58059  1.0000
  C   C19       1.0  0.25528  0.70442  0.37377  1.0000
  C   C20       1.0  0.24832  0.5703  0.35228  1.0000
  C   C21       1.0  0.24419999999999997  0.51301  0.27299  1.0000
  C   C22       1.0  0.75075  0.11039  0.03619  1.0000
  C   C23       1.0  0.7479799999999999  0.99281  0.9808200000000001  1.0000
  C   C24       1.0  0.74454  0.85692  0.99934  1.0000
  C   C25       1.0  0.74467  0.8017200000000001  0.07918  1.0000
  C   C26       1.0  0.74594  0.79807  0.87264  1.0000
  C   C27       1.0  0.7491  0.93246  0.85276  1.0000
  C   C28       1.0  0.75204  0.98958  0.77397  1.0000
  N   N1        1.0  0.75573  0.52394  0.5943  1.0000
  N   N2        1.0  0.7405  0.25987  0.55268  1.0000
  N   N3        1.0  0.2501  0.97392  0.09272  1.0000
  N   N4        1.0  0.25646  0.23901999999999998  0.05423  1.0000
  N   N5        1.0  0.24426999999999993  0.47620999999999997  0.40578  1.0000
  N   N6        1.0  0.25954  0.7400799999999998  0.44746  1.0000
  N   N7        1.0  0.74995  0.02595  0.90718  1.0000
  N   N8        1.0  0.7436  0.7609299999999999  0.94582  1.0000
  O   O1        1.0  0.90256  0.27969999999999995  0.3865  1.0000
  O   O2        1.0  0.08393  0.22672  0.89351  1.0000
  O   O3        1.0  0.43826  0.72691  0.6064  1.0000
  O   O4        1.0  0.57491  0.77344  0.10946  1.0000
  O   O5        1.0  0.09742  0.72032  0.61344  1.0000
  O   O6        1.0  0.91608  0.7733099999999999  0.1065  1.0000
  O   O7        1.0  0.56175  0.27316  0.39359  1.0000
  O   O8        1.0  0.42511  0.22659999999999997  0.89054  1.0000
  O   O9        1.0  0.7755099999999999  0.72461  0.50041  1.0000
  O   O10       1.0  0.74761  0.5866099999999999  0.39713  1.0000
  O   O11       1.0  0.75749  0.41241999999999995  0.78482  1.0000
  O   O12       1.0  0.75779  0.61354  0.731  1.0000
  O   O13       1.0  0.24398  0.77454  0.99697  1.0000
  O   O14       1.0  0.25198  0.91342  0.89455  1.0000
  O   O15       1.0  0.24232999999999996  0.08604  0.28388  1.0000
  O   O16       1.0  0.25107  0.88404  0.22952  1.0000
  O   O17       1.0  0.224  0.27479  0.49846  1.0000
  O   O18       1.0  0.25236  0.40945  0.60282  1.0000
  O   O19       1.0  0.24255  0.58769  0.21513  1.0000
  O   O20       1.0  0.24223  0.38659  0.269  1.0000
  O   O21       1.0  0.756  0.22551  0.00301  1.0000
  O   O22       1.0  0.74805  0.08649  0.10535  1.0000
  O   O23       1.0  0.75767  0.9137699999999999  0.71605  1.0000
  O   O24       1.0  0.74895  0.11575000000000002  0.77042  1.0000
