data_image0
_chemical_formula_structural       Er4H12C36O24
_chemical_formula_sum              "Er4 H12 C36 O24"
_cell_length_a       8.95809
_cell_length_b       8.8034
_cell_length_c       16.13629
_cell_angle_alpha    86.78806000000002
_cell_angle_beta     86.75546000000001
_cell_angle_gamma    93.12477999999999

_symmetry_space_group_name_H-M    'P 1'
_symmetry_Int_Tables_number       1

loop_
  _symmetry_equiv_pos_as_xyz
  'x,y,z'

loop_
  _atom_site_type_symbol
  _atom_site_label
  _atom_site_symmetry_multiplicity
  _atom_site_fract_x
  _atom_site_fract_y
  _atom_site_fract_z
  _atom_site_occupancy
  Er  Er1       1.0  0.9619700000000001  0.78347  0.49973  1.0000
  Er  Er2       1.0  0.22734000000000001  0.038  0.00411  1.0000
  Er  Er3       1.0  0.0386  0.21937  0.50146  1.0000
  Er  Er4       1.0  0.77278  0.9546799999999999  0.9961800000000001  1.0000
  H   H1        1.0  0.99928  0.74818  0.2533100000000001  1.0000
  H   H2        1.0  0.16737  0.53866  0.0337  1.0000
  H   H3        1.0  0.15701  0.29697  0.2751500000000001  1.0000
  H   H4        1.0  0.2592  0.99842  0.24719  1.0000
  H   H5        1.0  0.46949  0.84608  0.46986  1.0000
  H   H6        1.0  0.7060499999999998  0.8439  0.22979000000000005  1.0000
  H   H7        1.0  0.002150000000000008  0.24974  0.74647  1.0000
  H   H8        1.0  0.8325600000000003  0.46018999999999993  0.96615  1.0000
  H   H9        1.0  0.8433699999999998  0.70076  0.72505  1.0000
  H   H10       1.0  0.74295  0.0007899999999999927  0.75314  1.0000
  H   H11       1.0  0.53382  0.15357  0.5307  1.0000
  H   H12       1.0  0.29611  0.15608000000000002  0.77093  1.0000
  C   C1        1.0  0.06241999999999999  0.52516  0.36595  1.0000
  C   C2        1.0  0.005810000000000002  0.77693  0.08521  1.0000
  C   C3        1.0  0.20884000000000003  0.26384  0.10716000000000003  1.0000
  C   C4        1.0  0.09016  0.52812  0.27354  1.0000
  C   C5        1.0  0.05024000000000001  0.65369  0.22408000000000006  1.0000
  C   C6        1.0  0.07018999999999999  0.65424  0.13721  1.0000
  C   C7        1.0  0.14066  0.53395  0.10047  1.0000
  C   C8        1.0  0.16821000000000003  0.40302  0.14961  1.0000
  C   C9        1.0  0.13994  0.39858  0.23599  1.0000
  C   C10       1.0  0.4792  0.93391  0.13688  1.0000
  C   C11       1.0  0.22506000000000004  0.0005100000000000047  0.41236  1.0000
  C   C12       1.0  0.73761  0.79995  0.39723000000000014  1.0000
  C   C13       1.0  0.47757000000000005  0.91117  0.22915  1.0000
  C   C14       1.0  0.35295000000000015  0.9508999999999999  0.27751  1.0000
  C   C15       1.0  0.35037  0.9338500000000001  0.36461  1.0000
  C   C16       1.0  0.47054  0.86839  0.4027900000000001  1.0000
  C   C17       1.0  0.60017  0.83969  0.35436  1.0000
  C   C18       1.0  0.60514  0.86375  0.26764  1.0000
  C   C19       1.0  0.93818  0.47456000000000004  0.63447  1.0000
  C   C20       1.0  0.9944200000000001  0.21932999999999994  0.9143600000000002  1.0000
  C   C21       1.0  0.7894900000000001  0.73212  0.89286  1.0000
  C   C22       1.0  0.91198  0.47032000000000007  0.72681  1.0000
  C   C23       1.0  0.9513900000000001  0.34412  0.77593  1.0000
  C   C24       1.0  0.93034  0.34255  0.86277  1.0000
  C   C25       1.0  0.8597299999999999  0.46277999999999997  0.8994800000000002  1.0000
  C   C26       1.0  0.83213  0.59375  0.85043  1.0000
  C   C27       1.0  0.8614  0.5994  0.76422  1.0000
  C   C28       1.0  0.52195  0.06383  0.86363  1.0000
  C   C29       1.0  0.7774300000000002  0.001280000000000005  0.5879  1.0000
  C   C30       1.0  0.26316  0.20056  0.60326  1.0000
  C   C31       1.0  0.52417  0.08816  0.77132  1.0000
  C   C32       1.0  0.6493  0.049159999999999995  0.72296  1.0000
  C   C33       1.0  0.65168  0.06717999999999998  0.6358900000000002  1.0000
  C   C34       1.0  0.53127  0.13263  0.59786  1.0000
  C   C35       1.0  0.4010699999999999  0.16065999999999997  0.64615  1.0000
  C   C36       1.0  0.39669  0.1361  0.7328700000000002  1.0000
  O   O1        1.0  0.07801  0.64774  0.40316  1.0000
  O   O2        1.0  0.02119999999999999  0.39649  0.4036200000000001  1.0000
  O   O3        1.0  0.88026  0.82568  0.10792  1.0000
  O   O4        1.0  0.07641000000000002  0.82896  0.01603  1.0000
  O   O5        1.0  0.13742  0.1367  0.1296  1.0000
  O   O6        1.0  0.30574  0.2728  0.04486  1.0000
  O   O7        1.0  0.35794  0.91817  0.10034  1.0000
  O   O8        1.0  0.60584  0.9708600000000001  0.09865  1.0000
  O   O9        1.0  0.17339  0.12212  0.38344  1.0000
  O   O10       1.0  0.17062  0.9392499999999999  0.48416  1.0000
  O   O11       1.0  0.86383  0.86431  0.37046  1.0000
  O   O12       1.0  0.72762  0.71045  0.46348  1.0000
  O   O13       1.0  0.92153  0.35191  0.5973  1.0000
  O   O14       1.0  0.97849  0.60326  0.59663  1.0000
  O   O15       1.0  0.12077999999999994  0.17271  0.8917100000000002  1.0000
  O   O16       1.0  0.92366  0.16558999999999996  0.9831200000000002  1.0000
  O   O17       1.0  0.8602099999999999  0.8595599999999999  0.87038  1.0000
  O   O18       1.0  0.6921800000000001  0.72124  0.9551100000000002  1.0000
  O   O19       1.0  0.6437900000000001  0.07536  0.89972  1.0000
  O   O20       1.0  0.39525  0.02923999999999999  0.90247  1.0000
  O   O21       1.0  0.8310199999999999  0.8804799999999999  0.6170000000000002  1.0000
  O   O22       1.0  0.8310900000000002  0.062150000000000004  0.51594  1.0000
  O   O23       1.0  0.13643  0.13673  0.62973  1.0000
  O   O24       1.0  0.2736  0.29009  0.53691  1.0000
