data_image0
_chemical_formula_structural       U8H8C40O32
_chemical_formula_sum              "U8 H8 C40 O32"
_cell_length_a       10.78472
_cell_length_b       11.24845
_cell_length_c       19.115410000000004
_cell_angle_alpha    90.19663
_cell_angle_beta     91.51723
_cell_angle_gamma    89.88881

_space_group_name_H-M_alt    "P 1"
_space_group_IT_number       1

loop_
  _space_group_symop_operation_xyz
  'x, y, z'

loop_
  _atom_site_type_symbol
  _atom_site_label
  _atom_site_symmetry_multiplicity
  _atom_site_fract_x
  _atom_site_fract_y
  _atom_site_fract_z
  _atom_site_occupancy
  U   U1        1.0  0.38403000000000004  0.06020999999999999  0.1011  1.0000
  U   U2        1.0  0.04134  0.29429  0.15659  1.0000
  U   U3        1.0  0.61839  0.55511  0.39932  1.0000
  U   U4        1.0  0.95599  0.79596  0.34163  1.0000
  U   U5        1.0  0.62053  0.9458599999999999  0.8992199999999999  1.0000
  U   U6        1.0  0.9595200000000003  0.7065099999999999  0.8435900000000001  1.0000
  U   U7        1.0  0.38451  0.44571  0.60238  1.0000
  U   U8        1.0  0.04621  0.20374  0.65899  1.0000
  H   H1        1.0  0.4019999999999999  0.27543999999999996  0.31572  1.0000
  H   H2        1.0  0.11532  0.0942  0.48419  1.0000
  H   H3        1.0  0.59795  0.7772  0.18497  1.0000
  H   H4        1.0  0.88326  0.59474  0.01523  1.0000
  H   H5        1.0  0.5981800000000002  0.72369  0.68431  1.0000
  H   H6        1.0  0.8833  0.90652  0.51607  1.0000
  H   H7        1.0  0.40196  0.22310999999999995  0.81564  1.0000
  H   H8        1.0  0.11534  0.40555  0.98437  1.0000
  C   C1        1.0  0.25857  0.14589999999999997  0.33023  1.0000
  C   C2        1.0  0.3389  0.23599  0.35255  1.0000
  C   C3        1.0  0.33018  0.28837999999999997  0.4206  1.0000
  C   C4        1.0  0.25845  0.22419999999999998  0.47172  1.0000
  C   C5        1.0  0.17302  0.13928  0.4472900000000001  1.0000
  C   C6        1.0  0.16935  0.09877  0.37674  1.0000
  C   C7        1.0  0.09252  0.99913  0.35978  1.0000
  C   C8        1.0  0.25301  0.11754999999999999  0.2548  1.0000
  C   C9        1.0  0.36772  0.40801  0.43296  1.0000
  C   C10       1.0  0.28242  0.23978  0.54598  1.0000
  C   C11       1.0  0.74089  0.6471799999999999  0.1698  1.0000
  C   C12       1.0  0.66035  0.73666  0.14801000000000003  1.0000
  C   C13       1.0  0.67034  0.7886399999999999  0.07989  1.0000
  C   C14       1.0  0.7407500000000002  0.72519  0.028040000000000002  1.0000
  C   C15       1.0  0.8245  0.63933  0.05204000000000001  1.0000
  C   C16       1.0  0.82891  0.59812  0.12289000000000001  1.0000
  C   C17       1.0  0.90575  0.49768999999999997  0.13985  1.0000
  C   C18       1.0  0.7482  0.6177  0.24512  1.0000
  C   C19       1.0  0.63268  0.9089799999999998  0.06894  1.0000
  C   C20       1.0  0.7216600000000001  0.7494999999999999  0.95357  1.0000
  C   C21       1.0  0.74033  0.85367  0.66967  1.0000
  C   C22       1.0  0.66084  0.7634599999999999  0.6475  1.0000
  C   C23       1.0  0.67004  0.71098  0.5796200000000001  1.0000
  C   C24       1.0  0.74153  0.7747899999999999  0.5284  1.0000
  C   C25       1.0  0.8258700000000001  0.8604599999999999  0.5526600000000002  1.0000
  C   C26       1.0  0.82939  0.90133  0.62319  1.0000
  C   C27       1.0  0.90691  0.0006799999999999999  0.64041  1.0000
  C   C28       1.0  0.7470200000000001  0.88257  0.74509  1.0000
  C   C29       1.0  0.63434  0.59112  0.56823  1.0000
  C   C30       1.0  0.71888  0.75771  0.45393999999999995  1.0000
  C   C31       1.0  0.25908  0.35302999999999995  0.83019  1.0000
  C   C32       1.0  0.33936000000000005  0.26389  0.8522999999999998  1.0000
  C   C33       1.0  0.33107  0.21354999999999993  0.92066  1.0000
  C   C34       1.0  0.26035  0.27711  0.97218  1.0000
  C   C35       1.0  0.17497  0.36154999999999987  0.94785  1.0000
  C   C36       1.0  0.17081  0.40243  0.87681  1.0000
  C   C37       1.0  0.09479  0.50299  0.8600900000000001  1.0000
  C   C38       1.0  0.25205  0.38272  0.75503  1.0000
  C   C39       1.0  0.36897  0.09364999999999997  0.9321200000000001  1.0000
  C   C40       1.0  0.2801  0.25286  0.04692000000000001  1.0000
  O   O1        1.0  0.34199  0.06449  0.22446000000000002  1.0000
  O   O2        1.0  0.1558  0.15546  0.22056000000000003  1.0000
  O   O3        1.0  0.09100000000000001  0.9424299999999999  0.29887  1.0000
  O   O4        1.0  0.01882  0.9541099999999999  0.40728  1.0000
  O   O5        1.0  0.20050000000000004  0.19630999999999998  0.5927900000000002  1.0000
  O   O6        1.0  0.40061  0.263  0.57121  1.0000
  O   O7        1.0  0.33538  0.47006999999999993  0.48884  1.0000
  O   O8        1.0  0.43405  0.46700999999999987  0.38694  1.0000
  O   O9        1.0  0.65903  0.56578  0.27572  1.0000
  O   O10       1.0  0.8474000000000002  0.65205  0.27869  1.0000
  O   O11       1.0  0.9120500000000001  0.44269  0.20127  1.0000
  O   O12       1.0  0.9746800000000002  0.45127999999999996  0.09068  1.0000
  O   O13       1.0  0.8029100000000001  0.70271  0.90938  1.0000
  O   O14       1.0  0.6021  0.7648299999999999  0.92682  1.0000
  O   O15       1.0  0.66655  0.9719299999999997  0.013930000000000001  1.0000
  O   O16       1.0  0.56804  0.96784  0.11586000000000002  1.0000
  O   O17       1.0  0.6586800000000002  0.9363799999999998  0.77553  1.0000
  O   O18       1.0  0.8441900000000001  0.84488  0.7795100000000001  1.0000
  O   O19       1.0  0.90896  0.05731  0.7015  1.0000
  O   O20       1.0  0.98048  0.0455  0.5929200000000001  1.0000
  O   O21       1.0  0.80103  0.8008399999999999  0.40781000000000006  1.0000
  O   O22       1.0  0.59954  0.7369999999999998  0.42837  1.0000
  O   O23       1.0  0.66779  0.52838  0.51274  1.0000
  O   O24       1.0  0.56871  0.53307  0.61485  1.0000
  O   O25       1.0  0.34249  0.43352  0.7246800000000001  1.0000
  O   O26       1.0  0.1529  0.3503299999999999  0.72075  1.0000
  O   O27       1.0  0.09106000000000002  0.55893  0.7990900000000001  1.0000
  O   O28       1.0  0.024829999999999994  0.54817  0.9092199999999999  1.0000
  O   O29       1.0  0.19831  0.29761  0.09174  1.0000
  O   O30       1.0  0.40073000000000003  0.24234999999999998  0.07333  1.0000
  O   O31       1.0  0.33636  0.03132  0.98768  1.0000
  O   O32       1.0  0.4353  0.0354  0.88519  1.0000
