data_image0
_chemical_formula_structural       Cd10H26C36N22
_chemical_formula_sum              "Cd10 H26 C36 N22"
_cell_length_a       9.30594
_cell_length_b       10.9542
_cell_length_c       17.79359
_cell_angle_alpha    98.0091
_cell_angle_beta     90.05443
_cell_angle_gamma    115.37219999999999

_space_group_name_H-M_alt    "P 1"
_space_group_IT_number       1

loop_
  _space_group_symop_operation_xyz
  'x, y, z'

loop_
  _atom_site_type_symbol
  _atom_site_label
  _atom_site_symmetry_multiplicity
  _atom_site_fract_x
  _atom_site_fract_y
  _atom_site_fract_z
  _atom_site_occupancy
  Cd  Cd1       1.0  0.57489  0.15846999999999994  0.87938  1.0000
  Cd  Cd2       1.0  0.79847  0.59991  0.12606  1.0000
  Cd  Cd3       1.0  0.33490999999999993  0.6752799999999999  0.6274799999999998  1.0000
  Cd  Cd4       1.0  0.68102  0.367  0.59883  1.0000
  Cd  Cd5       1.0  0.41729999999999995  0.8414199999999998  0.12056  1.0000
  Cd  Cd6       1.0  0.20392  0.4004  0.87408  1.0000
  Cd  Cd7       1.0  0.65926  0.32529  0.37225  1.0000
  Cd  Cd8       1.0  0.31838  0.63409  0.4012799999999999  1.0000
  Cd  Cd9       1.0  0.97551  0.9293900000000002  0.85049  1.0000
  Cd  Cd10      1.0  0.04285  0.07127  0.1496  1.0000
  H   H1        1.0  0.2544399999999999  0.90101  0.82621  1.0000
  H   H2        1.0  0.25045999999999996  0.90883  0.9205999999999999  1.0000
  H   H3        1.0  0.20196999999999996  0.67977  0.88048  1.0000
  H   H4        1.0  0.09288  0.67454  0.79689  1.0000
  H   H5        1.0  0.9806100000000001  0.70612  0.9582299999999999  1.0000
  H   H6        1.0  0.9505000000000001  0.54329  0.90771  1.0000
  H   H7        1.0  0.78672  0.56873  0.81365  1.0000
  H   H8        1.0  0.60382  0.54859  0.90612  1.0000
  H   H9        1.0  0.73867  0.71004  0.9577199999999999  1.0000
  H   H10       1.0  0.49207000000000006  0.6877599999999999  0.8775699999999999  1.0000
  H   H11       1.0  0.59442  0.67959  0.79622  1.0000
  H   H12       1.0  0.68849  0.91538  0.91931  1.0000
  H   H13       1.0  0.66417  0.9147000000000001  0.82825  1.0000
  H   H14       1.0  0.35059  0.09686  0.17419  1.0000
  H   H15       1.0  0.33959  0.09056  0.08017  1.0000
  H   H16       1.0  0.52204  0.32087  0.12047  1.0000
  H   H17       1.0  0.41736  0.3256  0.20341  1.0000
  H   H18       1.0  0.27422  0.29301  0.04176  1.0000
  H   H19       1.0  0.40647999999999995  0.4557899999999999  0.09284  1.0000
  H   H20       1.0  0.22095  0.42997  0.18626999999999994  1.0000
  H   H21       1.0  0.05666  0.45243  0.09351  1.0000
  H   H22       1.0  0.029739999999999992  0.2918  0.04248  1.0000
  H   H23       1.0  0.80317  0.31115  0.12174  1.0000
  H   H24       1.0  0.9141900000000001  0.32130999999999993  0.20326  1.0000
  H   H25       1.0  0.77051  0.08574  0.08085  1.0000
  H   H26       1.0  0.7506300000000001  0.08859  0.1722  1.0000
  C   C1        1.0  0.51046  0.033819999999999975  0.9729499999999999  1.0000
  C   C2        1.0  0.7232599999999999  0.45196  0.01795  1.0000
  C   C3        1.0  0.94953  0.25214  0.87262  1.0000
  C   C4        1.0  0.29044  0.2415  0.86902  1.0000
  C   C5        1.0  0.43456  0.865  0.70949  1.0000
  C   C6        1.0  0.65506  0.31732  0.71864  1.0000
  C   C7        1.0  0.74656  0.47949  0.21609999999999993  1.0000
  C   C8        1.0  0.71135  0.42092  0.27321  1.0000
  C   C9        1.0  0.39318999999999993  0.7959299999999999  0.5333799999999999  1.0000
  C   C10       1.0  0.4192400000000001  0.8621600000000001  0.47745  1.0000
  C   C11       1.0  0.94179  0.48462999999999995  0.58364  1.0000
  C   C12       1.0  0.54414  0.48818000000000006  0.58731  1.0000
  C   C13       1.0  0.47907000000000005  0.9668499999999999  0.02737  1.0000
  C   C14       1.0  0.27609  0.54781  0.98187  1.0000
  C   C15       1.0  0.69769  0.7487299999999999  0.12736  1.0000
  C   C16       1.0  0.048580000000000005  0.75769  0.13030999999999998  1.0000
  C   C17       1.0  0.56645  0.13434  0.29033  1.0000
  C   C18       1.0  0.34004  0.68405  0.28161  1.0000
  C   C19       1.0  0.2721999999999999  0.5212399999999999  0.7839299999999998  1.0000
  C   C20       1.0  0.29018  0.57887  0.7266  1.0000
  C   C21       1.0  0.5969  0.20456  0.46626999999999996  1.0000
  C   C22       1.0  0.56131  0.13951  0.52271  1.0000
  C   C23       1.0  0.45692  0.51432  0.41604  1.0000
  C   C24       1.0  0.056769999999999966  0.51258  0.41307  1.0000
  C   C25       1.0  0.004410000000000073  0.9973200000000001  0.96533  1.0000
  C   C26       1.0  0.9443799999999999  0.8288400000000001  0.73848  1.0000
  C   C27       1.0  0.11783999999999997  0.7140599999999999  0.8578399999999998  1.0000
  C   C28       1.0  0.96294  0.6463399999999999  0.9013599999999999  1.0000
  C   C29       1.0  0.69403  0.65191  0.90074  1.0000
  C   C30       1.0  0.61187  0.72067  0.85668  1.0000
  C   C31       1.0  0.00632  0.0028099999999999987  0.03486999999999999  1.0000
  C   C32       1.0  0.11305  0.17063  0.26173  1.0000
  C   C33       1.0  0.40269  0.28554  0.1426  1.0000
  C   C34       1.0  0.31586  0.35248  0.09863999999999999  1.0000
  C   C35       1.0  0.042880000000000015  0.34948  0.09930999999999997  1.0000
  C   C36       1.0  0.89141  0.28063  0.14281  1.0000
  N   N1        1.0  0.67773  0.3716399999999999  0.9618799999999998  1.0000
  N   N2        1.0  0.82671  0.15382  0.8608  1.0000
  N   N3        1.0  0.31116  0.14149  0.85413  1.0000
  N   N4        1.0  0.47569  0.9497599999999999  0.76362  1.0000
  N   N5        1.0  0.6365999999999998  0.28380999999999995  0.7791299999999998  1.0000
  N   N6        1.0  0.07982000000000003  0.55324  0.5842099999999999  1.0000
  N   N7        1.0  0.47927  0.55964  0.58898  1.0000
  N   N8        1.0  0.30814  0.62862  0.03759  1.0000
  N   N9        1.0  0.6749599999999999  0.8474799999999998  0.13953  1.0000
  N   N10       1.0  0.1707200000000001  0.85742  0.14435  1.0000
  N   N11       1.0  0.52492  0.04965  0.23607  1.0000
  N   N12       1.0  0.35339  0.71622  0.22077  1.0000
  N   N13       1.0  0.5238799999999999  0.44431999999999994  0.41437  1.0000
  N   N14       1.0  0.91943  0.4424  0.41176  1.0000
  N   N15       1.0  0.9259900000000001  0.75405  0.68147  1.0000
  N   N16       1.0  0.18548000000000006  0.86057  0.86931  1.0000
  N   N17       1.0  0.82314  0.63763  0.8626699999999999  1.0000
  N   N18       1.0  0.6962599999999999  0.8677099999999999  0.86675  1.0000
  N   N19       1.0  0.17071000000000003  0.24559  0.3186399999999999  1.0000
  N   N20       1.0  0.32352  0.13887  0.13141  1.0000
  N   N21       1.0  0.18543  0.3618  0.13713  1.0000
  N   N22       1.0  0.8283  0.13402  0.13297  1.0000
