data_image0
_chemical_formula_structural       Sr2U4P4H8C12O16
_chemical_formula_sum              "Sr2 U4 P4 H8 C12 O16"
_cell_length_a       7.2051
_cell_length_b       7.04961
_cell_length_c       16.14348
_cell_angle_alpha    89.86333
_cell_angle_beta     90.00316
_cell_angle_gamma    119.67649

_symmetry_space_group_name_H-M    'P 1'
_symmetry_Int_Tables_number       1

loop_
  _symmetry_equiv_pos_as_xyz
  'x,y,z'

loop_
  _atom_site_type_symbol
  _atom_site_label
  _atom_site_symmetry_multiplicity
  _atom_site_fract_x
  _atom_site_fract_y
  _atom_site_fract_z
  _atom_site_occupancy
  Sr  Sr1       1.0  0.34863000000000005  0.6843700000000001  0.74943  1.0000
  Sr  Sr2       1.0  0.63961  0.29107  0.24982000000000001  1.0000
  U   U1        1.0  0.80262  0.61876  0.8529  1.0000
  U   U2        1.0  0.18851000000000007  0.36355  0.35363  1.0000
  U   U3        1.0  0.80283  0.61916  0.64626  1.0000
  U   U4        1.0  0.19014000000000006  0.36515  0.14704  1.0000
  P   P1        1.0  0.24308000000000007  0.48644000000000004  0.9351200000000002  1.0000
  P   P2        1.0  0.7508500000000002  0.50114  0.43414  1.0000
  P   P3        1.0  0.24294000000000002  0.48718000000000006  0.56324  1.0000
  P   P4        1.0  0.7501800000000002  0.50048  0.0652  1.0000
  H   H1        1.0  0.7915700000000001  0.18459000000000003  0.97024  1.0000
  H   H2        1.0  0.2016600000000001  0.8031400000000001  0.47048  1.0000
  H   H3        1.0  0.38044  0.16709000000000002  0.53683  1.0000
  H   H4        1.0  0.6116200000000002  0.8213000000000001  0.03797  1.0000
  H   H5        1.0  0.20072000000000004  0.8029600000000001  0.030260000000000006  1.0000
  H   H6        1.0  0.79061  0.1842  0.52748  1.0000
  H   H7        1.0  0.6128300000000002  0.8215900000000002  0.46039  1.0000
  H   H8        1.0  0.38042000000000004  0.16658000000000006  0.9625100000000002  1.0000
  C   C1        1.0  0.8803000000000001  0.10006  0.9820800000000002  1.0000
  C   C2        1.0  0.11256000000000002  0.8877400000000001  0.48131  1.0000
  C   C3        1.0  0.21153  0.08904  0.52246  1.0000
  C   C4        1.0  0.78067  0.8988700000000002  0.02384  1.0000
  C   C5        1.0  0.11213000000000008  0.8878000000000001  0.018750000000000006  1.0000
  C   C6        1.0  0.8803200000000001  0.10034000000000003  0.51642  1.0000
  C   C7        1.0  0.7817600000000002  0.8994700000000001  0.47483  1.0000
  C   C8        1.0  0.21166000000000001  0.08935000000000001  0.9773100000000002  1.0000
  C   C9        1.0  0.09663000000000002  0.19923  0.9594700000000003  1.0000
  C   C10       1.0  0.8967800000000002  0.78871  0.45796  1.0000
  C   C11       1.0  0.09649000000000005  0.19952000000000003  0.53956  1.0000
  C   C12       1.0  0.89567  0.78856  0.04135  1.0000
  O   O1        1.0  0.10422  0.55918  0.88634  1.0000
  O   O2        1.0  0.88862  0.42596  0.3864100000000001  1.0000
  O   O3        1.0  0.4384800000000001  0.53653  0.61823  1.0000
  O   O4        1.0  0.5564100000000001  0.45273  0.12134  1.0000
  O   O5        1.0  0.88774  0.4256  0.11339  1.0000
  O   O6        1.0  0.10386  0.55771  0.61277  1.0000
  O   O7        1.0  0.55725  0.45377  0.37814  1.0000
  O   O8        1.0  0.4359600000000001  0.53205  0.87887  1.0000
  O   O9        1.0  0.30703  0.59032  0.02137  1.0000
  O   O10       1.0  0.68534  0.39772  0.5207  1.0000
  O   O11       1.0  0.30576  0.59121  0.47647  1.0000
  O   O12       1.0  0.68717  0.39792  0.97856  1.0000
  O   O13       1.0  0.78976  0.43039000000000005  0.7501000000000001  1.0000
  O   O14       1.0  0.20628000000000002  0.55495  0.24983999999999998  1.0000
  O   O15       1.0  0.7425200000000001  0.7806300000000002  0.7499200000000003  1.0000
  O   O16       1.0  0.25032  0.20299  0.24988000000000002  1.0000
