data_image0
_chemical_formula_structural       Ca2H8C18O12
_chemical_formula_sum              "Ca2 H8 C18 O12"
_cell_length_a       6.71616
_cell_length_b       9.049789999999998
_cell_length_c       10.094529999999999
_cell_angle_alpha    104.01297000000001
_cell_angle_beta     101.07451
_cell_angle_gamma    110.18173000000002

_symmetry_space_group_name_H-M    'P 1'
_symmetry_Int_Tables_number       1

loop_
  _symmetry_equiv_pos_as_xyz
  'x,y,z'

loop_
  _atom_site_type_symbol
  _atom_site_label
  _atom_site_symmetry_multiplicity
  _atom_site_fract_x
  _atom_site_fract_y
  _atom_site_fract_z
  _atom_site_occupancy
  Ca  Ca1       1.0  0.7010999999999998  0.4594200000000002  0.8867000000000002  1.0000
  Ca  Ca2       1.0  0.29890999999999995  0.54058  0.1133  1.0000
  H   H1        1.0  0.5396600000000001  0.2795200000000001  0.5546  1.0000
  H   H2        1.0  0.16432000000000016  0.9188600000000001  0.7629700000000003  1.0000
  H   H3        1.0  0.1770200000000001  0.8974400000000003  0.33285  1.0000
  H   H4        1.0  0.69947  0.48796  0.40398  1.0000
  H   H5        1.0  0.4603400000000001  0.7204800000000002  0.44539000000000006  1.0000
  H   H6        1.0  0.8356799999999998  0.08113999999999999  0.23702  1.0000
  H   H7        1.0  0.82298  0.10255999999999998  0.66715  1.0000
  H   H8        1.0  0.30053  0.51204  0.5960200000000001  1.0000
  C   C1        1.0  0.92564  0.69402  0.5939500000000001  1.0000
  C   C2        1.0  0.9312799999999998  0.68283  0.3523  1.0000
  C   C3        1.0  0.10046999999999998  0.85331  0.64799  1.0000
  C   C4        1.0  0.36862  0.09861999999999999  0.61165  1.0000
  C   C5        1.0  0.10692000000000017  0.8412500000000003  0.4063200000000001  1.0000
  C   C6        1.0  0.83248  0.6168  0.69612  1.0000
  C   C7        1.0  0.8485699999999998  0.5943599999999999  0.19461  1.0000
  C   C8        1.0  0.8387899999999999  0.6099  0.44589000000000006  1.0000
  C   C9        1.0  0.18980000000000014  0.9276600000000003  0.55406  1.0000
  C   C10       1.0  0.07436000000000004  0.30598000000000003  0.40605000000000013  1.0000
  C   C11       1.0  0.06871999999999998  0.31717  0.6477  1.0000
  C   C12       1.0  0.8995400000000001  0.14669000000000001  0.35201000000000005  1.0000
  C   C13       1.0  0.6313800000000002  0.90138  0.38835000000000003  1.0000
  C   C14       1.0  0.8930799999999998  0.15874000000000002  0.59368  1.0000
  C   C15       1.0  0.16752000000000003  0.38320000000000004  0.30388  1.0000
  C   C16       1.0  0.15143000000000006  0.4056400000000001  0.8053800000000001  1.0000
  C   C17       1.0  0.16120999999999994  0.3901  0.5541  1.0000
  C   C18       1.0  0.8102099999999998  0.07234000000000006  0.4459400000000001  1.0000
  O   O1        1.0  0.67411  0.46893  0.64677  1.0000
  O   O2        1.0  0.98921  0.61993  0.12399000000000002  1.0000
  O   O3        1.0  0.43111000000000005  0.15736000000000008  0.5108700000000003  1.0000
  O   O4        1.0  0.64203  0.49726000000000004  0.13260000000000002  1.0000
  O   O5        1.0  0.44942999999999994  0.17868  0.74252  1.0000
  O   O6        1.0  0.91069  0.6972600000000002  0.82928  1.0000
  O   O7        1.0  0.32588999999999996  0.53107  0.3532300000000001  1.0000
  O   O8        1.0  0.010790000000000025  0.38007  0.87601  1.0000
  O   O9        1.0  0.5689  0.8426400000000002  0.48913  1.0000
  O   O10       1.0  0.35798000000000013  0.5027400000000002  0.8674  1.0000
  O   O11       1.0  0.55057  0.82132  0.25748  1.0000
  O   O12       1.0  0.08931000000000001  0.30274000000000006  0.17071000000000006  1.0000
