data_image0
_chemical_formula_structural       Gd4H24C48O24
_chemical_formula_sum              "Gd4 H24 C48 O24"
_cell_length_a       10.86303
_cell_length_b       10.851950000000002
_cell_length_c       18.44418
_cell_angle_alpha    74.07263
_cell_angle_beta     73.92062
_cell_angle_gamma    66.24612

_space_group_name_H-M_alt    "P 1"
_space_group_IT_number       1

loop_
  _space_group_symop_operation_xyz
  'x, y, z'

loop_
  _atom_site_type_symbol
  _atom_site_label
  _atom_site_symmetry_multiplicity
  _atom_site_fract_x
  _atom_site_fract_y
  _atom_site_fract_z
  _atom_site_occupancy
  Gd  Gd1       1.0  0.55661  0.46048999999999995  0.89943  1.0000
  Gd  Gd2       1.0  0.5386299999999997  0.44360000000000005  0.60051  1.0000
  Gd  Gd3       1.0  0.4434000000000001  0.53951  0.10057000000000003  1.0000
  Gd  Gd4       1.0  0.46138000000000007  0.55639  0.39949  1.0000
  H   H1        1.0  0.88905  0.51455  0.77411  1.0000
  H   H2        1.0  0.22099  0.45557  0.90646  1.0000
  H   H3        1.0  0.7837699999999999  0.62126  0.55097  1.0000
  H   H4        1.0  0.012849999999999967  0.6418  0.48987  1.0000
  H   H5        1.0  0.97792  0.57313  0.12077  1.0000
  H   H6        1.0  0.12123  0.5306  0.712  1.0000
  H   H7        1.0  0.48582  0.10905999999999999  0.72537  1.0000
  H   H8        1.0  0.5445800000000001  0.7791199999999999  0.59328  1.0000
  H   H9        1.0  0.3790700000000001  0.21724000000000002  0.948  1.0000
  H   H10       1.0  0.35819000000000006  0.98832  0.00987  1.0000
  H   H11       1.0  0.4256  0.021959999999999997  0.37986  1.0000
  H   H12       1.0  0.4696099999999999  0.87702  0.78812  1.0000
  H   H13       1.0  0.11095  0.48545  0.22589  1.0000
  H   H14       1.0  0.77902  0.54443  0.09354  1.0000
  H   H15       1.0  0.21624  0.3787400000000001  0.44903  1.0000
  H   H16       1.0  0.98715  0.3582  0.51013  1.0000
  H   H17       1.0  0.022079999999999968  0.4268700000000001  0.87923  1.0000
  H   H18       1.0  0.8787699999999998  0.46939  0.288  1.0000
  H   H19       1.0  0.5141800000000001  0.8909400000000001  0.27463  1.0000
  H   H20       1.0  0.4554299999999999  0.22086999999999996  0.4067200000000001  1.0000
  H   H21       1.0  0.6209300000000001  0.78275  0.052  1.0000
  H   H22       1.0  0.6418099999999999  0.011680000000000005  0.99013  1.0000
  H   H23       1.0  0.5743999999999996  0.97804  0.6201300000000001  1.0000
  H   H24       1.0  0.5304  0.12297999999999999  0.21188000000000004  1.0000
  C   C1        1.0  0.6925599999999998  0.5416599999999998  0.70236  1.0000
  C   C2        1.0  0.11218000000000002  0.51537  0.01566  1.0000
  C   C3        1.0  0.82404  0.56543  0.66605  1.0000
  C   C4        1.0  0.91734  0.5430399999999999  0.71213  1.0000
  C   C5        1.0  0.12432999999999995  0.47463  0.94721  1.0000
  C   C6        1.0  0.857  0.6039200000000002  0.58597  1.0000
  C   C7        1.0  0.23063  0.52887  0.0349  1.0000
  C   C8        1.0  0.98442  0.61519  0.55186  1.0000
  C   C9        1.0  0.98679  0.54091  0.0681  1.0000
  C   C10       1.0  0.08027999999999996  0.58588  0.59754  1.0000
  C   C11       1.0  0.22345999999999994  0.5783399999999999  0.5612800000000001  1.0000
  C   C12       1.0  0.045299999999999965  0.55231  0.67785  1.0000
  C   C13       1.0  0.45787  0.30704999999999993  0.79726  1.0000
  C   C14       1.0  0.48412999999999995  0.8877800000000001  0.48444  1.0000
  C   C15       1.0  0.43459  0.17536999999999997  0.83331  1.0000
  C   C16       1.0  0.45715999999999984  0.08143999999999994  0.7874000000000002  1.0000
  C   C17       1.0  0.52555  0.8756599999999999  0.55258  1.0000
  C   C18       1.0  0.39617000000000013  0.14325999999999997  0.91341  1.0000
  C   C19       1.0  0.46949999999999986  0.76969  0.4652  1.0000
  C   C20       1.0  0.38494999999999996  0.016020000000000006  0.94785  1.0000
  C   C21       1.0  0.45846000000000003  0.013180000000000006  0.43223  1.0000
  C   C22       1.0  0.4143899999999999  0.9194500000000001  0.9024200000000001  1.0000
  C   C23       1.0  0.42185  0.7765600000000001  0.93926  1.0000
  C   C24       1.0  0.4480099999999998  0.9535300000000001  0.8220200000000002  1.0000
  C   C25       1.0  0.30745000000000006  0.45834  0.29764  1.0000
  C   C26       1.0  0.8878299999999996  0.4846200000000001  0.98434  1.0000
  C   C27       1.0  0.17596  0.43457000000000007  0.33395  1.0000
  C   C28       1.0  0.08265999999999996  0.45696000000000003  0.28787  1.0000
  C   C29       1.0  0.8756799999999999  0.52537  0.05279  1.0000
  C   C30       1.0  0.14300999999999991  0.3960799999999999  0.4140300000000001  1.0000
  C   C31       1.0  0.7693799999999998  0.47113000000000005  0.9651000000000001  1.0000
  C   C32       1.0  0.015590000000000012  0.38481000000000004  0.44814  1.0000
  C   C33       1.0  0.01322  0.45908  0.9319000000000001  1.0000
  C   C34       1.0  0.9197299999999999  0.4141100000000001  0.40245  1.0000
  C   C35       1.0  0.7765499999999997  0.4216599999999999  0.4387200000000001  1.0000
  C   C36       1.0  0.9546999999999999  0.44769  0.32215  1.0000
  C   C37       1.0  0.5421400000000001  0.69295  0.20274  1.0000
  C   C38       1.0  0.5158699999999999  0.11222000000000001  0.51556  1.0000
  C   C39       1.0  0.56542  0.82462  0.16669000000000003  1.0000
  C   C40       1.0  0.5428399999999999  0.9185500000000001  0.2126  1.0000
  C   C41       1.0  0.47446  0.12433999999999998  0.44741  1.0000
  C   C42       1.0  0.6038299999999999  0.8567400000000001  0.08659  1.0000
  C   C43       1.0  0.53051  0.23031000000000004  0.53479  1.0000
  C   C44       1.0  0.6150499999999998  0.98397  0.05215  1.0000
  C   C45       1.0  0.5415399999999999  0.9868099999999997  0.5677700000000002  1.0000
  C   C46       1.0  0.58561  0.08055  0.09758  1.0000
  C   C47       1.0  0.5781599999999998  0.22343  0.06074  1.0000
  C   C48       1.0  0.552  0.04647  0.17798  1.0000
  O   O1        1.0  0.6632099999999999  0.5128500000000001  0.77496  1.0000
  O   O2        1.0  0.3517000000000001  0.48812  0.99305  1.0000
  O   O3        1.0  0.6161599999999995  0.55063  0.65791  1.0000
  O   O4        1.0  0.2122199999999999  0.57615  0.09445000000000002  1.0000
  O   O5        1.0  0.25475999999999993  0.60642  0.4883  1.0000
  O   O6        1.0  0.3082500000000001  0.5382299999999999  0.6067800000000001  1.0000
  O   O7        1.0  0.48557000000000006  0.33715  0.72464  1.0000
  O   O8        1.0  0.5118  0.64794  0.50588  1.0000
  O   O9        1.0  0.44905999999999996  0.38291999999999987  0.8421400000000002  1.0000
  O   O10       1.0  0.4196599999999999  0.7887499999999998  0.4066400000000001  1.0000
  O   O11       1.0  0.3931799999999999  0.74609  0.012240000000000003  1.0000
  O   O12       1.0  0.4624399999999999  0.6906199999999998  0.8942900000000003  1.0000
  O   O13       1.0  0.33679  0.48715  0.22504  1.0000
  O   O14       1.0  0.64831  0.51188  0.00695  1.0000
  O   O15       1.0  0.38385  0.44937000000000005  0.34208  1.0000
  O   O16       1.0  0.78779  0.42383999999999994  0.9055500000000002  1.0000
  O   O17       1.0  0.7452399999999998  0.39356999999999986  0.5116900000000002  1.0000
  O   O18       1.0  0.6917499999999999  0.4617699999999999  0.3932200000000001  1.0000
  O   O19       1.0  0.5144400000000001  0.66285  0.27536  1.0000
  O   O20       1.0  0.48820999999999976  0.35206  0.49411  1.0000
  O   O21       1.0  0.55095  0.61707  0.15786  1.0000
  O   O22       1.0  0.58035  0.21123999999999998  0.5933600000000001  1.0000
  O   O23       1.0  0.60682  0.25390999999999997  0.9877500000000001  1.0000
  O   O24       1.0  0.53757  0.30938  0.1057  1.0000
