data_image0
_chemical_formula_structural       Zn7H16C40N4O30
_chemical_formula_sum              "Zn7 H16 C40 N4 O30"
_cell_length_a       12.98159
_cell_length_b       12.96015
_cell_length_c       14.41274
_cell_angle_alpha    84.00867
_cell_angle_beta     84.08741
_cell_angle_gamma    88.58271

_symmetry_space_group_name_H-M    'P 1'
_symmetry_Int_Tables_number       1

loop_
  _symmetry_equiv_pos_as_xyz
  'x,y,z'

loop_
  _atom_site_type_symbol
  _atom_site_label
  _atom_site_symmetry_multiplicity
  _atom_site_fract_x
  _atom_site_fract_y
  _atom_site_fract_z
  _atom_site_occupancy
  Zn  Zn1       1.0  0.00885  0.18553  0.32656  1.0000
  Zn  Zn2       1.0  0.15995  0.15913  0.48949  1.0000
  Zn  Zn3       1.0  0.9912600000000003  0.8155  0.67289  1.0000
  Zn  Zn4       1.0  0.18484000000000006  0.00866  0.32687  1.0000
  Zn  Zn5       1.0  0.8382300000000003  0.8406500000000002  0.51088  1.0000
  Zn  Zn6       1.0  0.99777  0.0016699999999999977  0.49867  1.0000
  Zn  Zn7       1.0  0.8147000000000002  0.9909800000000001  0.67295  1.0000
  H   H1        1.0  0.50069  0.040650000000000006  0.26745  1.0000
  H   H2        1.0  0.04072000000000003  0.50173  0.26802  1.0000
  H   H3        1.0  0.6752200000000002  0.15824000000000005  0.52846  1.0000
  H   H4        1.0  0.8498900000000005  0.08632  0.9285  1.0000
  H   H5        1.0  0.4822500000000001  0.16449000000000003  0.53465  1.0000
  H   H6        1.0  0.16474999999999998  0.4829000000000001  0.53502  1.0000
  H   H7        1.0  0.83538  0.51788  0.46462999999999993  1.0000
  H   H8        1.0  0.15711  0.6760700000000002  0.52951  1.0000
  H   H9        1.0  0.32369000000000003  0.8430800000000002  0.47061  1.0000
  H   H10       1.0  0.5165400000000001  0.8353200000000002  0.4653499999999999  1.0000
  H   H11       1.0  0.8416900000000002  0.32469  0.4711  1.0000
  H   H12       1.0  0.95916  0.4996100000000001  0.73199  1.0000
  H   H13       1.0  0.91337  0.15026000000000006  0.07094  1.0000
  H   H14       1.0  0.49785000000000007  0.9594000000000001  0.7322699999999998  1.0000
  H   H15       1.0  0.08690000000000006  0.8495700000000002  0.9287599999999999  1.0000
  H   H16       1.0  0.1503  0.91317  0.0711  1.0000
  C   C1        1.0  0.5378000000000001  0.06724000000000002  0.32461  1.0000
  C   C2        1.0  0.06666000000000001  0.5387100000000001  0.32553  1.0000
  C   C3        1.0  0.90187  0.3033100000000001  0.60568  1.0000
  C   C4        1.0  0.6365  0.13397  0.47097  1.0000
  C   C5        1.0  0.91508  0.04914999999999999  0.9607  1.0000
  C   C6        1.0  0.63558  0.8988300000000001  0.59385  1.0000
  C   C7        1.0  0.10132  0.3635000000000001  0.40639999999999993  1.0000
  C   C8        1.0  0.52872  0.13694000000000006  0.47472  1.0000
  C   C9        1.0  0.8975400000000002  0.5217  0.5970599999999999  1.0000
  C   C10       1.0  0.13644  0.5294900000000001  0.47543  1.0000
  C   C11       1.0  0.81247  0.09512  0.39455999999999997  1.0000
  C   C12       1.0  0.93332  0.35482000000000014  0.67862  1.0000
  C   C13       1.0  0.6966499999999999  0.09826999999999998  0.39385  1.0000
  C   C14       1.0  0.86308  0.4714300000000001  0.52456  1.0000
  C   C15       1.0  0.07068  0.07052000000000001  0.16496  1.0000
  C   C16       1.0  0.13259  0.6374900000000002  0.47203  1.0000
  C   C17       1.0  0.06536  0.6464100000000002  0.32202  1.0000
  C   C18       1.0  0.1858  0.9062400000000002  0.6049  1.0000
  C   C19       1.0  0.36221000000000003  0.86758  0.52813  1.0000
  C   C20       1.0  0.09635000000000003  0.69795  0.39516  1.0000
  C   C21       1.0  0.46999  0.8637000000000002  0.52483  1.0000
  C   C22       1.0  0.86608  0.36349  0.52851  1.0000
  C   C23       1.0  0.9327100000000003  0.46262000000000003  0.67467  1.0000
  C   C24       1.0  0.035850000000000014  0.03568000000000001  0.07843  1.0000
  C   C25       1.0  0.10227000000000004  0.4794100000000001  0.40271  1.0000
  C   C26       1.0  0.5199500000000001  0.8979100000000002  0.59761  1.0000
  C   C27       1.0  0.64536  0.06672  0.32081  1.0000
  C   C28       1.0  0.35336  0.9348200000000002  0.6781299999999998  1.0000
  C   C29       1.0  0.95075  0.08498  0.03896  1.0000
  C   C30       1.0  0.8989500000000002  0.63771  0.59191  1.0000
  C   C31       1.0  0.92926  0.9291200000000002  0.83486  1.0000
  C   C32       1.0  0.90496  0.1873  0.60505  1.0000
  C   C33       1.0  0.36304  0.10125  0.40642  1.0000
  C   C34       1.0  0.4608600000000001  0.9335100000000002  0.67474  1.0000
  C   C35       1.0  0.4787700000000001  0.10251  0.40202  1.0000
  C   C36       1.0  0.09407000000000007  0.81419  0.39508  1.0000
  C   C37       1.0  0.9643  0.9640000000000002  0.9213  1.0000
  C   C38       1.0  0.04945000000000001  0.9148000000000002  0.9607199999999998  1.0000
  C   C39       1.0  0.08513  0.9505600000000001  0.039  1.0000
  C   C40       1.0  0.30188  0.9038800000000002  0.60492  1.0000
  N   N1        1.0  0.7052700000000002  0.03322  0.23598  1.0000
  N   N2        1.0  0.294  0.96753  0.76342  1.0000
  N   N3        1.0  0.9668  0.29481000000000007  0.76355  1.0000
  N   N4        1.0  0.03256  0.70591  0.23669  1.0000
  O   O1        1.0  0.85479  0.011139999999999999  0.42664  1.0000
  O   O2        1.0  0.14169  0.8191000000000003  0.62956  1.0000
  O   O3        1.0  0.9788000000000002  0.8526300000000002  0.8007099999999999  1.0000
  O   O4        1.0  0.08747  0.088  0.40535  1.0000
  O   O5        1.0  0.18118000000000006  0.8582500000000002  0.37049  1.0000
  O   O6        1.0  0.85668  0.68777  0.5239  1.0000
  O   O7        1.0  0.31276  0.14472  0.47337  1.0000
  O   O8        1.0  0.8186500000000001  0.14178  0.62947  1.0000
  O   O9        1.0  0.19805999999999996  0.9637700000000002  0.76795  1.0000
  O   O10       1.0  0.9885000000000003  0.14482000000000006  0.57283  1.0000
  O   O11       1.0  0.021000000000000005  0.14687000000000006  0.19916999999999999  1.0000
  O   O12       1.0  0.9422900000000001  0.6758000000000002  0.65594  1.0000
  O   O13       1.0  0.65627  0.004910000000000001  0.17391  1.0000
  O   O14       1.0  0.6862  0.8548600000000002  0.52732  1.0000
  O   O15       1.0  0.32527  0.05707000000000002  0.34274999999999994  1.0000
  O   O16       1.0  0.6729000000000002  0.9433800000000002  0.6575099999999999  1.0000
  O   O17       1.0  0.05656  0.3268  0.34249  1.0000
  O   O18       1.0  0.8527500000000001  0.97861  0.80066  1.0000
  O   O19       1.0  0.004609999999999997  0.6563200000000002  0.17487  1.0000
  O   O20       1.0  0.14132000000000003  0.9893800000000001  0.57389  1.0000
  O   O21       1.0  0.14726000000000006  0.021140000000000003  0.19914  1.0000
  O   O22       1.0  0.34356999999999993  0.9954400000000001  0.82529  1.0000
  O   O23       1.0  0.9634800000000001  0.19864999999999997  0.76765  1.0000
  O   O24       1.0  0.8581800000000002  0.18139  0.3704  1.0000
  O   O25       1.0  0.8012300000000001  0.036450000000000024  0.23215999999999995  1.0000
  O   O26       1.0  0.011059999999999992  0.8585600000000002  0.42598  1.0000
  O   O27       1.0  0.9118700000000002  0.9125600000000003  0.59355  1.0000
  O   O28       1.0  0.14525000000000005  0.31236  0.47267  1.0000
  O   O29       1.0  0.03627  0.8020300000000001  0.23206  1.0000
  O   O30       1.0  0.9951900000000002  0.3439100000000001  0.82548  1.0000
