data_image0
_chemical_formula_structural       Cu4H32C40N8Cl2
_chemical_formula_sum              "Cu4 H32 C40 N8 Cl2"
_cell_length_a       4.66223
_cell_length_b       15.660159999999998
_cell_length_c       16.03966
_cell_angle_alpha    90.03675
_cell_angle_beta     89.99046999999999
_cell_angle_gamma    89.99865999999999

_symmetry_space_group_name_H-M    'P 1'
_symmetry_Int_Tables_number       1

loop_
  _symmetry_equiv_pos_as_xyz
  'x,y,z'

loop_
  _atom_site_type_symbol
  _atom_site_label
  _atom_site_symmetry_multiplicity
  _atom_site_fract_x
  _atom_site_fract_y
  _atom_site_fract_z
  _atom_site_occupancy
  Cu  Cu1       1.0  0.25125  0.74984  0.60284  1.0000
  Cu  Cu2       1.0  0.25176999999999994  0.75049  0.8971699999999998  1.0000
  Cu  Cu3       1.0  0.74877  0.25017  0.39717  1.0000
  Cu  Cu4       1.0  0.74824  0.24951  0.10283  1.0000
  H   H1        1.0  0.74924  0.66657  0.67756  1.0000
  H   H2        1.0  0.40003  0.55729  0.63503  1.0000
  H   H3        1.0  0.8623999999999999  0.53741  0.40076  1.0000
  H   H4        1.0  0.20191  0.64245  0.45603  1.0000
  H   H5        1.0  0.75474  0.83268  0.67727  1.0000
  H   H6        1.0  0.10217999999999998  0.94269  0.63467  1.0000
  H   H7        1.0  0.63619  0.9627  0.40114  1.0000
  H   H8        1.0  0.2989299999999999  0.8569500000000002  0.4563699999999999  1.0000
  H   H9        1.0  0.75551  0.66772  0.82316  1.0000
  H   H10       1.0  0.10261999999999998  0.55783  0.86541  1.0000
  H   H11       1.0  0.6356299999999999  0.53693  0.09887  1.0000
  H   H12       1.0  0.29936  0.6431400000000002  0.044  1.0000
  H   H13       1.0  0.7497599999999998  0.8335900000000002  0.82224  1.0000
  H   H14       1.0  0.4004399999999999  0.94306  0.86494  1.0000
  H   H15       1.0  0.8620199999999999  0.96234  0.09927  1.0000
  H   H16       1.0  0.20207  0.85754  0.04382  1.0000
  H   H17       1.0  0.25077  0.33343  0.32244  1.0000
  H   H18       1.0  0.59998  0.44271  0.36497  1.0000
  H   H19       1.0  0.13761  0.46259  0.59924  1.0000
  H   H20       1.0  0.7981  0.3575600000000001  0.54398  1.0000
  H   H21       1.0  0.24526999999999996  0.16732  0.32273  1.0000
  H   H22       1.0  0.89784  0.05731  0.36533  1.0000
  H   H23       1.0  0.36383  0.0373  0.59887  1.0000
  H   H24       1.0  0.70109  0.14306  0.54363  1.0000
  H   H25       1.0  0.24449999999999997  0.33228  0.17684  1.0000
  H   H26       1.0  0.89739  0.44217  0.13459  1.0000
  H   H27       1.0  0.36438  0.4630700000000001  0.90113  1.0000
  H   H28       1.0  0.7006499999999999  0.35687  0.95601  1.0000
  H   H29       1.0  0.2502499999999999  0.16641  0.17776  1.0000
  H   H30       1.0  0.59957  0.05695  0.13506  1.0000
  H   H31       1.0  0.138  0.037670000000000016  0.90074  1.0000
  H   H32       1.0  0.7979499999999998  0.14247  0.95619  1.0000
  C   C1        1.0  0.7667799999999999  0.63597  0.61689  1.0000
  C   C2        1.0  0.56834  0.57517  0.5919  1.0000
  C   C3        1.0  0.59776  0.53303  0.51312  1.0000
  C   C4        1.0  0.8263  0.56256  0.4629799999999999  1.0000
  C   C5        1.0  0.01694  0.62303  0.49258  1.0000
  C   C6        1.0  0.73615  0.86354  0.61679  1.0000
  C   C7        1.0  0.93341  0.92462  0.59176  1.0000
  C   C8        1.0  0.90243  0.96696  0.51317  1.0000
  C   C9        1.0  0.6731699999999999  0.93748  0.46325  1.0000
  C   C10       1.0  0.48371999999999993  0.8766900000000002  0.49284  1.0000
  C   C11       1.0  0.73678  0.63687  0.88364  1.0000
  C   C12       1.0  0.9339499999999998  0.57568  0.90848  1.0000
  C   C13       1.0  0.9026099999999999  0.53313  0.98693  1.0000
  C   C14       1.0  0.6731199999999998  0.56242  0.03688  1.0000
  C   C15       1.0  0.48407999999999995  0.62343  0.00747  1.0000
  C   C16       1.0  0.7672099999999998  0.86424  0.8829  1.0000
  C   C17       1.0  0.5687199999999999  0.9249900000000002  0.90798  1.0000
  C   C18       1.0  0.5979199999999999  0.96702  0.98684  1.0000
  C   C19       1.0  0.8262599999999998  0.93737  0.03697  1.0000
  C   C20       1.0  0.01714  0.8770200000000002  0.00727  1.0000
  C   C21       1.0  0.23322999999999997  0.36403  0.38311  1.0000
  C   C22       1.0  0.43169  0.42483  0.4081  1.0000
  C   C23       1.0  0.40224999999999994  0.46697  0.48688  1.0000
  C   C24       1.0  0.17372  0.43745  0.53703  1.0000
  C   C25       1.0  0.9830699999999999  0.37697  0.50742  1.0000
  C   C26       1.0  0.26387  0.13647  0.38321  1.0000
  C   C27       1.0  0.0666  0.07538  0.40824  1.0000
  C   C28       1.0  0.09759  0.03305  0.48684  1.0000
  C   C29       1.0  0.32684  0.06252  0.53676  1.0000
  C   C30       1.0  0.5162899999999999  0.12332  0.50716  1.0000
  C   C31       1.0  0.2632399999999999  0.36314000000000013  0.11637  1.0000
  C   C32       1.0  0.06606  0.42433  0.09152  1.0000
  C   C33       1.0  0.0974  0.46688  0.01307  1.0000
  C   C34       1.0  0.3268799999999999  0.43759  0.96312  1.0000
  C   C35       1.0  0.5159399999999997  0.3765700000000001  0.99253  1.0000
  C   C36       1.0  0.2328  0.13576  0.11711  1.0000
  C   C37       1.0  0.43129999999999996  0.07501  0.09202  1.0000
  C   C38       1.0  0.40209  0.032980000000000016  0.01316  1.0000
  C   C39       1.0  0.17375999999999997  0.06263  0.96303  1.0000
  C   C40       1.0  0.98286  0.12299  0.9927299999999998  1.0000
  N   N1        1.0  0.9942599999999999  0.65948  0.56973  1.0000
  N   N2        1.0  0.50835  0.83984  0.56974  1.0000
  N   N3        1.0  0.50916  0.66051  0.93072  1.0000
  N   N4        1.0  0.99476  0.84066  0.93005  1.0000
  N   N5        1.0  0.00576  0.34052  0.43028  1.0000
  N   N6        1.0  0.4916599999999999  0.16016  0.43026  1.0000
  N   N7        1.0  0.49084999999999995  0.3395  0.06928  1.0000
  N   N8        1.0  0.00526  0.15934  0.06995  1.0000
  Cl  Cl1       1.0  0.24854999999999997  0.74656  0.75004  1.0000
  Cl  Cl2       1.0  0.75146  0.25344  0.24996  1.0000
