data_image0
_chemical_formula_structural       Zn4H12C32S4O28
_chemical_formula_sum              "Zn4 H12 C32 S4 O28"
_cell_length_a       11.26634
_cell_length_b       11.93634
_cell_length_c       12.620980000000001
_cell_angle_alpha    90.12574000000001
_cell_angle_beta     95.0819
_cell_angle_gamma    90.30272

_symmetry_space_group_name_H-M    'P 1'
_symmetry_Int_Tables_number       1

loop_
  _symmetry_equiv_pos_as_xyz
  'x,y,z'

loop_
  _atom_site_type_symbol
  _atom_site_label
  _atom_site_symmetry_multiplicity
  _atom_site_fract_x
  _atom_site_fract_y
  _atom_site_fract_z
  _atom_site_occupancy
  Zn  Zn1       1.0  0.8421700000000002  0.9689599999999998  0.02114  1.0000
  Zn  Zn2       1.0  0.65763  0.47017  0.47834  1.0000
  Zn  Zn3       1.0  0.15775000000000003  0.031140000000000004  0.9787200000000003  1.0000
  Zn  Zn4       1.0  0.34236000000000005  0.52986  0.5216  1.0000
  H   H1        1.0  0.68568  0.21281999999999998  0.64782  1.0000
  H   H2        1.0  0.32865000000000005  0.26576  0.7363500000000001  1.0000
  H   H3        1.0  0.54377  0.0014599999999999997  0.88412  1.0000
  H   H4        1.0  0.81469  0.71299  0.8505500000000003  1.0000
  H   H5        1.0  0.17215  0.7675499999999998  0.76244  1.0000
  H   H6        1.0  0.9569600000000001  0.49991  0.61579  1.0000
  H   H7        1.0  0.31437  0.7871399999999997  0.35221  1.0000
  H   H8        1.0  0.6713800000000001  0.73435  0.26369000000000004  1.0000
  H   H9        1.0  0.4562900000000001  0.9986  0.11594  1.0000
  H   H10       1.0  0.18548000000000003  0.28719  0.14986  1.0000
  H   H11       1.0  0.82788  0.23247999999999996  0.2374  1.0000
  H   H12       1.0  0.042680000000000023  0.50029  0.3842900000000001  1.0000
  C   C1        1.0  0.6261900000000001  0.10208999999999999  0.76779  1.0000
  C   C2        1.0  0.6132200000000001  0.18969  0.6948  1.0000
  C   C3        1.0  0.50552  0.24920999999999996  0.6842700000000002  1.0000
  C   C4        1.0  0.49119  0.3457  0.60925  1.0000
  C   C5        1.0  0.4119100000000001  0.21959  0.74502  1.0000
  C   C6        1.0  0.42614  0.13009  0.8165700000000002  1.0000
  C   C7        1.0  0.53342  0.07071  0.8283600000000001  1.0000
  C   C8        1.0  0.32724  0.09676  0.8790900000000001  1.0000
  C   C9        1.0  0.87408  0.60107  0.73161  1.0000
  C   C10       1.0  0.8871300000000001  0.6900099999999999  0.8036500000000001  1.0000
  C   C11       1.0  0.99487  0.7504999999999998  0.8139000000000001  1.0000
  C   C12       1.0  0.00907000000000001  0.84793  0.8883800000000001  1.0000
  C   C13       1.0  0.08868  0.72081  0.75362  1.0000
  C   C14       1.0  0.07431000000000001  0.63024  0.6827200000000001  1.0000
  C   C15       1.0  0.9669200000000002  0.56987  0.6712200000000001  1.0000
  C   C16       1.0  0.17311  0.5965099999999999  0.62049  1.0000
  C   C17       1.0  0.37387  0.8979099999999999  0.23221000000000006  1.0000
  C   C18       1.0  0.38683  0.81037  0.30525  1.0000
  C   C19       1.0  0.49452  0.7508999999999998  0.3158  1.0000
  C   C20       1.0  0.5088500000000001  0.65438  0.39079000000000014  1.0000
  C   C21       1.0  0.58814  0.7805099999999998  0.25507  1.0000
  C   C22       1.0  0.57394  0.8699899999999998  0.18348  1.0000
  C   C23       1.0  0.46669  0.92936  0.17172000000000004  1.0000
  C   C24       1.0  0.67286  0.90331  0.12095  1.0000
  C   C25       1.0  0.12598  0.39908999999999994  0.26873  1.0000
  C   C26       1.0  0.11300000000000002  0.31015  0.19666000000000006  1.0000
  C   C27       1.0  0.005280000000000001  0.24959999999999993  0.18629  1.0000
  C   C28       1.0  0.99106  0.15224  0.11172  1.0000
  C   C29       1.0  0.9113500000000002  0.27923  0.2464  1.0000
  C   C30       1.0  0.9256100000000003  0.36977999999999994  0.31731000000000004  1.0000
  C   C31       1.0  0.03295  0.4303  0.32888  1.0000
  C   C32       1.0  0.8267800000000001  0.4035  0.3794700000000001  1.0000
  S   S1        1.0  0.7625100000000001  0.026659999999999993  0.7848500000000002  1.0000
  S   S2        1.0  0.7373700000000001  0.52431  0.71515  1.0000
  S   S3        1.0  0.23753  0.97329  0.21512000000000003  1.0000
  S   S4        1.0  0.26285000000000003  0.47583  0.28478  1.0000
  O   O1        1.0  0.8234  0.06843  0.89046  1.0000
  O   O2        1.0  0.83338  0.05761999999999999  0.6978200000000001  1.0000
  O   O3        1.0  0.73141  0.9075  0.79357  1.0000
  O   O4        1.0  0.4109400000000001  0.41718  0.6244900000000001  1.0000
  O   O5        1.0  0.56024  0.34852  0.5342800000000001  1.0000
  O   O6        1.0  0.22543000000000002  0.14359  0.86723  1.0000
  O   O7        1.0  0.33941  0.0171  0.94787  1.0000
  O   O8        1.0  0.6755700000000002  0.56588  0.6099900000000001  1.0000
  O   O9        1.0  0.66705  0.55438  0.80284  1.0000
  O   O10       1.0  0.76832  0.4055399999999999  0.7043200000000002  1.0000
  O   O11       1.0  0.08938  0.91985  0.87303  1.0000
  O   O12       1.0  0.94004  0.85074  0.9634300000000001  1.0000
  O   O13       1.0  0.2744  0.64558  0.63015  1.0000
  O   O14       1.0  0.16106  0.51414  0.5541600000000001  1.0000
  O   O15       1.0  0.17688  0.93156  0.10941000000000001  1.0000
  O   O16       1.0  0.1666  0.94232  0.30205  1.0000
  O   O17       1.0  0.26854  0.09246999999999998  0.20638000000000006  1.0000
  O   O18       1.0  0.58901  0.58288  0.37548  1.0000
  O   O19       1.0  0.43977  0.65153  0.46576  1.0000
  O   O20       1.0  0.77463  0.8564499999999998  0.13268  1.0000
  O   O21       1.0  0.66058  0.98293  0.05212  1.0000
  O   O22       1.0  0.32617000000000007  0.43419  0.3893  1.0000
  O   O23       1.0  0.33275000000000005  0.44586  0.19678000000000007  1.0000
  O   O24       1.0  0.23157000000000005  0.59454  0.29556000000000004  1.0000
  O   O25       1.0  0.91076  0.08026  0.12702  1.0000
  O   O26       1.0  0.06005  0.14949  0.03661  1.0000
  O   O27       1.0  0.72548  0.35445  0.36985  1.0000
  O   O28       1.0  0.8389200000000002  0.48578999999999994  0.4458600000000001  1.0000
