data_image0
_chemical_formula_structural       Ni4H12C12O24
_chemical_formula_sum              "Ni4 H12 C12 O24"
_cell_length_a       8.9463
_cell_length_b       7.36583
_cell_length_c       11.185289999999998
_cell_angle_alpha    90.11998999999999
_cell_angle_beta     89.8868
_cell_angle_gamma    89.98222

_symmetry_space_group_name_H-M    'P 1'
_symmetry_Int_Tables_number       1

loop_
  _symmetry_equiv_pos_as_xyz
  'x,y,z'

loop_
  _atom_site_type_symbol
  _atom_site_label
  _atom_site_symmetry_multiplicity
  _atom_site_fract_x
  _atom_site_fract_y
  _atom_site_fract_z
  _atom_site_occupancy
  Ni  Ni1       1.0  0.74018  0.7455800000000002  0.7481100000000003  1.0000
  Ni  Ni2       1.0  0.75689  0.74534  0.24748000000000006  1.0000
  Ni  Ni3       1.0  0.25648  0.24595000000000006  0.25221  1.0000
  Ni  Ni4       1.0  0.23998  0.24524000000000004  0.75216  1.0000
  H   H1        1.0  0.48795000000000005  0.48851  0.66613  1.0000
  H   H2        1.0  0.00372  0.49947000000000014  0.3285600000000001  1.0000
  H   H3        1.0  0.00231  0.0018500000000000003  0.16859  1.0000
  H   H4        1.0  0.47945  0.9775400000000002  0.83448  1.0000
  H   H5        1.0  0.50982  0.4931800000000001  0.32946000000000003  1.0000
  H   H6        1.0  0.99248  0.48951000000000006  0.66573  1.0000
  H   H7        1.0  0.9825600000000001  0.015320000000000002  0.8330000000000001  1.0000
  H   H8        1.0  0.5138  0.01386  0.17103  1.0000
  H   H9        1.0  0.75062  0.8336200000000002  0.49881000000000003  1.0000
  H   H10       1.0  0.74892  0.65731  0.99713  1.0000
  H   H11       1.0  0.25276  0.15506000000000006  0.50388  1.0000
  H   H12       1.0  0.24931  0.33463  0.9995500000000002  1.0000
  C   C1        1.0  0.48489  0.4962200000000001  0.76417  1.0000
  C   C2        1.0  0.00603  0.49685  0.23023000000000005  1.0000
  C   C3        1.0  0.00564  0.99695  0.26692  1.0000
  C   C4        1.0  0.48932999999999993  0.9948200000000001  0.73723  1.0000
  C   C5        1.0  0.5076  0.49327  0.23114000000000004  1.0000
  C   C6        1.0  0.98862  0.4882100000000001  0.76389  1.0000
  C   C7        1.0  0.9928  0.9996200000000001  0.7356200000000003  1.0000
  C   C8        1.0  0.50858  0.00197  0.26899  1.0000
  C   C9        1.0  0.74889  0.6847600000000003  0.49904  1.0000
  C   C10       1.0  0.74836  0.8060500000000003  0.99724  1.0000
  C   C11       1.0  0.24773999999999996  0.3037100000000001  0.50415  1.0000
  C   C12       1.0  0.25044  0.18594000000000008  0.9996000000000002  1.0000
  O   O1        1.0  0.74096  0.60005  0.5988000000000001  1.0000
  O   O2        1.0  0.57846  0.59197  0.82114  1.0000
  O   O3        1.0  0.38544  0.4081300000000001  0.82268  1.0000
  O   O4        1.0  0.75489  0.59818  0.40037000000000006  1.0000
  O   O5        1.0  0.91131  0.58975  0.17199  1.0000
  O   O6        1.0  0.10274  0.4005600000000001  0.17600000000000002  1.0000
  O   O7        1.0  0.75449  0.89246  0.096  1.0000
  O   O8        1.0  0.9108600000000001  0.9007400000000001  0.32296  1.0000
  O   O9        1.0  0.10311  0.08798000000000003  0.32386  1.0000
  O   O10       1.0  0.7418  0.8914000000000002  0.89786  1.0000
  O   O11       1.0  0.58917  0.9119400000000002  0.67777  1.0000
  O   O12       1.0  0.39948  0.10010000000000002  0.68176  1.0000
  O   O13       1.0  0.25179  0.39202000000000004  0.4068700000000001  1.0000
  O   O14       1.0  0.40828  0.4015400000000001  0.17659  1.0000
  O   O15       1.0  0.60414  0.58397  0.17313  1.0000
  O   O16       1.0  0.23761999999999997  0.3888700000000001  0.60442  1.0000
  O   O17       1.0  0.08206  0.39165  0.8226  1.0000
  O   O18       1.0  0.8926299999999999  0.5808500000000002  0.82093  1.0000
  O   O19       1.0  0.24444000000000002  0.10028000000000002  0.8993200000000002  1.0000
  O   O20       1.0  0.09636  0.08323  0.6786800000000001  1.0000
  O   O21       1.0  0.90344  0.89949  0.6777800000000002  1.0000
  O   O22       1.0  0.25788  0.09827000000000002  0.09687  1.0000
  O   O23       1.0  0.41108  0.09184000000000003  0.32737  1.0000
  O   O24       1.0  0.60044  0.8996300000000003  0.3229000000000001  1.0000
