data_image0
_chemical_formula_structural       Zn5P2H8C16O16
_chemical_formula_sum              "Zn5 P2 H8 C16 O16"
_cell_length_a       7.91696
_cell_length_b       10.09979
_cell_length_c       10.78362
_cell_angle_alpha    63.27554000000001
_cell_angle_beta     74.96039999999999
_cell_angle_gamma    69.36005

_symmetry_space_group_name_H-M    'P 1'
_symmetry_Int_Tables_number       1

loop_
  _symmetry_equiv_pos_as_xyz
  'x,y,z'

loop_
  _atom_site_type_symbol
  _atom_site_label
  _atom_site_symmetry_multiplicity
  _atom_site_fract_x
  _atom_site_fract_y
  _atom_site_fract_z
  _atom_site_occupancy
  Zn  Zn1       1.0  0.5491000000000003  0.35294000000000003  0.31303  1.0000
  Zn  Zn2       1.0  0.9277900000000004  0.31327  0.06845  1.0000
  Zn  Zn3       1.0  0.4509  0.64706  0.68696  1.0000
  Zn  Zn4       1.0  0.07220999999999997  0.6867300000000001  0.9315499999999999  1.0000
  Zn  Zn5       1.0  0.5000000000000001  0.5  0.0  1.0000
  P   P1        1.0  0.16743999999999998  0.40145  0.19048  1.0000
  P   P2        1.0  0.8325500000000001  0.59855  0.80952  1.0000
  H   H1        1.0  0.27965999999999996  0.09892000000000001  0.41293  1.0000
  H   H2        1.0  0.8531000000000003  0.52421  0.3608299999999999  1.0000
  H   H3        1.0  0.8624700000000003  0.13272000000000003  0.75306  1.0000
  H   H4        1.0  0.7050100000000001  0.5515600000000002  0.10546  1.0000
  H   H5        1.0  0.72034  0.90108  0.58707  1.0000
  H   H6        1.0  0.14688999999999997  0.4757900000000001  0.6391699999999999  1.0000
  H   H7        1.0  0.13752999999999999  0.86728  0.24693  1.0000
  H   H8        1.0  0.29498  0.44844  0.89453  1.0000
  C   C1        1.0  0.15706999999999996  0.16661000000000006  0.45374999999999993  1.0000
  C   C2        1.0  0.07507000000000004  0.31934999999999997  0.37008  1.0000
  C   C3        1.0  0.9163400000000002  0.40478  0.42436  1.0000
  C   C4        1.0  0.08215999999999997  0.09908  0.5926  1.0000
  C   C5        1.0  0.8391900000000003  0.33607000000000004  0.56229  1.0000
  C   C6        1.0  0.6736100000000005  0.42423  0.62576  1.0000
  C   C7        1.0  0.9229100000000003  0.18393  0.64594  1.0000
  C   C8        1.0  0.1691299999999999  0.9360300000000001  0.6812599999999999  1.0000
  C   C9        1.0  0.84292  0.8333899999999999  0.54625  1.0000
  C   C10       1.0  0.9249200000000001  0.6806500000000001  0.62992  1.0000
  C   C11       1.0  0.08366000000000007  0.59522  0.57563  1.0000
  C   C12       1.0  0.9178400000000002  0.9009200000000002  0.40738999999999986  1.0000
  C   C13       1.0  0.16079999999999992  0.6639300000000001  0.43771  1.0000
  C   C14       1.0  0.32639  0.57577  0.37423  1.0000
  C   C15       1.0  0.07709  0.81607  0.35405  1.0000
  C   C16       1.0  0.8308700000000002  0.06397000000000004  0.31872999999999996  1.0000
  O   O1        1.0  0.68955  0.45229  0.12336  1.0000
  O   O2        1.0  0.37884000000000007  0.37181  0.18297  1.0000
  O   O3        1.0  0.6167900000000001  0.5721899999999999  0.55078  1.0000
  O   O4        1.0  0.6009699999999999  0.35880000000000006  0.7463799999999999  1.0000
  O   O5        1.0  0.29100999999999994  0.85728  0.61778  1.0000
  O   O6        1.0  0.11571999999999995  0.8874500000000001  0.8127699999999998  1.0000
  O   O7        1.0  0.14973000000000003  0.31406  0.11016  1.0000
  O   O8        1.0  0.06745000000000013  0.57464  0.13424  1.0000
  O   O9        1.0  0.31044000000000016  0.54771  0.87664  1.0000
  O   O10       1.0  0.6211599999999999  0.62819  0.81703  1.0000
  O   O11       1.0  0.38320000000000004  0.4278100000000001  0.44922  1.0000
  O   O12       1.0  0.39902000000000015  0.6412000000000001  0.25361  1.0000
  O   O13       1.0  0.7089800000000005  0.14272  0.38220999999999994  1.0000
  O   O14       1.0  0.8842800000000001  0.11255000000000003  0.18722999999999998  1.0000
  O   O15       1.0  0.85027  0.6859400000000001  0.8898299999999999  1.0000
  O   O16       1.0  0.9325500000000009  0.42536  0.86576  1.0000
