data_image0
_chemical_formula_structural       Ce4H12C28S2N4O24
_chemical_formula_sum              "Ce4 H12 C28 S2 N4 O24"
_cell_length_a       6.86077
_cell_length_b       13.118670000000002
_cell_length_c       14.56588
_cell_angle_alpha    116.99327000000001
_cell_angle_beta     93.94399
_cell_angle_gamma    91.11162

_symmetry_space_group_name_H-M    'P 1'
_symmetry_Int_Tables_number       1

loop_
  _symmetry_equiv_pos_as_xyz
  'x,y,z'

loop_
  _atom_site_type_symbol
  _atom_site_label
  _atom_site_symmetry_multiplicity
  _atom_site_fract_x
  _atom_site_fract_y
  _atom_site_fract_z
  _atom_site_occupancy
  Ce  Ce1       1.0  0.4878  0.7072099999999999  0.79478  1.0000
  Ce  Ce2       1.0  0.0033199999999999944  0.9106099999999999  0.20514  1.0000
  Ce  Ce3       1.0  0.507  0.29277  0.20545000000000002  1.0000
  Ce  Ce4       1.0  0.001079999999999982  0.08812999999999996  0.7925199999999999  1.0000
  H   H1        1.0  0.62659  0.9825  0.55182  1.0000
  H   H2        1.0  0.53983  0.69151  0.26715  1.0000
  H   H3        1.0  0.59677  0.64832  0.54259  1.0000
  H   H4        1.0  0.87165  0.43027  0.44987  1.0000
  H   H5        1.0  0.9616399999999998  0.42603000000000013  0.7335100000000001  1.0000
  H   H6        1.0  0.90381  0.10505000000000003  0.45645  1.0000
  H   H7        1.0  0.3728  0.016689999999999976  0.44884  1.0000
  H   H8        1.0  0.46079  0.30879  0.73264  1.0000
  H   H9        1.0  0.40316  0.34988999999999987  0.45614  1.0000
  H   H10       1.0  0.12696999999999994  0.56749  0.54787  1.0000
  H   H11       1.0  0.038  0.57394  0.26513  1.0000
  H   H12       1.0  0.09739  0.8936499999999999  0.54353  1.0000
  C   C1        1.0  0.6489299999999999  0.8767299999999999  0.6773300000000001  1.0000
  C   C2        1.0  0.6187  0.8233499999999998  0.56218  1.0000
  C   C3        1.0  0.6112099999999999  0.8893999999999997  0.50872  1.0000
  C   C4        1.0  0.56023  0.7293799999999999  0.35133000000000003  1.0000
  C   C5        1.0  0.56255  0.65611  0.39791  1.0000
  C   C6        1.0  0.59351  0.7037599999999998  0.50506  1.0000
  C   C7        1.0  0.52877  0.53025  0.3326799999999999  1.0000
  C   C8        1.0  0.8500699999999999  0.19852999999999993  0.32334  1.0000
  C   C9        1.0  0.88156  0.26066  0.43836  1.0000
  C   C10       1.0  0.8886199999999999  0.38054  0.49252  1.0000
  C   C11       1.0  0.94084  0.3788  0.64927  1.0000
  C   C12       1.0  0.93872  0.25849  0.60186  1.0000
  C   C13       1.0  0.90697  0.19831999999999989  0.49462  1.0000
  C   C14       1.0  0.97386  0.19862999999999992  0.6666  1.0000
  C   C15       1.0  0.35052  0.12184000000000002  0.32238  1.0000
  C   C16       1.0  0.38147  0.17534999999999998  0.43753  1.0000
  C   C17       1.0  0.389  0.10984  0.49148  1.0000
  C   C18       1.0  0.4406  0.2707499999999999  0.64846  1.0000
  C   C19       1.0  0.43821  0.34357  0.60138  1.0000
  C   C20       1.0  0.40689  0.29501  0.49419  1.0000
  C   C21       1.0  0.47002  0.46965  0.66625  1.0000
  C   C22       1.0  0.14793  0.79899  0.67591  1.0000
  C   C23       1.0  0.11634  0.73754  0.56075  1.0000
  C   C24       1.0  0.10983999999999998  0.61766  0.50572  1.0000
  C   C25       1.0  0.05930999999999998  0.6205699999999998  0.34942  1.0000
  C   C26       1.0  0.06299  0.74101  0.39761  1.0000
  C   C27       1.0  0.09324  0.80036  0.50488  1.0000
  C   C28       1.0  0.028860000000000004  0.80286  0.33446  1.0000
  S   S1        1.0  0.7504499999999997  0.79856  0.99867  1.0000
  S   S2        1.0  0.25258  0.19956999999999994  0.99955  1.0000
  N   N1        1.0  0.58191  0.8439  0.40488  1.0000
  N   N2        1.0  0.9182499999999999  0.43957  0.5964  1.0000
  N   N3        1.0  0.41856  0.15619999999999995  0.59541  1.0000
  N   N4        1.0  0.08116  0.5591500000000001  0.40178  1.0000
  O   O1        1.0  0.53306  0.46298  0.37474  1.0000
  O   O2        1.0  0.49533  0.49025  0.2343  1.0000
  O   O3        1.0  0.62547  0.81091  0.71878  1.0000
  O   O4        1.0  0.6975599999999998  0.98373  0.72986  1.0000
  O   O5        1.0  0.5666999999999998  0.72178  0.96825  1.0000
  O   O6        1.0  0.7825699999999998  0.81764  0.90618  1.0000
  O   O7        1.0  0.97109  0.08885000000000001  0.6245  1.0000
  O   O8        1.0  0.008429999999999995  0.25807  0.7648  1.0000
  O   O9        1.0  0.8693999999999998  0.09094999999999999  0.28067  1.0000
  O   O10       1.0  0.8043299999999999  0.25343  0.27204  1.0000
  O   O11       1.0  0.9251499999999998  0.7489  0.0283  1.0000
  O   O12       1.0  0.72376  0.91021  0.09302  1.0000
  O   O13       1.0  0.46395  0.53722  0.62463  1.0000
  O   O14       1.0  0.50353  0.50992  0.76474  1.0000
  O   O15       1.0  0.37077  0.18787  0.28099  1.0000
  O   O16       1.0  0.30489  0.014379999999999999  0.26959  1.0000
  O   O17       1.0  0.43452999999999997  0.27857  0.03262  1.0000
  O   O18       1.0  0.21777  0.18031  0.09179  1.0000
  O   O19       1.0  0.03536  0.9123499999999999  0.37754  1.0000
  O   O20       1.0  0.99136  0.7438299999999999  0.23603  1.0000
  O   O21       1.0  0.13324  0.9070499999999999  0.71886  1.0000
  O   O22       1.0  0.1892  0.74296  0.72665  1.0000
  O   O23       1.0  0.07668000000000003  0.24731000000000003  0.9682700000000001  1.0000
  O   O24       1.0  0.28471  0.08900000000000002  0.90563  1.0000
