data_image0
_chemical_formula_structural       Nd4H16C24O24
_chemical_formula_sum              "Nd4 H16 C24 O24"
_cell_length_a       7.93798
_cell_length_b       12.302329999999998
_cell_length_c       13.42787
_cell_angle_alpha    64.41882999999999
_cell_angle_beta     91.83601
_cell_angle_gamma    82.55329000000002

_space_group_name_H-M_alt    "P 1"
_space_group_IT_number       1

loop_
  _space_group_symop_operation_xyz
  'x, y, z'

loop_
  _atom_site_type_symbol
  _atom_site_label
  _atom_site_symmetry_multiplicity
  _atom_site_fract_x
  _atom_site_fract_y
  _atom_site_fract_z
  _atom_site_occupancy
  Nd  Nd1       1.0  0.02982  0.63909  0.6987800000000001  1.0000
  Nd  Nd2       1.0  0.51692  0.6459199999999998  0.74107  1.0000
  Nd  Nd3       1.0  0.96986  0.36034  0.30085  1.0000
  Nd  Nd4       1.0  0.48002  0.3535  0.2583  1.0000
  H   H1        1.0  0.27141  0.28995  0.85829  1.0000
  H   H2        1.0  0.40055  0.24209999999999998  0.98446  1.0000
  H   H3        1.0  0.03199000000000001  0.38698999999999995  0.9270300000000001  1.0000
  H   H4        1.0  0.08802  0.23193  0.01497  1.0000
  H   H5        1.0  0.7202  0.03891999999999997  0.66072  1.0000
  H   H6        1.0  0.91129  0.95587  0.64566  1.0000
  H   H7        1.0  0.59228  0.07119000000000002  0.47658  1.0000
  H   H8        1.0  0.76454  0.9749399999999999  0.46336000000000005  1.0000
  H   H9        1.0  0.72738  0.7080699999999999  0.14193  1.0000
  H   H10       1.0  0.5955999999999998  0.75739  0.01654  1.0000
  H   H11       1.0  0.9611899999999999  0.60807  0.07204  1.0000
  H   H12       1.0  0.9105500000000001  0.76444  0.9859  1.0000
  H   H13       1.0  0.2838800000000001  0.9583299999999998  0.3380500000000001  1.0000
  H   H14       1.0  0.09045999999999998  0.041710000000000025  0.3502  1.0000
  H   H15       1.0  0.40613  0.92998  0.52241  1.0000
  H   H16       1.0  0.23051000000000002  0.02595999999999998  0.53261  1.0000
  C   C1        1.0  0.36979  0.43082999999999994  0.87673  1.0000
  C   C2        1.0  0.29857  0.31303000000000003  0.92736  1.0000
  C   C3        1.0  0.13711  0.3190499999999999  0.98455  1.0000
  C   C4        1.0  0.1604  0.34834  0.08237  1.0000
  C   C5        1.0  0.8564800000000001  0.45474  0.68119  1.0000
  C   C6        1.0  0.76135  0.40399999999999997  0.62351  1.0000
  C   C7        1.0  0.69027  0.37998  0.55538  1.0000
  C   C8        1.0  0.62406  0.3630999999999999  0.4625  1.0000
  C   C9        1.0  0.69241  0.86401  0.6706999999999999  1.0000
  C   C10       1.0  0.77236  0.9788499999999998  0.62434  1.0000
  C   C11       1.0  0.7303  0.04043999999999999  0.49789  1.0000
  C   C12       1.0  0.81578  0.14928  0.4348  1.0000
  C   C13       1.0  0.6245  0.56862  0.12352  1.0000
  C   C14       1.0  0.69741  0.68574  0.07288  1.0000
  C   C15       1.0  0.8579499999999999  0.67874  0.01532  1.0000
  C   C16       1.0  0.83289  0.6512100000000001  0.91691  1.0000
  C   C17       1.0  0.14326999999999995  0.5455899999999998  0.31704  1.0000
  C   C18       1.0  0.23782  0.5967899999999999  0.37466000000000005  1.0000
  C   C19       1.0  0.3097299999999999  0.6198899999999998  0.44322  1.0000
  C   C20       1.0  0.37627  0.6360399999999999  0.53654  1.0000
  C   C21       1.0  0.30815  0.13447999999999996  0.32729  1.0000
  C   C22       1.0  0.22911  0.019149999999999993  0.37305  1.0000
  C   C23       1.0  0.26817999999999986  0.9593299999999999  0.4998  1.0000
  C   C24       1.0  0.18369  0.8503399999999999  0.56391  1.0000
  O   O1        1.0  0.26741  0.53463  0.83908  1.0000
  O   O2        1.0  0.5274  0.42950000000000005  0.86593  1.0000
  O   O3        1.0  0.77473  0.53058  0.71292  1.0000
  O   O4        1.0  0.017770000000000015  0.43469999999999986  0.69134  1.0000
  O   O5        1.0  0.75784  0.7727299999999999  0.65152  1.0000
  O   O6        1.0  0.55984  0.8575599999999998  0.7207000000000001  1.0000
  O   O7        1.0  0.3001400000000001  0.37905  0.10176  1.0000
  O   O8        1.0  0.03392000000000002  0.33976999999999996  0.14061  1.0000
  O   O9        1.0  0.7651  0.21421999999999997  0.32932  1.0000
  O   O10       1.0  0.93342  0.17898999999999998  0.47893  1.0000
  O   O11       1.0  0.5098800000000001  0.2984399999999999  0.46973000000000004  1.0000
  O   O12       1.0  0.69042  0.42019999999999996  0.37102  1.0000
  O   O13       1.0  0.7251799999999998  0.46438  0.15955  1.0000
  O   O14       1.0  0.46695000000000003  0.5710599999999999  0.136  1.0000
  O   O15       1.0  0.22586  0.46424999999999994  0.29192  1.0000
  O   O16       1.0  0.9824100000000001  0.5690699999999997  0.3014  1.0000
  O   O17       1.0  0.24070000000000003  0.22512999999999997  0.34658  1.0000
  O   O18       1.0  0.4418799999999999  0.14201999999999995  0.27825  1.0000
  O   O19       1.0  0.6925000000000001  0.6209699999999999  0.8979700000000002  1.0000
  O   O20       1.0  0.95881  0.6598799999999998  0.8583500000000001  1.0000
  O   O21       1.0  0.23477999999999993  0.78642  0.6695000000000001  1.0000
  O   O22       1.0  0.06604999999999997  0.8199400000000001  0.52058  1.0000
  O   O23       1.0  0.49165000000000003  0.6995199999999998  0.53018  1.0000
  O   O24       1.0  0.30882  0.5795700000000001  0.62765  1.0000
