data_image0
_chemical_formula_structural       Co2H4C20O16
_chemical_formula_sum              "Co2 H4 C20 O16"
_cell_length_a       9.14047
_cell_length_b       9.13118
_cell_length_c       11.39134
_cell_angle_alpha    91.21137000000002
_cell_angle_beta     91.37177999999999
_cell_angle_gamma    105.80452000000001

_symmetry_space_group_name_H-M    'P 1'
_symmetry_Int_Tables_number       1

loop_
  _symmetry_equiv_pos_as_xyz
  'x,y,z'

loop_
  _atom_site_type_symbol
  _atom_site_label
  _atom_site_symmetry_multiplicity
  _atom_site_fract_x
  _atom_site_fract_y
  _atom_site_fract_z
  _atom_site_occupancy
  Co  Co1       1.0  0.022199999999999984  0.99952  0.7438600000000001  1.0000
  Co  Co2       1.0  0.9983000000000001  0.02183  0.24483000000000002  1.0000
  H   H1        1.0  0.53597  0.05244000000000001  0.7179900000000001  1.0000
  H   H2        1.0  0.93395  0.47487000000000007  0.7870300000000001  1.0000
  H   H3        1.0  0.47311  0.93466  0.28724  1.0000
  H   H4        1.0  0.05044  0.53541  0.21793  1.0000
  C   C1        1.0  0.3775200000000001  0.9966  0.56888  1.0000
  C   C2        1.0  0.35877999999999993  0.9612099999999999  0.44726  1.0000
  C   C3        1.0  0.52226  0.02674  0.62392  1.0000
  C   C4        1.0  0.2452  0.99973  0.63841  1.0000
  C   C5        1.0  0.20552000000000006  0.91229  0.38404000000000005  1.0000
  C   C6        1.0  0.99114  0.63111  0.9357300000000001  1.0000
  C   C7        1.0  0.023949999999999996  0.64956  0.05770000000000001  1.0000
  C   C8        1.0  0.9595599999999999  0.48660000000000003  0.88119  1.0000
  C   C9        1.0  0.9909499999999999  0.76361  0.86238  1.0000
  C   C10       1.0  0.07064  0.80465  0.1178  1.0000
  C   C11       1.0  0.63026  0.99241  0.43576000000000004  1.0000
  C   C12       1.0  0.64865  0.02521  0.5577  1.0000
  C   C13       1.0  0.48566999999999994  0.96056  0.38133  1.0000
  C   C14       1.0  0.7630100000000001  0.9936000000000001  0.36272  1.0000
  C   C15       1.0  0.80364  0.07317  0.61748  1.0000
  C   C16       1.0  0.99534  0.37783  0.0686  1.0000
  C   C17       1.0  0.9604599999999999  0.35922  0.9468400000000001  1.0000
  C   C18       1.0  0.025140000000000006  0.52253  0.12377  1.0000
  C   C19       1.0  0.99916  0.24544  0.13831  1.0000
  C   C20       1.0  0.9124300000000001  0.20635  0.8827  1.0000
  O   O1        1.0  0.11242000000000008  0.9779600000000002  0.58881  1.0000
  O   O2        1.0  0.2507  0.023250000000000003  0.7504700000000001  1.0000
  O   O3        1.0  0.17069  0.02953  0.33364  1.0000
  O   O4        1.0  0.13392  0.77789  0.37593  1.0000
  O   O5        1.0  0.9852900000000001  0.88891  0.9108600000000001  1.0000
  O   O6        1.0  1.000000000002643e-05  0.75586  0.7506899999999999  1.0000
  O   O7        1.0  0.9588199999999999  0.82852  0.18429000000000004  1.0000
  O   O8        1.0  0.19691000000000003  0.8930400000000001  0.10989  1.0000
  O   O9        1.0  0.8891600000000001  0.99082  0.41147  1.0000
  O   O10       1.0  0.75526  0.0010300000000000005  0.25084  1.0000
  O   O11       1.0  0.82904  0.9620899999999999  0.68426  1.0000
  O   O12       1.0  0.89021  0.20025000000000007  0.60878  1.0000
  O   O13       1.0  0.9779  0.11277  0.08886  1.0000
  O   O14       1.0  0.023019999999999978  0.25103  0.25038  1.0000
  O   O15       1.0  0.02985000000000003  0.17115000000000005  0.8335300000000001  1.0000
  O   O16       1.0  0.77808  0.13543  0.8723000000000001  1.0000
