data_image0
_chemical_formula_structural       Y2H12C24O12
_chemical_formula_sum              "Y2 H12 C24 O12"
_cell_length_a       8.71819
_cell_length_b       10.51888
_cell_length_c       11.13859
_cell_angle_alpha    100.32209
_cell_angle_beta     116.05433000000001
_cell_angle_gamma    109.36165

_symmetry_space_group_name_H-M    'P 1'
_symmetry_Int_Tables_number       1

loop_
  _symmetry_equiv_pos_as_xyz
  'x,y,z'

loop_
  _atom_site_type_symbol
  _atom_site_label
  _atom_site_symmetry_multiplicity
  _atom_site_fract_x
  _atom_site_fract_y
  _atom_site_fract_z
  _atom_site_occupancy
  Y   Y1        1.0  0.29354  0.00456  0.00907  1.0000
  Y   Y2        1.0  0.70645  0.99544  0.99093  1.0000
  H   H1        1.0  0.8285199999999998  0.36775  0.07681  1.0000
  H   H2        1.0  0.021059999999999985  0.61942  0.10274  1.0000
  H   H3        1.0  0.5045  0.60789  0.78127  1.0000
  H   H4        1.0  0.3090499999999999  0.3576  0.7593299999999998  1.0000
  H   H5        1.0  0.88164  0.61251  0.63289  1.0000
  H   H6        1.0  0.3345999999999999  0.64136  0.56132  1.0000
  H   H7        1.0  0.17147999999999988  0.6322499999999999  0.9231799999999999  1.0000
  H   H8        1.0  0.9789299999999996  0.38058  0.8972599999999998  1.0000
  H   H9        1.0  0.49548999999999993  0.39210000000000006  0.21872  1.0000
  H   H10       1.0  0.6909399999999998  0.6424  0.24066  1.0000
  H   H11       1.0  0.11835999999999997  0.38748999999999995  0.3671  1.0000
  H   H12       1.0  0.6653899999999998  0.35863999999999996  0.43866999999999995  1.0000
  C   C1        1.0  0.5585  0.34683  0.91396  1.0000
  C   C2        1.0  0.75903  0.42073  0.01219  1.0000
  C   C3        1.0  0.86608  0.56041  0.02631  1.0000
  C   C4        1.0  0.77449  0.62668  0.94108  1.0000
  C   C5        1.0  0.5733899999999998  0.55355  0.84451  1.0000
  C   C6        1.0  0.46520000000000017  0.41444  0.83156  1.0000
  C   C7        1.0  0.44748999999999994  0.20237  0.9090599999999999  1.0000
  C   C8        1.0  0.8927899999999996  0.7751999999999999  0.9556499999999999  1.0000
  C   C9        1.0  0.11971999999999995  0.64056  0.60808  1.0000
  C   C10       1.0  0.9307899999999998  0.5615999999999999  0.5735299999999999  1.0000
  C   C11       1.0  0.18821999999999992  0.57835  0.53369  1.0000
  C   C12       1.0  0.24940999999999994  0.7871099999999999  0.72955  1.0000
  C   C13       1.0  0.44149999999999995  0.6531600000000001  0.08602999999999998  1.0000
  C   C14       1.0  0.24096000000000006  0.57927  0.9878000000000001  1.0000
  C   C15       1.0  0.13391  0.43959  0.97368  1.0000
  C   C16       1.0  0.22549999999999995  0.37332  0.05892000000000001  1.0000
  C   C17       1.0  0.4266  0.44644000000000006  0.15549  1.0000
  C   C18       1.0  0.53479  0.58556  0.16843999999999998  1.0000
  C   C19       1.0  0.5524999999999998  0.79763  0.09094  1.0000
  C   C20       1.0  0.10720999999999999  0.22480000000000003  0.04435  1.0000
  C   C21       1.0  0.8802699999999998  0.35943  0.39192  1.0000
  C   C22       1.0  0.06920000000000003  0.4384  0.42647  1.0000
  C   C23       1.0  0.8117799999999997  0.42164999999999997  0.46630999999999995  1.0000
  C   C24       1.0  0.7505699999999997  0.21288999999999997  0.27044  1.0000
  O   O1        1.0  0.53788  0.12896000000000002  0.95753  1.0000
  O   O2        1.0  0.27299  0.15572999999999998  0.87183  1.0000
  O   O3        1.0  0.07416999999999999  0.81972  0.014379999999999999  1.0000
  O   O4        1.0  0.81006  0.85087  0.90784  1.0000
  O   O5        1.0  0.17461999999999994  0.84241  0.7852199999999999  1.0000
  O   O6        1.0  0.42858  0.84449  0.77277  1.0000
  O   O7        1.0  0.46212  0.8710400000000001  0.04245999999999999  1.0000
  O   O8        1.0  0.727  0.84427  0.12817  1.0000
  O   O9        1.0  0.92581  0.18026999999999999  0.98561  1.0000
  O   O10       1.0  0.18992999999999993  0.14913  0.09216  1.0000
  O   O11       1.0  0.82537  0.15758  0.21477  1.0000
  O   O12       1.0  0.57141  0.15551  0.22723  1.0000
