data_image0
_chemical_formula_structural       Sr3H12C24O12
_chemical_formula_sum              "Sr3 H12 C24 O12"
_cell_length_a       9.87183
_cell_length_b       10.6335
_cell_length_c       10.63346
_cell_angle_alpha    120.13086999999999
_cell_angle_beta     89.95666
_cell_angle_gamma    90.02371999999998

_space_group_name_H-M_alt    "P 1"
_space_group_IT_number       1

loop_
  _space_group_symop_operation_xyz
  'x, y, z'

loop_
  _atom_site_type_symbol
  _atom_site_label
  _atom_site_symmetry_multiplicity
  _atom_site_fract_x
  _atom_site_fract_y
  _atom_site_fract_z
  _atom_site_occupancy
  Sr  Sr1       1.0  0.15883  0.01661999999999999  0.10964  1.0000
  Sr  Sr2       1.0  0.82539  0.09296999999999993  0.98354  1.0000
  Sr  Sr3       1.0  0.49229  0.8902899999999996  0.9067599999999999  1.0000
  H   H1        1.0  0.8745299999999999  0.7880199999999999  0.66239  1.0000
  H   H2        1.0  0.80553  0.58052  0.42182  1.0000
  H   H3        1.0  0.20672  0.40274  0.36308  1.0000
  H   H4        1.0  0.27881  0.61671  0.59694  1.0000
  H   H5        1.0  0.5413199999999999  0.8745499999999998  0.21218  1.0000
  H   H6        1.0  0.47221  0.84103  0.41905  1.0000
  H   H7        1.0  0.87338  0.96016  0.59668  1.0000
  H   H8        1.0  0.94572  0.9799999999999999  0.38310999999999995  1.0000
  H   H9        1.0  0.20776999999999998  0.33772  0.12538  1.0000
  H   H10       1.0  0.13887  0.57814  0.15904  1.0000
  H   H11       1.0  0.5402  0.63622  0.03957  1.0000
  H   H12       1.0  0.61236  0.40291  0.01989  1.0000
  C   C1        1.0  0.12137  0.8415  0.78859  1.0000
  C   C2        1.0  0.08101  0.7159699999999999  0.6450199999999999  1.0000
  C   C3        1.0  0.94745  0.70461  0.5955799999999998  1.0000
  C   C4        1.0  0.90812  0.58778  0.46228  1.0000
  C   C5        1.0  0.0009299999999999999  0.4772299999999999  0.37808  1.0000
  C   C6        1.0  0.95657  0.35157  0.23531999999999997  1.0000
  C   C7        1.0  0.13421999999999998  0.48744999999999994  0.42868  1.0000
  C   C8        1.0  0.17472999999999997  0.60669  0.55991  1.0000
  C   C9        1.0  0.7880999999999999  0.94702  0.15856  1.0000
  C   C10       1.0  0.74778  0.9290899999999999  0.28400999999999993  1.0000
  C   C11       1.0  0.6142  0.8910399999999998  0.29546  1.0000
  C   C12       1.0  0.5748  0.8744199999999999  0.41198  1.0000
  C   C13       1.0  0.66759  0.90085  0.52243  1.0000
  C   C14       1.0  0.62325  0.88406  0.64813  1.0000
  C   C15       1.0  0.80093  0.9411299999999999  0.5121  1.0000
  C   C16       1.0  0.8415499999999999  0.9531299999999998  0.39308  1.0000
  C   C17       1.0  0.45479  0.21163999999999997  0.05333  1.0000
  C   C18       1.0  0.41438  0.3549  0.07098999999999998  1.0000
  C   C19       1.0  0.28081  0.40447  0.10901  1.0000
  C   C20       1.0  0.24146999999999993  0.53765  0.12559  1.0000
  C   C21       1.0  0.33431  0.62153  0.09899  1.0000
  C   C22       1.0  0.28998  0.76393  0.11543  1.0000
  C   C23       1.0  0.46763999999999994  0.5708  0.05872  1.0000
  C   C24       1.0  0.50821  0.4398299999999999  0.04684  1.0000
  O   O1        1.0  0.03438999999999999  0.94197  0.86381  1.0000
  O   O2        1.0  0.24008  0.8445599999999999  0.83816  1.0000
  O   O3        1.0  0.8407899999999999  0.35526999999999986  0.18565999999999996  1.0000
  O   O4        1.0  0.038459999999999994  0.24300999999999998  0.16671  1.0000
  O   O5        1.0  0.7012999999999999  0.92091  0.057830000000000006  1.0000
  O   O6        1.0  0.9066299999999999  0.9940999999999999  0.15573  1.0000
  O   O7        1.0  0.50757  0.8304899999999997  0.64453  1.0000
  O   O8        1.0  0.7051899999999998  0.9245499999999998  0.75666  1.0000
  O   O9        1.0  0.36812  0.13705999999999996  0.07962999999999999  1.0000
  O   O10       1.0  0.57336  0.16174  0.00623  1.0000
  O   O11       1.0  0.17444  0.81428  0.16927  1.0000
  O   O12       1.0  0.37191  0.83151  0.07445999999999998  1.0000
