data_image0
_chemical_formula_structural       Zn3H21C30N14O6F3
_chemical_formula_sum              "Zn3 H21 C30 N14 O6 F3"
_cell_length_a       12.92317
_cell_length_b       12.922530000000002
_cell_length_c       12.922569999999999
_cell_angle_alpha    108.30471000000001
_cell_angle_beta     108.31893999999998
_cell_angle_gamma    108.31899

_symmetry_space_group_name_H-M    'P 1'
_symmetry_Int_Tables_number       1

loop_
  _symmetry_equiv_pos_as_xyz
  'x,y,z'

loop_
  _atom_site_type_symbol
  _atom_site_label
  _atom_site_symmetry_multiplicity
  _atom_site_fract_x
  _atom_site_fract_y
  _atom_site_fract_z
  _atom_site_occupancy
  Zn  Zn1       1.0  0.0306  0.03059  0.0306  1.0000
  Zn  Zn2       1.0  0.28678  0.28676  0.28676  1.0000
  Zn  Zn3       1.0  0.78132  0.78136  0.78137  1.0000
  H   H1        1.0  0.4337099999999999  0.34965999999999997  0.55007  1.0000
  H   H2        1.0  0.6085799999999998  0.5240999999999998  0.72315  1.0000
  H   H3        1.0  0.55022  0.43378  0.34978  1.0000
  H   H4        1.0  0.72319  0.60877  0.52425  1.0000
  H   H5        1.0  0.34964  0.54997  0.43359  1.0000
  H   H6        1.0  0.5239999999999999  0.7231199999999998  0.60853  1.0000
  H   H7        1.0  0.55022  0.34978  0.43379  1.0000
  H   H8        1.0  0.72319  0.52425  0.60877  1.0000
  H   H9        1.0  0.34964  0.43359  0.54997  1.0000
  H   H10       1.0  0.5240000000000001  0.60853  0.72312  1.0000
  H   H11       1.0  0.43370999999999993  0.55007  0.34966  1.0000
  H   H12       1.0  0.60858  0.72315  0.52411  1.0000
  H   H13       1.0  0.20226000000000002  0.20223999999999998  0.63798  1.0000
  H   H14       1.0  0.8265  0.82657  0.49532  1.0000
  H   H15       1.0  0.87802  0.878  0.34122  1.0000
  H   H16       1.0  0.63807  0.20228  0.20228000000000002  1.0000
  H   H17       1.0  0.4952799999999999  0.8265799999999998  0.8265800000000001  1.0000
  H   H18       1.0  0.3412300000000001  0.8780799999999999  0.8780800000000001  1.0000
  H   H19       1.0  0.20226000000000002  0.63797  0.20224  1.0000
  H   H20       1.0  0.8265099999999999  0.4953199999999999  0.8265800000000001  1.0000
  H   H21       1.0  0.87802  0.34122  0.878  1.0000
  C   C1        1.0  0.07625  0.07615  0.39097  1.0000
  C   C2        1.0  0.043439999999999986  0.043399999999999966  0.47851999999999995  1.0000
  C   C3        1.0  0.11934999999999998  0.11934  0.60461  1.0000
  C   C4        1.0  0.08884999999999998  0.08887  0.68859  1.0000
  C   C5        1.0  0.98311  0.98316  0.65246  1.0000
  C   C6        1.0  0.90859  0.90863  0.52493  1.0000
  C   C7        1.0  0.9368899999999999  0.93688  0.43897  1.0000
  C   C8        1.0  0.9462999999999997  0.94635  0.7393499999999998  1.0000
  C   C9        1.0  0.43587  0.43584  0.55238  1.0000
  C   C10       1.0  0.54961  0.54964  0.66538  1.0000
  C   C11       1.0  0.39103999999999994  0.07626999999999998  0.07627  1.0000
  C   C12       1.0  0.47857  0.04347  0.04347  1.0000
  C   C13       1.0  0.60466  0.11935999999999995  0.11935999999999998  1.0000
  C   C14       1.0  0.68862  0.08887999999999999  0.08888  1.0000
  C   C15       1.0  0.6524499999999999  0.98315  0.98315  1.0000
  C   C16       1.0  0.5249199999999999  0.9086499999999997  0.9086599999999999  1.0000
  C   C17       1.0  0.43898999999999994  0.9369399999999999  0.93694  1.0000
  C   C18       1.0  0.73932  0.9463099999999998  0.94632  1.0000
  C   C19       1.0  0.5525100000000001  0.4359500000000001  0.43595000000000006  1.0000
  C   C20       1.0  0.66541  0.54976  0.54977  1.0000
  C   C21       1.0  0.07625  0.39096  0.07615  1.0000
  C   C22       1.0  0.04344  0.47851  0.0434  1.0000
  C   C23       1.0  0.11934999999999997  0.6046  0.11934  1.0000
  C   C24       1.0  0.08884999999999997  0.68859  0.08887  1.0000
  C   C25       1.0  0.98312  0.6524599999999999  0.9831700000000001  1.0000
  C   C26       1.0  0.90859  0.52493  0.9086400000000001  1.0000
  C   C27       1.0  0.9368899999999999  0.4389699999999999  0.93689  1.0000
  C   C28       1.0  0.9462999999999998  0.7393499999999997  0.94635  1.0000
  C   C29       1.0  0.4358699999999999  0.5523899999999998  0.43583999999999995  1.0000
  C   C30       1.0  0.54961  0.66537  0.54964  1.0000
  N   N1        1.0  0.07297000000000001  0.07292  0.22448  1.0000
  N   N2        1.0  0.17295999999999997  0.17285  0.31967  1.0000
  N   N3        1.0  0.1779  0.17775999999999997  0.42558  1.0000
  N   N4        1.0  0.010509999999999986  0.010460000000000007  0.26709  1.0000
  N   N5        1.0  0.22455  0.07299999999999998  0.073  1.0000
  N   N6        1.0  0.31976  0.17296  0.17296  1.0000
  N   N7        1.0  0.42567000000000005  0.17789  0.1779  1.0000
  N   N8        1.0  0.26716  0.01056  0.01056  1.0000
  N   N9        1.0  0.07297  0.22447999999999996  0.07292  1.0000
  N   N10       1.0  0.17295999999999997  0.31967  0.17285  1.0000
  N   N11       1.0  0.1779  0.4255799999999999  0.17776  1.0000
  N   N12       1.0  0.010509999999999983  0.26709  0.01046  1.0000
  N   N13       1.0  0.43683  0.43678  0.43678000000000006  1.0000
  N   N14       1.0  0.62479  0.62487  0.62488  1.0000
  O   O1        1.0  0.010629999999999995  0.010609999999999975  0.85344  1.0000
  O   O2        1.0  0.84514  0.84527  0.68569  1.0000
  O   O3        1.0  0.85339  0.01057  0.01057  1.0000
  O   O4        1.0  0.68559  0.84518  0.84519  1.0000
  O   O5        1.0  0.010630000000000027  0.85344  0.01061  1.0000
  O   O6        1.0  0.84514  0.68569  0.8452700000000001  1.0000
  F   F1        1.0  0.16701999999999997  0.16701999999999997  0.80843  1.0000
  F   F2        1.0  0.8084599999999998  0.16701999999999997  0.16702  1.0000
  F   F3        1.0  0.16701  0.80842  0.16702  1.0000
