data_image0
_chemical_formula_structural       Cd2H16C22N6O8
_chemical_formula_sum              "Cd2 H16 C22 N6 O8"
_cell_length_a       9.89747
_cell_length_b       7.57016
_cell_length_c       9.658800000000001
_cell_angle_alpha    71.64717
_cell_angle_beta     68.01298
_cell_angle_gamma    76.60162

_space_group_name_H-M_alt    "P 1"
_space_group_IT_number       1

loop_
  _space_group_symop_operation_xyz
  'x, y, z'

loop_
  _atom_site_type_symbol
  _atom_site_label
  _atom_site_symmetry_multiplicity
  _atom_site_fract_x
  _atom_site_fract_y
  _atom_site_fract_z
  _atom_site_occupancy
  Cd  Cd1       1.0  0.9880499999999999  0.2586  0.0037800000000000004  1.0000
  Cd  Cd2       1.0  0.011949999999999968  0.7414  0.99622  1.0000
  H   H1        1.0  0.50954  0.18245999999999998  0.36953  1.0000
  H   H2        1.0  0.672  0.56562  0.1942  1.0000
  H   H3        1.0  0.1963499999999999  0.5263700000000002  0.24496  1.0000
  H   H4        1.0  0.62802  0.9710000000000001  0.56221  1.0000
  H   H5        1.0  0.7460399999999999  0.8559799999999999  0.85888  1.0000
  H   H6        1.0  0.4904499999999999  0.8175400000000003  0.63047  1.0000
  H   H7        1.0  0.37196999999999997  0.028999999999999995  0.43779  1.0000
  H   H8        1.0  0.8036399999999999  0.47363000000000016  0.75504  1.0000
  H   H9        1.0  0.48184999999999995  0.26205000000000006  0.11177000000000001  1.0000
  H   H10       1.0  0.7901599999999999  0.3283599999999999  0.5607700000000002  1.0000
  H   H11       1.0  0.20983999999999994  0.67164  0.43923  1.0000
  H   H12       1.0  0.5181399999999998  0.7379500000000002  0.8882300000000002  1.0000
  H   H13       1.0  0.84788  0.92861  0.31716  1.0000
  H   H14       1.0  0.15211000000000002  0.07138999999999998  0.68284  1.0000
  H   H15       1.0  0.32799  0.43438  0.8058  1.0000
  H   H16       1.0  0.25396  0.14402  0.14112  1.0000
  C   C1        1.0  0.36176  0.08058000000000001  0.08081  1.0000
  C   C2        1.0  0.2231999999999999  0.1577200000000001  0.68757  1.0000
  C   C3        1.0  0.6382299999999997  0.91942  0.9191900000000001  1.0000
  C   C4        1.0  0.44737999999999994  0.08176000000000001  0.46981  1.0000
  C   C5        1.0  0.11129  0.51535  0.3571700000000001  1.0000
  C   C6        1.0  0.006989999999999965  0.5818  0.6085  1.0000
  C   C7        1.0  0.8818599999999999  0.40268  0.5355  1.0000
  C   C8        1.0  0.9929999999999999  0.41820000000000007  0.3915  1.0000
  C   C9        1.0  0.7768  0.8422800000000001  0.31243000000000004  1.0000
  C   C10       1.0  0.31733  0.34082  0.74658  1.0000
  C   C11       1.0  0.018979999999999945  0.6594000000000002  0.72749  1.0000
  C   C12       1.0  0.48835999999999996  0.14695000000000005  0.06386  1.0000
  C   C13       1.0  0.8886999999999999  0.4846500000000001  0.64283  1.0000
  C   C14       1.0  0.9810099999999999  0.34060000000000007  0.27251  1.0000
  C   C15       1.0  0.6273199999999999  0.06634999999999991  0.98396  1.0000
  C   C16       1.0  0.23779999999999998  0.86915  0.02466  1.0000
  C   C17       1.0  0.11813  0.59732  0.4645000000000001  1.0000
  C   C18       1.0  0.5116300000000001  0.85305  0.93614  1.0000
  C   C19       1.0  0.68266  0.65918  0.25342  1.0000
  C   C20       1.0  0.55261  0.9182400000000003  0.53019  1.0000
  C   C21       1.0  0.7621899999999999  0.13084999999999997  0.9753400000000001  1.0000
  C   C22       1.0  0.37267  0.93365  0.01604  1.0000
  N   N1        1.0  0.5765799999999998  0.70633  0.3739100000000001  1.0000
  N   N2        1.0  0.8075700000000001  0.73979  0.21137000000000006  1.0000
  N   N3        1.0  0.42341  0.29366999999999993  0.6260900000000001  1.0000
  N   N4        1.0  0.36086999999999997  0.17822999999999997  0.58971  1.0000
  N   N5        1.0  0.63912  0.82177  0.41029  1.0000
  N   N6        1.0  0.19241999999999998  0.26021  0.78863  1.0000
  O   O1        1.0  0.06607999999999999  0.40102  0.13065000000000002  1.0000
  O   O2        1.0  0.10793000000000007  0.77277  0.6934  1.0000
  O   O3        1.0  0.88967  0.057749999999999975  0.90334  1.0000
  O   O4        1.0  0.9339099999999999  0.59898  0.86935  1.0000
  O   O5        1.0  0.74622  0.25799  0.04377  1.0000
  O   O6        1.0  0.11032999999999996  0.9422500000000001  0.09666  1.0000
  O   O7        1.0  0.8920699999999999  0.22723  0.30660000000000004  1.0000
  O   O8        1.0  0.2537699999999999  0.74201  0.9562300000000001  1.0000
