data_image0
_chemical_formula_structural       Mg2H12C32N4O16
_chemical_formula_sum              "Mg2 H12 C32 N4 O16"
_cell_length_a       10.24876
_cell_length_b       12.65217
_cell_length_c       15.69228
_cell_angle_alpha    84.16590000000001
_cell_angle_beta     76.06218
_cell_angle_gamma    65.45623

_symmetry_space_group_name_H-M    'P 1'
_symmetry_Int_Tables_number       1

loop_
  _symmetry_equiv_pos_as_xyz
  'x,y,z'

loop_
  _atom_site_type_symbol
  _atom_site_label
  _atom_site_symmetry_multiplicity
  _atom_site_fract_x
  _atom_site_fract_y
  _atom_site_fract_z
  _atom_site_occupancy
  Mg  Mg1       1.0  0.18766999999999998  0.62263  0.24949999999999994  1.0000
  Mg  Mg2       1.0  0.81233  0.37736  0.7505  1.0000
  H   H1        1.0  0.3660699999999999  0.4794300000000001  0.00704  1.0000
  H   H2        1.0  0.27923  0.19414  0.14211999999999994  1.0000
  H   H3        1.0  0.5979099999999999  0.13539  0.89442  1.0000
  H   H4        1.0  0.15569000000000002  0.48214  0.49191  1.0000
  H   H5        1.0  0.5270400000000001  0.19281  0.35639  1.0000
  H   H6        1.0  0.2668299999999999  0.13886  0.6055  1.0000
  H   H7        1.0  0.6339299999999998  0.52057  0.9929599999999997  1.0000
  H   H8        1.0  0.7207699999999999  0.80586  0.85788  1.0000
  H   H9        1.0  0.40208000000000005  0.8646  0.10558  1.0000
  H   H10       1.0  0.8443099999999998  0.51786  0.50808  1.0000
  H   H11       1.0  0.47296000000000027  0.80718  0.6436099999999998  1.0000
  H   H12       1.0  0.7331699999999997  0.86114  0.39449  1.0000
  C   C1        1.0  0.3859499999999999  0.3879099999999999  0.0103  1.0000
  C   C2        1.0  0.3365  0.22816999999999998  0.0863  1.0000
  C   C3        1.0  0.5171200000000001  0.19479  0.94576  1.0000
  C   C4        1.0  0.4891299999999997  0.31223  0.94283  1.0000
  C   C5        1.0  0.43806  0.15366  0.01801  1.0000
  C   C6        1.0  0.31164000000000003  0.34555  0.08248  1.0000
  C   C7        1.0  0.2132300000000001  0.42504  0.15874999999999995  1.0000
  C   C8        1.0  0.5718499999999996  0.36156000000000005  0.86766  1.0000
  C   C9        1.0  0.22708000000000014  0.39004999999999995  0.4887899999999999  1.0000
  C   C10       1.0  0.43579999999999997  0.22785  0.41245  1.0000
  C   C11       1.0  0.28887  0.1973  0.55382  1.0000
  C   C12       1.0  0.19985999999999998  0.31541  0.55672  1.0000
  C   C13       1.0  0.40878999999999965  0.15424  0.48121  1.0000
  C   C14       1.0  0.34346000000000004  0.346  0.41635  1.0000
  C   C15       1.0  0.36116  0.42556000000000005  0.34017  1.0000
  C   C16       1.0  0.06799000000000002  0.36617999999999995  0.63229  1.0000
  C   C17       1.0  0.61405  0.61209  0.9896999999999998  1.0000
  C   C18       1.0  0.6634999999999999  0.7718200000000001  0.9136999999999997  1.0000
  C   C19       1.0  0.4828799999999999  0.80521  0.05422999999999999  1.0000
  C   C20       1.0  0.5108699999999998  0.68777  0.057169999999999985  1.0000
  C   C21       1.0  0.5619399999999999  0.84633  0.98198  1.0000
  C   C22       1.0  0.6883599999999999  0.65445  0.9175199999999998  1.0000
  C   C23       1.0  0.78677  0.57495  0.84125  1.0000
  C   C24       1.0  0.42815  0.63844  0.13234  1.0000
  C   C25       1.0  0.7729199999999999  0.60994  0.51121  1.0000
  C   C26       1.0  0.5641999999999999  0.77214  0.58755  1.0000
  C   C27       1.0  0.7111299999999999  0.8027  0.44618  1.0000
  C   C28       1.0  0.8001399999999999  0.68458  0.44328  1.0000
  C   C29       1.0  0.59121  0.84576  0.51879  1.0000
  C   C30       1.0  0.6565399999999997  0.654  0.58365  1.0000
  C   C31       1.0  0.6388399999999997  0.57444  0.65983  1.0000
  C   C32       1.0  0.9320099999999999  0.63382  0.36771  1.0000
  N   N1        1.0  0.45495999999999986  0.03787  0.027169999999999993  1.0000
  N   N2        1.0  0.50689  0.03736  0.47236  1.0000
  N   N3        1.0  0.5450399999999999  0.96213  0.97283  1.0000
  N   N4        1.0  0.49311  0.96263  0.52763  1.0000
  O   O1        1.0  0.19392000000000006  0.53209  0.15111  1.0000
  O   O2        1.0  0.16133999999999984  0.38005  0.2259  1.0000
  O   O3        1.0  0.5122199999999998  0.46954  0.85722  1.0000
  O   O4        1.0  0.6948199999999999  0.29129  0.82221  1.0000
  O   O5        1.0  0.27376000000000006  0.53343  0.34898  1.0000
  O   O6        1.0  0.4562399999999999  0.38021999999999995  0.27218  1.0000
  O   O7        1.0  0.015779999999999992  0.47456000000000004  0.64057  1.0000
  O   O8        1.0  0.019299999999999953  0.29601  0.68002  1.0000
  O   O9        1.0  0.8060800000000001  0.4679  0.8488799999999997  1.0000
  O   O10       1.0  0.83866  0.61994  0.7741  1.0000
  O   O11       1.0  0.4877799999999998  0.53045  0.14278  1.0000
  O   O12       1.0  0.30517999999999995  0.7087000000000001  0.17779  1.0000
  O   O13       1.0  0.7262399999999994  0.46656  0.65102  1.0000
  O   O14       1.0  0.5437599999999999  0.61977  0.72782  1.0000
  O   O15       1.0  0.9842099999999999  0.52543  0.35943  1.0000
  O   O16       1.0  0.9806999999999999  0.70399  0.31998  1.0000
