data_image0
_chemical_formula_structural       Eu2H4C14N4O12
_chemical_formula_sum              "Eu2 H4 C14 N4 O12"
_cell_length_a       6.14596
_cell_length_b       10.61789
_cell_length_c       12.79314
_cell_angle_alpha    67.9694
_cell_angle_beta     84.39318
_cell_angle_gamma    70.95317

_space_group_name_H-M_alt    "P 1"
_space_group_IT_number       1

loop_
  _space_group_symop_operation_xyz
  'x, y, z'

loop_
  _atom_site_type_symbol
  _atom_site_label
  _atom_site_symmetry_multiplicity
  _atom_site_fract_x
  _atom_site_fract_y
  _atom_site_fract_z
  _atom_site_occupancy
  Eu  Eu1       1.0  0.89444  0.61388  0.22829  1.0000
  Eu  Eu2       1.0  0.10423999999999996  0.39751999999999993  0.7742800000000001  1.0000
  H   H1        1.0  0.35213  0.03196  0.04161  1.0000
  H   H2        1.0  0.6534400000000002  0.26323999999999986  0.63788  1.0000
  H   H3        1.0  0.6450500000000002  0.9711699999999999  0.9573300000000001  1.0000
  H   H4        1.0  0.3375500000000001  0.74233  0.36108  1.0000
  C   C1        1.0  0.31905999999999995  0.76298  0.15841  1.0000
  C   C2        1.0  0.14735  0.89178  0.07675  1.0000
  C   C3        1.0  0.19402  0.02061999999999999  0.02022  1.0000
  C   C4        1.0  0.96979  0.35423  0.4795  1.0000
  C   C5        1.0  0.7174300000000002  0.42919000000000007  0.48801  1.0000
  C   C6        1.0  0.58366  0.37157  0.57712  1.0000
  C   C7        1.0  0.12998000000000007  0.41994  0.04433  1.0000
  C   C8        1.0  0.6800000000000002  0.2421500000000001  0.8399599999999999  1.0000
  C   C9        1.0  0.8515  0.11206999999999993  0.9208  1.0000
  C   C10       1.0  0.8042800000000002  0.9829499999999998  0.97742  1.0000
  C   C11       1.0  0.027190000000000013  0.65381  0.52134  1.0000
  C   C12       1.0  0.2772800000000001  0.5770299999999998  0.5111  1.0000
  C   C13       1.0  0.41017000000000015  0.6345700000000001  0.42165  1.0000
  C   C14       1.0  0.8613700000000002  0.5768299999999997  0.96549  1.0000
  N   N1        1.0  0.9500099999999999  0.87368  0.0571  1.0000
  N   N2        1.0  0.62801  0.56127  0.40902  1.0000
  N   N3        1.0  0.048179999999999994  0.13035000000000002  0.9409799999999999  1.0000
  N   N4        1.0  0.3673700000000001  0.4457  0.59067  1.0000
  O   O1        1.0  0.25995000000000007  0.6504299999999998  0.20019  1.0000
  O   O2        1.0  0.5075500000000001  0.7753699999999998  0.17773  1.0000
  O   O3        1.0  0.050780000000000075  0.3952099999999999  0.37957  1.0000
  O   O4        1.0  0.08119  0.2651299999999999  0.56729  1.0000
  O   O5        1.0  0.13968000000000003  0.41552999999999995  0.14024  1.0000
  O   O6        1.0  0.22825  0.35994  0.97852  1.0000
  O   O7        1.0  0.7420700000000002  0.35319999999999985  0.7946500000000001  1.0000
  O   O8        1.0  0.4863900000000001  0.23190999999999998  0.82577  1.0000
  O   O9        1.0  0.9553099999999999  0.61597  0.62356  1.0000
  O   O10       1.0  0.9110900000000004  0.73997  0.43393000000000004  1.0000
  O   O11       1.0  0.8531599999999998  0.57833  0.8701700000000001  1.0000
  O   O12       1.0  0.7606000000000004  0.6397999999999999  0.028740000000000005  1.0000
