data_image0
_chemical_formula_structural       Fe2H10C16O10
_chemical_formula_sum              "Fe2 H10 C16 O10"
_cell_length_a       7.02588
_cell_length_b       11.382259999999999
_cell_length_c       11.362860000000001
_cell_angle_alpha    79.13684
_cell_angle_beta     72.38213
_cell_angle_gamma    71.9523

_space_group_name_H-M_alt    "P 1"
_space_group_IT_number       1

loop_
  _space_group_symop_operation_xyz
  'x, y, z'

loop_
  _atom_site_type_symbol
  _atom_site_label
  _atom_site_symmetry_multiplicity
  _atom_site_fract_x
  _atom_site_fract_y
  _atom_site_fract_z
  _atom_site_occupancy
  Fe  Fe1       1.0  0.5000199999999999  4.9999999999993924e-05  0.99995  1.0000
  Fe  Fe2       1.0  0.9999899999999999  7.000000000000791e-05  0.99991  1.0000
  H   H1        1.0  0.36284  0.3843  0.00083  1.0000
  H   H2        1.0  0.23205999999999996  0.8735000000000002  0.12657  1.0000
  H   H3        1.0  0.1386300000000001  0.99919  0.61479  1.0000
  H   H4        1.0  0.24593999999999996  0.61684  0.99913  1.0000
  H   H5        1.0  0.7679099999999998  0.12666  0.87327  1.0000
  H   H6        1.0  0.2535  0.0009000000000000034  0.38228  1.0000
  H   H7        1.0  0.6370999999999999  0.61578  0.99917  1.0000
  H   H8        1.0  0.86146  0.000810000000000002  0.38511  1.0000
  H   H9        1.0  0.7540499999999998  0.38324000000000014  0.0008699999999999999  1.0000
  H   H10       1.0  0.74654  0.99909  0.61762  1.0000
  C   C1        1.0  0.20499999999999996  0.43593  0.00025  1.0000
  C   C2        1.0  0.29580999999999996  0.9997200000000002  0.56325  1.0000
  C   C3        1.0  0.14027999999999993  0.5645500000000001  0.9997  1.0000
  C   C4        1.0  0.35958  0.00028000000000000084  0.43475  1.0000
  C   C5        1.0  0.7949500000000002  0.56416  0.99975  1.0000
  C   C6        1.0  0.7042800000000001  0.0002700000000000092  0.43662999999999996  1.0000
  C   C7        1.0  0.8596799999999998  0.4355400000000001  0.00031  1.0000
  C   C8        1.0  0.6404899999999997  0.9997100000000001  0.56514  1.0000
  C   C9        1.0  0.06503999999999999  0.37069  0.00045999999999999996  1.0000
  C   C10       1.0  0.13449000000000005  0.23225000000000007  0.9997299999999999  1.0000
  C   C11       1.0  0.43566  0.99953  0.62909  1.0000
  C   C12       1.0  0.3651400000000001  0.0002400000000000139  0.7673499999999999  1.0000
  C   C13       1.0  0.9349200000000001  0.6294  0.99953  1.0000
  C   C14       1.0  0.8655000000000002  0.76785  0.0002  1.0000
  C   C15       1.0  0.56441  0.0004700000000000003  0.3708  1.0000
  C   C16       1.0  0.6348799999999998  0.9998200000000002  0.23253  1.0000
  O   O1        1.0  0.3238  0.17854  0.99896  1.0000
  O   O2        1.0  0.17607999999999993  0.0013599999999999966  0.81882  1.0000
  O   O3        1.0  0.0013999999999999447  0.8203700000000002  0.00111  1.0000
  O   O4        1.0  0.50024  0.99929  0.17807  1.0000
  O   O5        1.0  0.6761999999999996  0.8215400000000003  0.0009199999999999999  1.0000
  O   O6        1.0  0.8239  0.99876  0.18102  1.0000
  O   O7        1.0  0.9985500000000002  0.17975  0.9988099999999999  1.0000
  O   O8        1.0  0.49973999999999996  0.0007599999999999979  0.82185  1.0000
  O   O9        1.0  0.2402799999999999  0.9403100000000002  0.05939  1.0000
  O   O10       1.0  0.7597300000000001  0.05981  0.94041  1.0000
