data_image0
_chemical_formula_structural       Ni6H6C24O18
_chemical_formula_sum              "Ni6 H6 C24 O18"
_cell_length_a       6.77499
_cell_length_b       15.108919999999998
_cell_length_c       15.10738
_cell_angle_alpha    117.88455999999998
_cell_angle_beta     98.58259
_cell_angle_gamma    98.57262

_symmetry_space_group_name_H-M    'P 1'
_symmetry_Int_Tables_number       1

loop_
  _symmetry_equiv_pos_as_xyz
  'x,y,z'

loop_
  _atom_site_type_symbol
  _atom_site_label
  _atom_site_symmetry_multiplicity
  _atom_site_fract_x
  _atom_site_fract_y
  _atom_site_fract_z
  _atom_site_occupancy
  Ni  Ni1       1.0  0.9740300000000001  0.59214  0.26869  1.0000
  Ni  Ni2       1.0  0.70365  0.73115  0.32363  1.0000
  Ni  Ni3       1.0  0.37987  0.67632  0.40815  1.0000
  Ni  Ni4       1.0  0.025959999999999997  0.40786  0.73131  1.0000
  Ni  Ni5       1.0  0.29635000000000006  0.26885999999999993  0.67637  1.0000
  Ni  Ni6       1.0  0.62013  0.32368  0.59185  1.0000
  H   H1        1.0  0.8727300000000002  0.55899  0.0205  1.0000
  H   H2        1.0  0.8516800000000002  0.97863  0.53806  1.0000
  H   H3        1.0  0.31382000000000004  0.46137  0.44087  1.0000
  H   H4        1.0  0.12727  0.44101  0.9795  1.0000
  H   H5        1.0  0.14832  0.02138000000000005  0.46194000000000013  1.0000
  H   H6        1.0  0.6861799999999999  0.5386299999999999  0.55914  1.0000
  C   C1        1.0  0.68528  0.43143  0.82614  1.0000
  C   C2        1.0  0.5817600000000002  0.46370000000000006  0.9122700000000002  1.0000
  C   C3        1.0  0.6351  0.57109  0.10112  1.0000
  C   C4        1.0  0.7088000000000001  0.53312  0.011640000000000003  1.0000
  C   C5        1.0  0.8592100000000003  0.17357000000000003  0.6039  1.0000
  C   C6        1.0  0.6700600000000001  0.08736000000000006  0.55068  1.0000
  C   C7        1.0  0.5331100000000001  0.8990099999999999  0.47037  1.0000
  C   C8        1.0  0.6970600000000002  0.98805  0.52129  1.0000
  C   C9        1.0  0.2546000000000001  0.39582  0.56967  1.0000
  C   C10       1.0  0.11909999999999993  0.4492999999999998  0.53677  1.0000
  C   C11       1.0  0.06321000000000011  0.5295400000000001  0.42876000000000003  1.0000
  C   C12       1.0  0.17599000000000006  0.4786  0.4669400000000001  1.0000
  C   C13       1.0  0.31472  0.56858  0.17386  1.0000
  C   C14       1.0  0.41824  0.5363  0.08773  1.0000
  C   C15       1.0  0.3649000000000001  0.4289200000000001  0.8988800000000001  1.0000
  C   C16       1.0  0.2912000000000002  0.46688000000000013  0.9883600000000002  1.0000
  C   C17       1.0  0.1407900000000001  0.82643  0.3961000000000001  1.0000
  C   C18       1.0  0.3299400000000001  0.91264  0.44932  1.0000
  C   C19       1.0  0.46689  0.101  0.52963  1.0000
  C   C20       1.0  0.30293999999999993  0.011949999999999997  0.47871  1.0000
  C   C21       1.0  0.7454000000000002  0.60418  0.4303300000000001  1.0000
  C   C22       1.0  0.8809000000000002  0.5507  0.4632300000000001  1.0000
  C   C23       1.0  0.9367900000000002  0.47046  0.57124  1.0000
  C   C24       1.0  0.8240100000000005  0.5214  0.53306  1.0000
  O   O1        1.0  0.8778100000000002  0.46628000000000003  0.8435700000000002  1.0000
  O   O2        1.0  0.5740300000000003  0.3660600000000001  0.7331300000000002  1.0000
  O   O3        1.0  0.77461  0.6384  0.19226  1.0000
  O   O4        1.0  0.03486000000000006  0.15632000000000004  0.62013  1.0000
  O   O5        1.0  0.8391800000000003  0.26656  0.63271  1.0000
  O   O6        1.0  0.5805300000000002  0.8077400000000001  0.44648000000000004  1.0000
  O   O7        1.0  0.41448000000000007  0.37989  0.53644  1.0000
  O   O8        1.0  0.20454000000000003  0.36633  0.63312  1.0000
  O   O9        1.0  0.13448000000000002  0.55328  0.36139  1.0000
  O   O10       1.0  0.12218999999999997  0.53373  0.15643  1.0000
  O   O11       1.0  0.42597000000000007  0.6339399999999998  0.26687  1.0000
  O   O12       1.0  0.2253800000000001  0.36160000000000003  0.8077400000000002  1.0000
  O   O13       1.0  0.96513  0.84368  0.37988  1.0000
  O   O14       1.0  0.16081999999999996  0.73345  0.36729  1.0000
  O   O15       1.0  0.41947  0.19226000000000001  0.55353  1.0000
  O   O16       1.0  0.5855200000000002  0.62011  0.4635600000000001  1.0000
  O   O17       1.0  0.7954600000000002  0.6336700000000001  0.36688000000000004  1.0000
  O   O18       1.0  0.8655200000000002  0.44672000000000006  0.63862  1.0000
