data_image0
_chemical_formula_structural       Mn4H24C36O20
_chemical_formula_sum              "Mn4 H24 C36 O20"
_cell_length_a       6.97701
_cell_length_b       11.402049999999997
_cell_length_c       14.84429
_cell_angle_alpha    90.76619
_cell_angle_beta     90.40801
_cell_angle_gamma    89.29498000000001

_symmetry_space_group_name_H-M    'P 1'
_symmetry_Int_Tables_number       1

loop_
  _symmetry_equiv_pos_as_xyz
  'x,y,z'

loop_
  _atom_site_type_symbol
  _atom_site_label
  _atom_site_symmetry_multiplicity
  _atom_site_fract_x
  _atom_site_fract_y
  _atom_site_fract_z
  _atom_site_occupancy
  Mn  Mn1       1.0  0.55538  0.26817  0.21837  1.0000
  Mn  Mn2       1.0  0.44388  0.7744300000000001  0.78279  1.0000
  Mn  Mn3       1.0  0.05102  0.26564  0.2819299999999999  1.0000
  Mn  Mn4       1.0  0.96214  0.76779  0.7194  1.0000
  H   H1        1.0  0.8552500000000001  0.030470000000000004  0.51976  1.0000
  H   H2        1.0  0.34657  0.82032  0.51601  1.0000
  H   H3        1.0  0.49899  0.0162  0.28138  1.0000
  H   H4        1.0  0.0002800000000000004  0.78969  0.3319  1.0000
  H   H5        1.0  0.038619999999999995  0.8615900000000001  0.43859  1.0000
  H   H6        1.0  0.16401  0.72679  0.41234  1.0000
  H   H7        1.0  0.1447  0.5338  0.48381999999999986  1.0000
  H   H8        1.0  0.66462  0.32761  0.49014  1.0000
  H   H9        1.0  0.48714  0.52131  0.72754  1.0000
  H   H10       1.0  0.9983100000000001  0.2948  0.67837  1.0000
  H   H11       1.0  0.96368  0.3637900000000001  0.5715299999999998  1.0000
  H   H12       1.0  0.83834  0.23141000000000006  0.59641  1.0000
  H   H13       1.0  0.32697  0.03818  0.97802  1.0000
  H   H14       1.0  0.8176600000000002  0.82855  0.98255  1.0000
  H   H15       1.0  0.00534  0.00962  0.22371  1.0000
  H   H16       1.0  0.49700000000000005  0.7896  0.17265999999999995  1.0000
  H   H17       1.0  0.52683  0.8612000000000002  0.06687  1.0000
  H   H18       1.0  0.65407  0.7264100000000001  0.08918  1.0000
  H   H19       1.0  0.65787  0.53609  0.0126  1.0000
  H   H20       1.0  0.1664  0.31812  0.013959999999999997  1.0000
  H   H21       1.0  0.012960000000000003  0.51225  0.77654  1.0000
  H   H22       1.0  0.51428  0.28397  0.82976  1.0000
  H   H23       1.0  0.4782400000000001  0.35734  0.9360699999999997  1.0000
  H   H24       1.0  0.35487000000000013  0.22321000000000002  0.91088  1.0000
  C   C1        1.0  0.80572  0.12426  0.35442  1.0000
  C   C2        1.0  0.64518  0.87609  0.61814  1.0000
  C   C3        1.0  0.6856  0.03537  0.39705  1.0000
  C   C4        1.0  0.72964  0.99743  0.48454  1.0000
  C   C5        1.0  0.6057200000000001  0.91969  0.52601  1.0000
  C   C6        1.0  0.4407  0.87917  0.48097  1.0000
  C   C7        1.0  0.4041  0.9125200000000002  0.39211  1.0000
  C   C8        1.0  0.5277  0.99064  0.35016999999999987  1.0000
  C   C9        1.0  0.10671  0.8089800000000001  0.38452  1.0000
  C   C10       1.0  0.17828000000000002  0.6272  0.6505899999999998  1.0000
  C   C11       1.0  0.36325  0.38382  0.38492  1.0000
  C   C12       1.0  0.30675  0.54091  0.6092999999999998  1.0000
  C   C13       1.0  0.27003  0.50238  0.52044  1.0000
  C   C14       1.0  0.40036000000000005  0.42562000000000005  0.4791199999999999  1.0000
  C   C15       1.0  0.56518  0.38594000000000006  0.52521  1.0000
  C   C16       1.0  0.5952  0.41978  0.61533  1.0000
  C   C17       1.0  0.46499000000000007  0.49729000000000007  0.65738  1.0000
  C   C18       1.0  0.89385  0.31379000000000007  0.62493  1.0000
  C   C19       1.0  0.3014600000000001  0.1242  0.14883  1.0000
  C   C20       1.0  0.11267  0.8904700000000002  0.87719  1.0000
  C   C21       1.0  0.17468  0.037480000000000006  0.10466999999999999  1.0000
  C   C22       1.0  0.2059  0.00407  0.01452  1.0000
  C   C23       1.0  0.07687  0.9283500000000001  0.97169  1.0000
  C   C24       1.0  0.9170000000000003  0.8857700000000001  0.01803  1.0000
  C   C25       1.0  0.89312  0.91445  0.10938  1.0000
  C   C26       1.0  0.023390000000000005  0.98971  0.15268  1.0000
  C   C27       1.0  0.59898  0.80867  0.11919  1.0000
  C   C28       1.0  0.70781  0.6267600000000001  0.84514  1.0000
  C   C29       1.0  0.8616300000000001  0.38014  0.11335  1.0000
  C   C30       1.0  0.82757  0.5379  0.89083  1.0000
  C   C31       1.0  0.78366  0.5014  0.97826  1.0000
  C   C32       1.0  0.9065300000000001  0.4216500000000001  0.02099  1.0000
  C   C33       1.0  0.07223  0.37804  0.9778599999999997  1.0000
  C   C34       1.0  0.10935  0.41048  0.88906  1.0000
  C   C35       1.0  0.9852800000000003  0.48939  0.8457099999999997  1.0000
  C   C36       1.0  0.40945000000000004  0.30461000000000005  0.88242  1.0000
  O   O1        1.0  0.76495  0.16006  0.27317  1.0000
  O   O2        1.0  0.9522300000000002  0.16551999999999997  0.3945599999999999  1.0000
  O   O3        1.0  0.81932  0.8750400000000002  0.64605  1.0000
  O   O4        1.0  0.50232  0.8396  0.6631299999999999  1.0000
  O   O5        1.0  0.25343  0.8744600000000002  0.34078  1.0000
  O   O6        1.0  0.20968  0.67296  0.73176  1.0000
  O   O7        1.0  0.025360000000000004  0.6658  0.61294  1.0000
  O   O8        1.0  0.19125  0.3900900000000001  0.35487999999999986  1.0000
  O   O9        1.0  0.5063999999999997  0.34327  0.3408599999999999  1.0000
  O   O10       1.0  0.74481  0.38254000000000005  0.66775  1.0000
  O   O11       1.0  0.26711  0.15984000000000004  0.23107999999999995  1.0000
  O   O12       1.0  0.44692  0.16451000000000002  0.10889  1.0000
  O   O13       1.0  0.28355  0.89725  0.84605  1.0000
  O   O14       1.0  0.96891  0.8514400000000001  0.83186  1.0000
  O   O15       1.0  0.74964  0.8741500000000001  0.16256  1.0000
  O   O16       1.0  0.75301  0.66275  0.76574  1.0000
  O   O17       1.0  0.5544  0.66714  0.88215  1.0000
  O   O18       1.0  0.6883500000000002  0.38894  0.14063  1.0000
  O   O19       1.0  0.00044999999999999977  0.33659  0.15906  1.0000
  O   O20       1.0  0.25985  0.37075  0.83827  1.0000
