data_image0
_chemical_formula_structural       Mn2H10C20N6O8
_chemical_formula_sum              "Mn2 H10 C20 N6 O8"
_cell_length_a       7.82634
_cell_length_b       9.1615
_cell_length_c       8.305139999999998
_cell_angle_alpha    54.36719999999998
_cell_angle_beta     82.76011
_cell_angle_gamma    83.64361999999998

_space_group_name_H-M_alt    "P 1"
_space_group_IT_number       1

loop_
  _space_group_symop_operation_xyz
  'x, y, z'

loop_
  _atom_site_type_symbol
  _atom_site_label
  _atom_site_symmetry_multiplicity
  _atom_site_fract_x
  _atom_site_fract_y
  _atom_site_fract_z
  _atom_site_occupancy
  Mn  Mn1       1.0  0.47324  0.56174  0.09525  1.0000
  Mn  Mn2       1.0  0.95202  0.04059  0.61637  1.0000
  H   H1        1.0  0.09586000000000003  0.3708899999999999  0.8489  1.0000
  H   H2        1.0  0.93204  0.6145399999999998  0.8537700000000001  1.0000
  H   H3        1.0  0.16639  0.007680000000000016  0.30765  1.0000
  H   H4        1.0  0.33924000000000004  0.78106  0.2747800000000001  1.0000
  H   H5        1.0  0.34385  0.20847  0.86703  1.0000
  H   H6        1.0  0.66138  0.8714800000000001  0.35812  1.0000
  H   H7        1.0  0.50026  0.8635199999999998  0.63958  1.0000
  H   H8        1.0  0.57457  0.30698  0.02023000000000001  1.0000
  H   H9        1.0  0.75815  0.29651000000000005  0.7621  1.0000
  H   H10       1.0  0.84379  0.83975  0.13574  1.0000
  C   C1        1.0  0.69359  0.2891499999999999  0.33843  1.0000
  C   C2        1.0  0.55697  0.28512  0.4776  1.0000
  C   C3        1.0  0.61014  0.011849999999999982  0.85053  1.0000
  C   C4        1.0  0.5174600000000001  0.16812999999999984  0.6833300000000002  1.0000
  C   C5        1.0  0.11764000000000006  0.5098299999999998  0.72521  1.0000
  C   C6        1.0  0.024809999999999985  0.6460599999999999  0.7293600000000002  1.0000
  C   C7        1.0  0.15274  0.8648399999999998  0.4216100000000001  1.0000
  C   C8        1.0  0.24868  0.7376699999999999  0.40402  1.0000
  C   C9        1.0  0.23492999999999997  0.55457  0.56153  1.0000
  C   C10       1.0  0.34738  0.4204999999999999  0.55705  1.0000
  C   C11       1.0  0.18164  0.33419000000000004  0.28883  1.0000
  C   C12       1.0  0.06341999999999998  0.47262999999999994  0.28706  1.0000
  C   C13       1.0  0.15326000000000004  0.80096  0.97677  1.0000
  C   C14       1.0  0.04633000000000002  0.66019  0.14482000000000003  1.0000
  C   C15       1.0  0.64959  0.7436400000000001  0.50316  1.0000
  C   C16       1.0  0.5584  0.7413499999999997  0.65888  1.0000
  C   C17       1.0  0.6017  0.42913999999999985  0.8738000000000001  1.0000
  C   C18       1.0  0.6997399999999999  0.42330999999999985  0.7288600000000002  1.0000
  C   C19       1.0  0.72864  0.5827399999999999  0.53825  1.0000
  C   C20       1.0  0.8492399999999999  0.5713899999999998  0.3993000000000001  1.0000
  N   N1        1.0  0.44951  0.44137000000000004  0.40065  1.0000
  N   N2        1.0  0.38484999999999997  0.2550899999999999  0.7241100000000003  1.0000
  N   N3        1.0  0.044410000000000005  0.8223699999999998  0.5821600000000001  1.0000
  N   N4        1.0  0.9419000000000001  0.42082999999999987  0.44341000000000014  1.0000
  N   N5        1.0  0.9053000000000001  0.7154899999999997  0.21708000000000005  1.0000
  N   N6        1.0  0.5383200000000001  0.5873699999999997  0.8441300000000003  1.0000
  O   O1        1.0  0.69834  0.44235  0.16282  1.0000
  O   O2        1.0  0.8003899999999999  0.1598999999999999  0.3780000000000001  1.0000
  O   O3        1.0  0.7346599999999998  0.9333200000000001  0.80599  1.0000
  O   O4        1.0  0.5665999999999999  0.9715699999999999  0.02281  1.0000
  O   O5        1.0  0.16688000000000003  0.17166999999999993  0.43927  1.0000
  O   O6        1.0  0.295  0.37955000000000005  0.14359  1.0000
  O   O7        1.0  0.31617000000000006  0.7695999999999998  0.9562300000000002  1.0000
  O   O8        1.0  0.08320000000000002  0.9567799999999999  0.86317  1.0000
