data_image0
_chemical_formula_structural       Zn4H24C44N8O16
_chemical_formula_sum              "Zn4 H24 C44 N8 O16"
_cell_length_a       11.03757
_cell_length_b       11.038050000000002
_cell_length_c       17.5279
_cell_angle_alpha    72.08085
_cell_angle_beta     72.04946
_cell_angle_gamma    87.4983

_symmetry_space_group_name_H-M    'P 1'
_symmetry_Int_Tables_number       1

loop_
  _symmetry_equiv_pos_as_xyz
  'x,y,z'

loop_
  _atom_site_type_symbol
  _atom_site_label
  _atom_site_symmetry_multiplicity
  _atom_site_fract_x
  _atom_site_fract_y
  _atom_site_fract_z
  _atom_site_occupancy
  Zn  Zn1       1.0  0.99124  0.09234000000000005  0.65868  1.0000
  Zn  Zn2       1.0  0.9076700000000001  0.008849999999999988  0.84129  1.0000
  Zn  Zn3       1.0  0.008759999999999981  0.9076600000000001  0.34132  1.0000
  Zn  Zn4       1.0  0.09233  0.9911600000000006  0.15870999999999993  1.0000
  H   H1        1.0  0.93044  0.29897  0.4975199999999999  1.0000
  H   H2        1.0  0.20429000000000008  0.02132000000000012  0.5106299999999998  1.0000
  H   H3        1.0  0.23771000000000012  0.15480000000000008  0.3416499999999999  1.0000
  H   H4        1.0  0.07192999999999998  0.50067  0.37869  1.0000
  H   H5        1.0  0.05448000000000001  0.6228100000000001  0.1255  1.0000
  H   H6        1.0  0.05461  0.39467000000000013  0.12689  1.0000
  H   H7        1.0  0.70104  0.06954000000000002  0.002569999999999999  1.0000
  H   H8        1.0  0.9787700000000003  0.7958200000000003  0.9891799999999997  1.0000
  H   H9        1.0  0.84537  0.76235  0.1582  1.0000
  H   H10       1.0  0.49938999999999995  0.9281000000000003  0.12132999999999997  1.0000
  H   H11       1.0  0.37701  0.9455300000000002  0.37456  1.0000
  H   H12       1.0  0.60515  0.94538  0.37319  1.0000
  H   H13       1.0  0.06957000000000002  0.7010300000000002  0.50248  1.0000
  H   H14       1.0  0.7957100000000001  0.97868  0.4893699999999999  1.0000
  H   H15       1.0  0.7622900000000001  0.8452000000000002  0.65834  1.0000
  H   H16       1.0  0.9280700000000001  0.49934  0.62131  1.0000
  H   H17       1.0  0.9455300000000002  0.3771900000000002  0.8744999999999998  1.0000
  H   H18       1.0  0.9453900000000001  0.6053300000000004  0.8731099999999998  1.0000
  H   H19       1.0  0.29896000000000006  0.9304600000000002  0.99743  1.0000
  H   H20       1.0  0.02123  0.20419  0.01082  1.0000
  H   H21       1.0  0.15463000000000007  0.23765000000000014  0.8417999999999998  1.0000
  H   H22       1.0  0.5006100000000002  0.07190000000000012  0.8786699999999997  1.0000
  H   H23       1.0  0.6229900000000003  0.05447000000000012  0.6254399999999998  1.0000
  H   H24       1.0  0.3948500000000001  0.05462000000000013  0.6268099999999998  1.0000
  C   C1        1.0  0.010000000000000066  0.24207000000000015  0.4793099999999999  1.0000
  C   C2        1.0  0.15363000000000004  0.09956000000000007  0.4822599999999999  1.0000
  C   C3        1.0  0.1715600000000001  0.16493000000000013  0.3990299999999999  1.0000
  C   C4        1.0  0.06582000000000002  0.35042  0.32467  1.0000
  C   C5        1.0  0.06474000000000002  0.4771000000000001  0.32432  1.0000
  C   C6        1.0  0.057970000000000015  0.57544  0.25317  1.0000
  C   C7        1.0  0.05589000000000001  0.54556  0.1814  1.0000
  C   C8        1.0  0.05673000000000004  0.41905000000000003  0.18206  1.0000
  C   C9        1.0  0.059070000000000046  0.3188900000000001  0.2539299999999999  1.0000
  C   C10       1.0  0.04983000000000004  0.18358000000000005  0.2526899999999999  1.0000
  C   C11       1.0  0.05585000000000001  0.71166  0.2535  1.0000
  C   C12       1.0  0.75796  0.99  0.02073  1.0000
  C   C13       1.0  0.9005200000000001  0.8464400000000002  0.01763  1.0000
  C   C14       1.0  0.83517  0.8285000000000001  0.10087999999999997  1.0000
  C   C15       1.0  0.64959  0.9341700000000002  0.17537  1.0000
  C   C16       1.0  0.52292  0.93527  0.17570999999999995  1.0000
  C   C17       1.0  0.4245100000000001  0.94205  0.24686999999999995  1.0000
  C   C18       1.0  0.45432000000000006  0.9441100000000002  0.3186499999999999  1.0000
  C   C19       1.0  0.5808300000000001  0.94326  0.31801  1.0000
  C   C20       1.0  0.68107  0.94091  0.24611999999999995  1.0000
  C   C21       1.0  0.81639  0.95014  0.24735999999999994  1.0000
  C   C22       1.0  0.28828000000000004  0.94416  0.24653999999999995  1.0000
  C   C23       1.0  0.99  0.7579400000000002  0.52069  1.0000
  C   C24       1.0  0.84637  0.9004399999999999  0.51774  1.0000
  C   C25       1.0  0.8284400000000002  0.8350700000000001  0.6009699999999998  1.0000
  C   C26       1.0  0.93418  0.6495800000000002  0.67532  1.0000
  C   C27       1.0  0.9352599999999998  0.5229  0.67568  1.0000
  C   C28       1.0  0.94203  0.4245700000000001  0.7468299999999998  1.0000
  C   C29       1.0  0.9441099999999999  0.4544500000000003  0.8186  1.0000
  C   C30       1.0  0.94327  0.5809500000000002  0.8179399999999998  1.0000
  C   C31       1.0  0.9409300000000002  0.68112  0.74607  1.0000
  C   C32       1.0  0.9501700000000002  0.8164200000000003  0.74731  1.0000
  C   C33       1.0  0.9441500000000003  0.28834000000000015  0.7464999999999998  1.0000
  C   C34       1.0  0.24204000000000012  0.010000000000000037  0.9792699999999998  1.0000
  C   C35       1.0  0.09947999999999993  0.15356000000000003  0.98237  1.0000
  C   C36       1.0  0.16483000000000017  0.17150000000000018  0.8991199999999998  1.0000
  C   C37       1.0  0.35041  0.06583000000000004  0.82463  1.0000
  C   C38       1.0  0.47707999999999995  0.06474000000000006  0.82429  1.0000
  C   C39       1.0  0.5754900000000001  0.05795999999999998  0.75313  1.0000
  C   C40       1.0  0.54568  0.05588999999999999  0.68135  1.0000
  C   C41       1.0  0.41918  0.056740000000000027  0.68199  1.0000
  C   C42       1.0  0.31893  0.05908999999999999  0.75388  1.0000
  C   C43       1.0  0.18361000000000008  0.04986000000000013  0.7526299999999998  1.0000
  C   C44       1.0  0.7117200000000001  0.055850000000000115  0.7534599999999998  1.0000
  N   N1        1.0  0.05287000000000001  0.14850000000000002  0.53152  1.0000
  N   N2        1.0  0.07996000000000002  0.25528  0.39773  1.0000
  N   N3        1.0  0.85154  0.9471800000000002  0.9684399999999997  1.0000
  N   N4        1.0  0.74479  0.9200600000000001  0.10228  1.0000
  N   N5        1.0  0.9471300000000001  0.8515100000000001  0.46848  1.0000
  N   N6        1.0  0.9200400000000001  0.74473  0.60227  1.0000
  N   N7        1.0  0.14846  0.05282000000000001  0.03155  1.0000
  N   N8        1.0  0.2552100000000001  0.07995000000000015  0.8977199999999997  1.0000
  O   O1        1.0  0.98777  0.10170999999999998  0.32155  1.0000
  O   O2        1.0  0.10373000000000006  0.16421000000000002  0.18239999999999995  1.0000
  O   O3        1.0  0.06026000000000004  0.79641  0.18409999999999996  1.0000
  O   O4        1.0  0.04846000000000004  0.7310300000000002  0.32262999999999986  1.0000
  O   O5        1.0  0.89831  0.01222000000000002  0.17847999999999994  1.0000
  O   O6        1.0  0.8357500000000001  0.89628  0.3176099999999999  1.0000
  O   O7        1.0  0.20348000000000005  0.93974  0.3159299999999999  1.0000
  O   O8        1.0  0.26898000000000005  0.9515300000000001  0.17737999999999995  1.0000
  O   O9        1.0  0.012239999999999982  0.89829  0.67845  1.0000
  O   O10       1.0  0.8962700000000002  0.8358000000000002  0.8175999999999998  1.0000
  O   O11       1.0  0.9397400000000002  0.20360000000000028  0.8158999999999997  1.0000
  O   O12       1.0  0.95154  0.26897  0.67737  1.0000
  O   O13       1.0  0.10168999999999996  0.98779  0.82152  1.0000
  O   O14       1.0  0.16424999999999998  0.10373000000000003  0.68239  1.0000
  O   O15       1.0  0.79652  0.060270000000000074  0.6840599999999999  1.0000
  O   O16       1.0  0.73102  0.048470000000000145  0.8226199999999998  1.0000
