data_image0
_chemical_formula_structural       Zn3H34C44O10
_chemical_formula_sum              "Zn3 H34 C44 O10"
_cell_length_a       4.88341
_cell_length_b       19.82518
_cell_length_c       19.81111
_cell_angle_alpha    80.53626
_cell_angle_beta     85.2104
_cell_angle_gamma    85.21882

_symmetry_space_group_name_H-M    'P 1'
_symmetry_Int_Tables_number       1

loop_
  _symmetry_equiv_pos_as_xyz
  'x,y,z'

loop_
  _atom_site_type_symbol
  _atom_site_label
  _atom_site_symmetry_multiplicity
  _atom_site_fract_x
  _atom_site_fract_y
  _atom_site_fract_z
  _atom_site_occupancy
  Zn  Zn1       1.0  0.50237  0.0016199999999999843  0.9990600000000001  1.0000
  Zn  Zn2       1.0  0.006380000000000041  0.9347099999999999  0.06597  1.0000
  Zn  Zn3       1.0  0.994  0.06524999999999997  0.9339  1.0000
  H   H1        1.0  0.17284000000000002  0.7128899999999999  0.08503  1.0000
  H   H2        1.0  0.39232000000000006  0.59682  0.06947  1.0000
  H   H3        1.0  0.07915000000000003  0.68962  0.9519  1.0000
  H   H4        1.0  0.8616800000000001  0.80548  0.9679800000000001  1.0000
  H   H5        1.0  0.93817  0.44657  0.89931  1.0000
  H   H6        1.0  0.64506  0.54446  0.85137  1.0000
  H   H7        1.0  0.39924  0.5475499999999998  0.92248  1.0000
  H   H8        1.0  0.5922600000000001  0.61956  0.89093  1.0000
  H   H9        1.0  0.82682  0.9147499999999998  0.2872  1.0000
  H   H10       1.0  0.6080300000000001  0.93091  0.40324  1.0000
  H   H11       1.0  0.9210000000000002  0.04801999999999999  0.31042  1.0000
  H   H12       1.0  0.13639000000000004  0.030949999999999988  0.19442  1.0000
  H   H13       1.0  0.06098  0.10067  0.55357  1.0000
  H   H14       1.0  0.35409  0.14861999999999997  0.45561  1.0000
  H   H15       1.0  0.60039  0.07764999999999998  0.45244  1.0000
  H   H16       1.0  0.40683  0.10908999999999998  0.38043  1.0000
  H   H17       1.0  0.82742  0.2873  0.91497  1.0000
  H   H18       1.0  0.6078700000000001  0.40334999999999993  0.9305399999999999  1.0000
  H   H19       1.0  0.9211  0.3105899999999999  0.04805  1.0000
  H   H20       1.0  0.1380800000000001  0.19470999999999997  0.03205  1.0000
  H   H21       1.0  0.061979999999999986  0.55357  0.10069  1.0000
  H   H22       1.0  0.35465000000000013  0.45572  0.14864  1.0000
  H   H23       1.0  0.60073  0.45262  0.07758  1.0000
  H   H24       1.0  0.40765  0.38058999999999993  0.10913  1.0000
  H   H25       1.0  0.17214999999999997  0.08538999999999998  0.71247  1.0000
  H   H26       1.0  0.3917  0.06915  0.59653  1.0000
  H   H27       1.0  0.07787999999999996  0.95193  0.68967  1.0000
  H   H28       1.0  0.8620399999999999  0.96922  0.8056  1.0000
  H   H29       1.0  0.93858  0.89939  0.44638  1.0000
  H   H30       1.0  0.64604  0.85139  0.54428  1.0000
  H   H31       1.0  0.39952  0.92231  0.54747  1.0000
  H   H32       1.0  0.59299  0.89084  0.61951  1.0000
  H   H33       1.0  0.16598  0.06415  0.060099999999999994  1.0000
  H   H34       1.0  0.8316699999999999  0.93552  0.9402500000000001  1.0000
  C   C1        1.0  0.36824000000000007  0.83562  0.030049999999999997  1.0000
  C   C2        1.0  0.49829999999999997  0.76642  0.0232  1.0000
  C   C3        1.0  0.36361  0.70739  0.05358999999999999  1.0000
  C   C4        1.0  0.4946400000000001  0.6428899999999999  0.04789  1.0000
  C   C5        1.0  0.7500300000000001  0.63561  0.0126  1.0000
  C   C6        1.0  0.88674  0.69447  0.98295  1.0000
  C   C7        1.0  0.7578700000000003  0.75941  0.9887599999999999  1.0000
  C   C8        1.0  0.8719700000000001  0.56542  0.00563  1.0000
  C   C9        1.0  0.8217999999999999  0.53426  0.94907  1.0000
  C   C10       1.0  0.96405  0.47054999999999997  0.9438000000000001  1.0000
  C   C11       1.0  0.6072199999999999  0.56332  0.90063  1.0000
  C   C12       1.0  0.62739  0.96773  0.16435  1.0000
  C   C13       1.0  0.49975  0.97582  0.23359000000000002  1.0000
  C   C14       1.0  0.63597  0.9461599999999999  0.29262  1.0000
  C   C15       1.0  0.50561  0.95225  0.35713  1.0000
  C   C16       1.0  0.25032000000000004  0.9874999999999999  0.3644  1.0000
  C   C17       1.0  0.11315000000000001  0.01694  0.30553  1.0000
  C   C18       1.0  0.24069  0.010539999999999999  0.24054  1.0000
  C   C19       1.0  0.12834999999999996  0.99443  0.43463  1.0000
  C   C20       1.0  0.17794000000000001  0.05095000000000001  0.4658399999999999  1.0000
  C   C21       1.0  0.03537000000000001  0.0562  0.52957  1.0000
  C   C22       1.0  0.3922399999999999  0.09941999999999995  0.43671000000000004  1.0000
  C   C23       1.0  0.63192  0.16468  0.96973  1.0000
  C   C24       1.0  0.50167  0.23379000000000005  0.97668  1.0000
  C   C25       1.0  0.6364600000000001  0.2928  0.9463400000000001  1.0000
  C   C26       1.0  0.5054300000000002  0.35729000000000005  0.9520399999999999  1.0000
  C   C27       1.0  0.25011  0.36455  0.98735  1.0000
  C   C28       1.0  0.11343  0.30569  0.01699  1.0000
  C   C29       1.0  0.24213  0.24073  0.01119  1.0000
  C   C30       1.0  0.12811999999999996  0.43472  0.99437  1.0000
  C   C31       1.0  0.17828  0.46586999999999995  0.05093  1.0000
  C   C32       1.0  0.036090000000000025  0.5295899999999999  0.05619  1.0000
  C   C33       1.0  0.3927400000000001  0.43682  0.0994  1.0000
  C   C34       1.0  0.37277  0.03317999999999998  0.8353400000000001  1.0000
  C   C35       1.0  0.49938000000000005  0.024489999999999994  0.76622  1.0000
  C   C36       1.0  0.36301000000000005  0.05397  0.70715  1.0000
  C   C37       1.0  0.4937199999999999  0.047790000000000006  0.6427  1.0000
  C   C38       1.0  0.7490500000000001  0.012519999999999986  0.63555  1.0000
  C   C39       1.0  0.88581  0.9830599999999999  0.69448  1.0000
  C   C40       1.0  0.7581599999999998  0.9896199999999999  0.75941  1.0000
  C   C41       1.0  0.87138  0.00559999999999998  0.56534  1.0000
  C   C42       1.0  0.82187  0.9490599999999999  0.53414  1.0000
  C   C43       1.0  0.9643399999999999  0.94384  0.47041  1.0000
  C   C44       1.0  0.60765  0.90056  0.56322  1.0000
  O   O1        1.0  0.48514999999999997  0.8885799999999999  0.99999  1.0000
  O   O2        1.0  0.13996999999999998  0.83829  0.06734  1.0000
  O   O3        1.0  0.5016  0.9945499999999999  0.11166  1.0000
  O   O4        1.0  0.8610200000000003  0.9327699999999999  0.16163  1.0000
  O   O5        1.0  0.5141  0.11179999999999997  0.9997800000000001  1.0000
  O   O6        1.0  0.86045  0.16179  0.93268  1.0000
  O   O7        1.0  0.50053  0.0073399999999999846  0.8880700000000001  1.0000
  O   O8        1.0  0.13789  0.06745  0.83816  1.0000
  O   O9        1.0  0.88829  0.96655  0.96888  1.0000
  O   O10       1.0  0.11243000000000002  0.03334  0.0308  1.0000
