data_image0
_chemical_formula_structural       Cd2H30C30S2N18O8
_chemical_formula_sum              "Cd2 H30 C30 S2 N18 O8"
_cell_length_a       9.23497
_cell_length_b       11.25002
_cell_length_c       11.14442
_cell_angle_alpha    82.8528
_cell_angle_beta     77.70243
_cell_angle_gamma    91.44895

_space_group_name_H-M_alt    "P 1"
_space_group_IT_number       1

loop_
  _space_group_symop_operation_xyz
  'x, y, z'

loop_
  _atom_site_type_symbol
  _atom_site_label
  _atom_site_symmetry_multiplicity
  _atom_site_fract_x
  _atom_site_fract_y
  _atom_site_fract_z
  _atom_site_occupancy
  Cd  Cd1       1.0  0.0  0.0  0.0  1.0000
  Cd  Cd2       1.0  0.0  0.0  0.5  1.0000
  H   H1        1.0  0.6331800000000001  0.06153  0.65411  1.0000
  H   H2        1.0  0.77361  0.11034000000000002  0.26786  1.0000
  H   H3        1.0  0.5417999999999997  0.19762000000000002  0.21360000000000004  1.0000
  H   H4        1.0  0.37589  0.17097000000000004  0.32834  1.0000
  H   H5        1.0  0.26656  0.35286  0.26138  1.0000
  H   H6        1.0  0.11877999999999998  0.51922  0.26045  1.0000
  H   H7        1.0  0.22942999999999997  0.64593  0.17797  1.0000
  H   H8        1.0  0.9807  0.70462  0.63221  1.0000
  H   H9        1.0  0.11771999999999999  0.8315000000000001  0.2524  1.0000
  H   H10       1.0  0.44384  0.6898500000000001  0.33173  1.0000
  H   H11       1.0  0.69098  0.37397  0.36225  1.0000
  H   H12       1.0  0.77546  0.55581  0.42389  1.0000
  H   H13       1.0  0.66292  0.6830500000000002  0.4307  1.0000
  H   H14       1.0  0.018310000000000055  0.6792  0.9987499999999999  1.0000
  H   H15       1.0  0.7824199999999999  0.86203  0.28009  1.0000
  H   H16       1.0  0.36682  0.93847  0.34588  1.0000
  H   H17       1.0  0.22638999999999998  0.8896600000000001  0.73214  1.0000
  H   H18       1.0  0.4582  0.8023800000000001  0.7864  1.0000
  H   H19       1.0  0.62411  0.8290400000000002  0.67165  1.0000
  H   H20       1.0  0.7334400000000001  0.6471400000000002  0.73862  1.0000
  H   H21       1.0  0.8812299999999998  0.48078  0.73955  1.0000
  H   H22       1.0  0.77057  0.35407  0.82202  1.0000
  H   H23       1.0  0.019300000000000005  0.29538000000000003  0.36779  1.0000
  H   H24       1.0  0.88228  0.1685  0.7476  1.0000
  H   H25       1.0  0.55616  0.31015  0.66827  1.0000
  H   H26       1.0  0.30902  0.6260300000000001  0.63775  1.0000
  H   H27       1.0  0.22455  0.4442000000000001  0.5761  1.0000
  H   H28       1.0  0.33707999999999994  0.31696  0.5693  1.0000
  H   H29       1.0  0.9816899999999998  0.3208  0.00125  1.0000
  H   H30       1.0  0.21757999999999997  0.13797  0.7199  1.0000
  C   C1        1.0  0.63427  0.08736  0.55694  1.0000
  C   C2        1.0  0.7067199999999999  0.10911000000000001  0.36091  1.0000
  C   C3        1.0  0.48756999999999995  0.21542  0.30702  1.0000
  C   C4        1.0  0.47923  0.34892000000000006  0.31241  1.0000
  C   C5        1.0  0.35366  0.4053200000000001  0.28701  1.0000
  C   C6        1.0  0.3406  0.52801  0.29355  1.0000
  C   C7        1.0  0.20390999999999992  0.58662  0.26672  1.0000
  C   C8        1.0  0.026359999999999995  0.70704  0.53346  1.0000
  C   C9        1.0  0.09419999999999996  0.77501  0.34104  1.0000
  C   C10       1.0  0.45447  0.59487  0.32356  1.0000
  C   C11       1.0  0.59308  0.4165000000000001  0.34147  1.0000
  C   C12       1.0  0.58139  0.5396500000000001  0.34644  1.0000
  C   C13       1.0  0.7061299999999999  0.61291  0.37476  1.0000
  C   C14       1.0  0.9497900000000001  0.6976200000000001  0.08544  1.0000
  C   C15       1.0  0.82816  0.7937600000000002  0.22466  1.0000
  C   C16       1.0  0.36572999999999994  0.9126400000000001  0.44306  1.0000
  C   C17       1.0  0.29327999999999993  0.89089  0.63908  1.0000
  C   C18       1.0  0.51243  0.78458  0.69298  1.0000
  C   C19       1.0  0.52077  0.6510800000000001  0.68759  1.0000
  C   C20       1.0  0.64634  0.59468  0.71299  1.0000
  C   C21       1.0  0.6594  0.4719900000000001  0.70644  1.0000
  C   C22       1.0  0.7960900000000001  0.4133800000000001  0.73328  1.0000
  C   C23       1.0  0.9736399999999998  0.29296  0.46653  1.0000
  C   C24       1.0  0.9058  0.22499  0.65896  1.0000
  C   C25       1.0  0.54553  0.4051300000000001  0.67644  1.0000
  C   C26       1.0  0.40692  0.5835  0.65853  1.0000
  C   C27       1.0  0.41861  0.46036  0.65355  1.0000
  C   C28       1.0  0.2938700000000001  0.38709  0.62523  1.0000
  C   C29       1.0  0.05021000000000001  0.30238000000000004  0.9145599999999999  1.0000
  C   C30       1.0  0.17184  0.20624000000000003  0.77534  1.0000
  S   S1        1.0  0.8780800000000001  0.88586  0.8107  1.0000
  S   S2        1.0  0.12192999999999998  0.11414000000000002  0.1893  1.0000
  N   N1        1.0  0.57364  0.15688  0.39099  1.0000
  N   N2        1.0  0.52508  0.14453  0.51718  1.0000
  N   N3        1.0  0.7484599999999999  0.06335  0.4641  1.0000
  N   N4        1.0  0.13782999999999998  0.66204  0.36009  1.0000
  N   N5        1.0  0.09643000000000002  0.61742  0.48323999999999995  1.0000
  N   N6        1.0  0.021029999999999997  0.80549  0.44881  1.0000
  N   N7        1.0  0.80176  0.6750000000000002  0.26035  1.0000
  N   N8        1.0  0.8790499999999999  0.61181  0.17273  1.0000
  N   N9        1.0  0.92343  0.81118  0.11412999999999998  1.0000
  N   N10       1.0  0.42636999999999997  0.8431200000000001  0.609  1.0000
  N   N11       1.0  0.47492  0.85547  0.48282  1.0000
  N   N12       1.0  0.25154000000000004  0.93666  0.5359  1.0000
  N   N13       1.0  0.8621700000000001  0.33796  0.63991  1.0000
  N   N14       1.0  0.90357  0.38259  0.51676  1.0000
  N   N15       1.0  0.9789699999999999  0.19451  0.55118  1.0000
  N   N16       1.0  0.19824  0.325  0.73965  1.0000
  N   N17       1.0  0.12094999999999996  0.38819  0.82727  1.0000
  N   N18       1.0  0.07656999999999999  0.18883000000000005  0.88587  1.0000
  O   O1        1.0  0.84308  0.9335400000000003  0.68672  1.0000
  O   O2        1.0  0.87831  0.75316  0.82424  1.0000
  O   O3        1.0  0.03497  0.93848  0.81145  1.0000
  O   O4        1.0  0.7728700000000001  0.93414  0.9127599999999999  1.0000
  O   O5        1.0  0.15692000000000003  0.06646999999999999  0.31327  1.0000
  O   O6        1.0  0.12169  0.24685  0.17575  1.0000
  O   O7        1.0  0.9650299999999999  0.061520000000000005  0.18853999999999999  1.0000
  O   O8        1.0  0.22713  0.06587  0.08724  1.0000
