data_image0
_chemical_formula_structural       Nd2CuH12C32N4O24
_chemical_formula_sum              "Nd2 Cu1 H12 C32 N4 O24"
_cell_length_a       10.11234
_cell_length_b       10.68467
_cell_length_c       11.58409
_cell_angle_alpha    81.39723
_cell_angle_beta     72.65089
_cell_angle_gamma    69.87434

_symmetry_space_group_name_H-M    'P 1'
_symmetry_Int_Tables_number       1

loop_
  _symmetry_equiv_pos_as_xyz
  'x,y,z'

loop_
  _atom_site_type_symbol
  _atom_site_label
  _atom_site_symmetry_multiplicity
  _atom_site_fract_x
  _atom_site_fract_y
  _atom_site_fract_z
  _atom_site_occupancy
  Nd  Nd1       1.0  0.5922299999999999  0.5891900000000001  0.63178  1.0000
  Nd  Nd2       1.0  0.40909999999999996  0.4119  0.36843  1.0000
  Cu  Cu1       1.0  0.00031999999999997796  0.50165  0.4996900000000001  1.0000
  H   H1        1.0  0.36231  0.9885600000000001  0.46799  1.0000
  H   H2        1.0  0.9707800000000001  0.17917  0.34824  1.0000
  H   H3        1.0  0.16953000000000004  0.7528699999999999  0.33921  1.0000
  H   H4        1.0  0.68275  0.44914000000000004  0.93787  1.0000
  H   H5        1.0  0.9326799999999997  0.3232  0.20168000000000003  1.0000
  H   H6        1.0  0.15364999999999995  0.34415  0.8223900000000001  1.0000
  H   H7        1.0  0.6366600000000001  0.013710000000000003  0.53325  1.0000
  H   H8        1.0  0.028489999999999984  0.8230200000000001  0.65268  1.0000
  H   H9        1.0  0.83047  0.24943  0.66065  1.0000
  H   H10       1.0  0.31748  0.55162  0.0615  1.0000
  H   H11       1.0  0.06753999999999996  0.6761600000000001  0.79765  1.0000
  H   H12       1.0  0.8465  0.6576300000000002  0.1772  1.0000
  C   C1        1.0  0.27699  0.85773  0.40745  1.0000
  C   C2        1.0  0.27839999999999987  0.9829700000000001  0.42987000000000003  1.0000
  C   C3        1.0  0.16867999999999997  0.09897  0.40809000000000006  1.0000
  C   C4        1.0  0.05921000000000002  0.09065  0.36167  1.0000
  C   C5        1.0  0.06423000000000012  0.96659  0.33436  1.0000
  C   C6        1.0  0.17053000000000004  0.84923  0.35735  1.0000
  C   C7        1.0  0.38418000000000013  0.73238  0.44332  1.0000
  C   C8        1.0  0.16144  0.23372  0.43623000000000006  1.0000
  C   C9        1.0  0.9175999999999997  0.40271  0.8666000000000001  1.0000
  C   C10       1.0  0.78817  0.41395  0.95886  1.0000
  C   C11       1.0  0.79441  0.38349  0.07957  1.0000
  C   C12       1.0  0.92862  0.34178  0.10799  1.0000
  C   C13       1.0  0.05592  0.32598  0.014390000000000002  1.0000
  C   C14       1.0  0.05309000000000004  0.35568999999999995  0.89394  1.0000
  C   C15       1.0  0.91474  0.44264000000000003  0.7382399999999999  1.0000
  C   C16       1.0  0.6596600000000001  0.3954  0.18082  1.0000
  C   C17       1.0  0.7222600000000001  0.14426  0.59329  1.0000
  C   C18       1.0  0.721  0.019000000000000003  0.57095  1.0000
  C   C19       1.0  0.83094  0.9031600000000001  0.59241  1.0000
  C   C20       1.0  0.94023  0.91159  0.63902  1.0000
  C   C21       1.0  0.93493  0.03576  0.66638  1.0000
  C   C22       1.0  0.8288300000000001  0.15309000000000003  0.64305  1.0000
  C   C23       1.0  0.6148600000000001  0.26897  0.55715  1.0000
  C   C24       1.0  0.8389400000000001  0.76848  0.5636  1.0000
  C   C25       1.0  0.08277999999999999  0.59835  0.13287  1.0000
  C   C26       1.0  0.21210999999999997  0.5866800000000001  0.04046  1.0000
  C   C27       1.0  0.20579999999999993  0.61663  0.9197400000000001  1.0000
  C   C28       1.0  0.07152000000000001  0.65827  0.89141  1.0000
  C   C29       1.0  0.9443  0.6745  0.98526  1.0000
  C   C30       1.0  0.9472300000000001  0.64537  0.1057  1.0000
  C   C31       1.0  0.08581999999999997  0.55938  0.26132  1.0000
  C   C32       1.0  0.34057  0.6046800000000001  0.81855  1.0000
  N   N1        1.0  0.9487000000000001  0.9597700000000001  0.28468  1.0000
  N   N2        1.0  0.19723000000000004  0.28205  0.04471  1.0000
  N   N3        1.0  0.05046999999999998  0.04285000000000001  0.71592  1.0000
  N   N4        1.0  0.8026399999999999  0.7185  0.95552  1.0000
  O   O1        1.0  0.37412999999999996  0.61982  0.4280900000000001  1.0000
  O   O2        1.0  0.47822000000000003  0.7432800000000002  0.48993  1.0000
  O   O3        1.0  0.27954999999999997  0.25608  0.42861  1.0000
  O   O4        1.0  0.03332  0.31768  0.46565  1.0000
  O   O5        1.0  0.8612600000000001  0.06665  0.25786  1.0000
  O   O6        1.0  0.94495  0.8472300000000001  0.27399  1.0000
  O   O7        1.0  0.033799999999999934  0.44736000000000004  0.66234  1.0000
  O   O8        1.0  0.79508  0.47017000000000003  0.70872  1.0000
  O   O9        1.0  0.53755  0.41178  0.15813  1.0000
  O   O10       1.0  0.66756  0.38773  0.29008  1.0000
  O   O11       1.0  0.19395999999999997  0.26932  0.1541  1.0000
  O   O12       1.0  0.31  0.26241000000000003  0.9600900000000001  1.0000
  O   O13       1.0  0.62462  0.38168  0.57213  1.0000
  O   O14       1.0  0.5213700000000002  0.25732  0.51031  1.0000
  O   O15       1.0  0.7214299999999999  0.74481  0.57146  1.0000
  O   O16       1.0  0.96751  0.6857299999999998  0.53307  1.0000
  O   O17       1.0  0.1383200000000001  0.93614  0.74237  1.0000
  O   O18       1.0  0.05404999999999997  0.15545  0.72666  1.0000
  O   O19       1.0  0.9663300000000001  0.55601  0.3374  1.0000
  O   O20       1.0  0.20553999999999992  0.53153  0.29083  1.0000
  O   O21       1.0  0.46262999999999993  0.5885499999999999  0.8414400000000001  1.0000
  O   O22       1.0  0.33271  0.61247  0.70937  1.0000
  O   O23       1.0  0.8054799999999999  0.73174  0.8462400000000001  1.0000
  O   O24       1.0  0.69003  0.73755  0.04027  1.0000
