data_image0
_chemical_formula_structural       Cu4H8C8O16
_chemical_formula_sum              "Cu4 H8 C8 O16"
_cell_length_a       10.70106
_cell_length_b       7.157609999999999
_cell_length_c       10.72716
_cell_angle_alpha    89.90865
_cell_angle_beta     90.01311
_cell_angle_gamma    89.98261000000001

_space_group_name_H-M_alt    "P 1"
_space_group_IT_number       1

loop_
  _space_group_symop_operation_xyz
  'x, y, z'

loop_
  _atom_site_type_symbol
  _atom_site_label
  _atom_site_symmetry_multiplicity
  _atom_site_fract_x
  _atom_site_fract_y
  _atom_site_fract_z
  _atom_site_occupancy
  Cu  Cu1       1.0  0.01525  0.8703799999999998  0.75013  1.0000
  Cu  Cu2       1.0  0.9872399999999999  0.6299499999999998  0.25096000000000007  1.0000
  Cu  Cu3       1.0  0.51373  0.13568999999999998  0.75322  1.0000
  Cu  Cu4       1.0  0.48795999999999995  0.3660699999999999  0.25278  1.0000
  H   H1        1.0  0.7701400000000002  0.025099999999999994  0.67711  1.0000
  H   H2        1.0  0.07338  0.7399999999999999  0.49514000000000014  1.0000
  H   H3        1.0  0.23086  0.47266999999999987  0.17755000000000004  1.0000
  H   H4        1.0  0.93115  0.7565  0.99522  1.0000
  H   H5        1.0  0.26836  0.9799099999999998  0.82348  1.0000
  H   H6        1.0  0.57303  0.25954  0.008  1.0000
  H   H7        1.0  0.73356  0.52172  0.32287000000000005  1.0000
  H   H8        1.0  0.42773000000000005  0.24013999999999996  0.50665  1.0000
  C   C1        1.0  0.76981  0.022229999999999993  0.7798200000000001  1.0000
  C   C2        1.0  0.9710599999999999  0.75782  0.49896  1.0000
  C   C3        1.0  0.23158  0.4743499999999999  0.27989  1.0000
  C   C4        1.0  0.03338  0.7412499999999997  0.9994  1.0000
  C   C5        1.0  0.26851  0.9812599999999998  0.7212100000000001  1.0000
  C   C6        1.0  0.47131  0.24364999999999995  0.0034500000000000004  1.0000
  C   C7        1.0  0.73213  0.5210199999999998  0.22074000000000005  1.0000
  C   C8        1.0  0.52953  0.25964  0.5033700000000001  1.0000
  O   O1        1.0  0.86651  0.9633199999999997  0.8374700000000002  1.0000
  O   O2        1.0  0.67315  0.07874  0.8388500000000001  1.0000
  O   O3        1.0  0.91886  0.8287699999999998  0.59468  1.0000
  O   O4        1.0  0.90565  0.7068199999999998  0.40529  1.0000
  O   O5        1.0  0.13701  0.53834  0.33828  1.0000
  O   O6        1.0  0.32754  0.41343  0.33890000000000003  1.0000
  O   O7        1.0  0.08633  0.6808299999999998  0.09827000000000002  1.0000
  O   O8        1.0  0.09665999999999998  0.7838399999999999  0.90248  1.0000
  O   O9        1.0  0.36341  0.04673  0.66309  1.0000
  O   O10       1.0  0.17401  0.9157499999999997  0.66205  1.0000
  O   O11       1.0  0.41932  0.18479999999999996  0.90378  1.0000
  O   O12       1.0  0.40729999999999994  0.2855099999999999  0.09948  1.0000
  O   O13       1.0  0.63792  0.45401999999999987  0.16317000000000004  1.0000
  O   O14       1.0  0.8270600000000001  0.5868399999999998  0.16176000000000001  1.0000
  O   O15       1.0  0.58126  0.3207599999999999  0.40475  1.0000
  O   O16       1.0  0.59302  0.22181999999999993  0.60048  1.0000
