data_image0
_chemical_formula_structural       Tb4H12C28S2N4O24
_chemical_formula_sum              "Tb4 H12 C28 S2 N4 O24"
_cell_length_a       7.23299
_cell_length_b       12.434400000000002
_cell_length_c       14.929820000000001
_cell_angle_alpha    113.83425
_cell_angle_beta     103.13567
_cell_angle_gamma    91.80914000000001

_space_group_name_H-M_alt    "P 1"
_space_group_IT_number       1

loop_
  _space_group_symop_operation_xyz
  'x, y, z'

loop_
  _atom_site_type_symbol
  _atom_site_label
  _atom_site_symmetry_multiplicity
  _atom_site_fract_x
  _atom_site_fract_y
  _atom_site_fract_z
  _atom_site_occupancy
  Tb  Tb1       1.0  0.9946800000000002  0.9176899999999999  0.21113999999999994  1.0000
  Tb  Tb2       1.0  0.5013999999999998  0.7075000000000001  0.7915799999999998  1.0000
  Tb  Tb3       1.0  0.0065499999999999465  0.0840199999999999  0.7905299999999998  1.0000
  Tb  Tb4       1.0  0.4899999999999999  0.29654  0.21314999999999995  1.0000
  H   H1        1.0  0.019369999999999967  0.5657099999999999  0.27558999999999995  1.0000
  H   H2        1.0  0.06661999999999993  0.89521  0.5375399999999999  1.0000
  H   H3        1.0  0.16831999999999994  0.5660799999999999  0.5608999999999998  1.0000
  H   H4        1.0  0.4785799999999999  0.29185999999999995  0.7342199999999998  1.0000
  H   H5        1.0  0.4235900000000001  0.36412999999999995  0.47127999999999987  1.0000
  H   H6        1.0  0.3434500000000001  0.00819999999999994  0.4494299999999999  1.0000
  H   H7        1.0  0.9824200000000003  0.43549  0.72541  1.0000
  H   H8        1.0  0.9293600000000002  0.10376999999999993  0.4641299999999999  1.0000
  H   H9        1.0  0.8313399999999997  0.4325099999999999  0.4392799999999999  1.0000
  H   H10       1.0  0.5252  0.71161  0.27115  1.0000
  H   H11       1.0  0.57556  0.641  0.53492  1.0000
  H   H12       1.0  0.65556  0.99573  0.55481  1.0000
  C   C1        1.0  0.05163999999999999  0.61551  0.35779  1.0000
  C   C2        1.0  0.04527000000000001  0.73852  0.39887  1.0000
  C   C3        1.0  0.07618000000000001  0.80046  0.50364  1.0000
  C   C4        1.0  0.11836999999999999  0.73781  0.56378  1.0000
  C   C5        1.0  0.13144  0.6162399999999999  0.5157699999999998  1.0000
  C   C6        1.0  0.006369999999999986  0.80007  0.33084  1.0000
  C   C7        1.0  0.14150000000000004  0.79933  0.67559  1.0000
  C   C8        1.0  0.44915  0.2597299999999998  0.6519199999999998  1.0000
  C   C9        1.0  0.45059999999999995  0.34248999999999985  0.6098199999999998  1.0000
  C   C10       1.0  0.4187000000000001  0.30143  0.50506  1.0000
  C   C11       1.0  0.37936  0.17871999999999996  0.44559  1.0000
  C   C12       1.0  0.37577  0.10357  0.49454  1.0000
  C   C13       1.0  0.48325000000000007  0.47179999999999983  0.6759599999999998  1.0000
  C   C14       1.0  0.34723  0.13029999999999992  0.3333699999999999  1.0000
  C   C15       1.0  0.94964  0.38495999999999997  0.64325  1.0000
  C   C16       1.0  0.9546300000000002  0.26169999999999993  0.6026099999999999  1.0000
  C   C17       1.0  0.9213100000000002  0.19882  0.4978  1.0000
  C   C18       1.0  0.8776700000000002  0.26105  0.43735  1.0000
  C   C19       1.0  0.8673799999999999  0.38289999999999996  0.48489999999999994  1.0000
  C   C20       1.0  0.99417  0.20067000000000002  0.67105  1.0000
  C   C21       1.0  0.85251  0.19916  0.32557  1.0000
  C   C22       1.0  0.5541  0.74348  0.35332  1.0000
  C   C23       1.0  0.55273  0.66119  0.39575  1.0000
  C   C24       1.0  0.58083  0.70288  0.5003799999999999  1.0000
  C   C25       1.0  0.61802  0.82567  0.55931  1.0000
  C   C26       1.0  0.6238100000000002  0.9002999999999999  0.51013  1.0000
  C   C27       1.0  0.5220600000000002  0.53217  0.3298  1.0000
  C   C28       1.0  0.6435100000000002  0.87539  0.67114  1.0000
  S   S1        1.0  0.7427700000000003  0.81853  0.00182  1.0000
  S   S2        1.0  0.25571  0.18187  0.00014  1.0000
  N   N1        1.0  0.09406999999999997  0.55452  0.4144499999999999  1.0000
  N   N2        1.0  0.41402999999999995  0.14185999999999996  0.59588  1.0000
  N   N3        1.0  0.9070600000000002  0.44539  0.58615  1.0000
  N   N4        1.0  0.58774  0.8613  0.40889999999999993  1.0000
  O   O1        1.0  0.9919899999999999  0.7419599999999998  0.23566  1.0000
  O   O2        1.0  0.9922100000000003  0.91146  0.36712999999999996  1.0000
  O   O3        1.0  0.08139999999999997  0.89866  0.7097499999999999  1.0000
  O   O4        1.0  0.21509  0.7478499999999999  0.7320199999999999  1.0000
  O   O5        1.0  0.72409  0.92779  0.09076  1.0000
  O   O6        1.0  0.9170000000000003  0.77254  0.04365  1.0000
  O   O7        1.0  0.4823200000000001  0.5086499999999999  0.7694499999999999  1.0000
  O   O8        1.0  0.5091599999999998  0.54704  0.6395199999999999  1.0000
  O   O9        1.0  0.38283000000000006  0.20131999999999994  0.2963299999999999  1.0000
  O   O10       1.0  0.28668  0.019070000000000035  0.2787  1.0000
  O   O11       1.0  0.7666500000000003  0.84294  0.91353  1.0000
  O   O12       1.0  0.5643  0.72925  0.9590599999999999  1.0000
  O   O13       1.0  0.00822999999999993  0.2591099999999999  0.7661599999999997  1.0000
  O   O14       1.0  0.009209999999999885  0.08935999999999988  0.6350499999999998  1.0000
  O   O15       1.0  0.9184099999999998  0.10162999999999997  0.29235999999999995  1.0000
  O   O16       1.0  0.7706400000000002  0.24715999999999994  0.26791  1.0000
  O   O17       1.0  0.27060999999999996  0.07100999999999995  0.9112399999999998  1.0000
  O   O18       1.0  0.08161999999999997  0.22809999999999991  0.9585299999999999  1.0000
  O   O19       1.0  0.52276  0.49504999999999993  0.23614  1.0000
  O   O20       1.0  0.49668  0.45742  0.36679  1.0000
  O   O21       1.0  0.592  0.8067599999999999  0.7071099999999999  1.0000
  O   O22       1.0  0.7134800000000001  0.98518  0.7262399999999998  1.0000
  O   O23       1.0  0.23159000000000002  0.15822  0.0887  1.0000
  O   O24       1.0  0.43468  0.27045  0.04211  1.0000
