data_image0
_chemical_formula_structural       Nd2H4C14N4O12
_chemical_formula_sum              "Nd2 H4 C14 N4 O12"
_cell_length_a       6.10827
_cell_length_b       10.55314
_cell_length_c       11.21957
_cell_angle_alpha    73.00733
_cell_angle_beta     84.09011
_cell_angle_gamma    70.17536

_symmetry_space_group_name_H-M    'P 1'
_symmetry_Int_Tables_number       1

loop_
  _symmetry_equiv_pos_as_xyz
  'x,y,z'

loop_
  _atom_site_type_symbol
  _atom_site_label
  _atom_site_symmetry_multiplicity
  _atom_site_fract_x
  _atom_site_fract_y
  _atom_site_fract_z
  _atom_site_occupancy
  Nd  Nd1       1.0  0.9225700000000002  0.6263799999999999  0.23166  1.0000
  Nd  Nd2       1.0  0.06735999999999998  0.3738  0.77367  1.0000
  H   H1        1.0  0.33501  0.05417  0.043429999999999996  1.0000
  H   H2        1.0  0.62102  0.25249000000000005  0.61414  1.0000
  H   H3        1.0  0.6618600000000001  0.9449300000000002  0.9590699999999998  1.0000
  H   H4        1.0  0.36847999999999986  0.74767  0.39103999999999994  1.0000
  C   C1        1.0  0.3400600000000002  0.7798199999999996  0.16505999999999996  1.0000
  C   C2        1.0  0.15905  0.89857  0.08020999999999999  1.0000
  C   C3        1.0  0.18489  0.029819999999999985  0.02401  1.0000
  C   C4        1.0  0.97489  0.35395000000000004  0.4848399999999999  1.0000
  C   C5        1.0  0.71584  0.42444  0.48719  1.0000
  C   C6        1.0  0.56547  0.36342  0.56626  1.0000
  C   C7        1.0  0.11981000000000004  0.45803999999999995  0.022679999999999992  1.0000
  C   C8        1.0  0.6534499999999999  0.21936000000000003  0.8400599999999998  1.0000
  C   C9        1.0  0.83652  0.10048999999999997  0.92358  1.0000
  C   C10       1.0  0.8115999999999998  0.96906  0.97923  1.0000
  C   C11       1.0  0.014740000000000024  0.64633  0.52031  1.0000
  C   C12       1.0  0.27389  0.57585  0.51835  1.0000
  C   C13       1.0  0.4242200000000001  0.6368099999999998  0.43919  1.0000
  C   C14       1.0  0.8654499999999998  0.5432300000000001  0.9819999999999999  1.0000
  N   N1        1.0  0.9707099999999999  0.86892  0.059099999999999986  1.0000
  N   N2        1.0  0.6433400000000001  0.5597699999999999  0.42141  1.0000
  N   N3        1.0  0.025179999999999977  0.13008000000000006  0.9444299999999999  1.0000
  N   N4        1.0  0.34643  0.4404900000000001  0.5841499999999998  1.0000
  O   O1        1.0  0.28757  0.66896  0.21174  1.0000
  O   O2        1.0  0.5261300000000001  0.7988499999999998  0.18373999999999996  1.0000
  O   O3        1.0  0.07853999999999996  0.39782  0.38446  1.0000
  O   O4        1.0  0.06656000000000002  0.26816999999999996  0.58604  1.0000
  O   O5        1.0  0.18610000000000004  0.4683299999999999  0.12123999999999997  1.0000
  O   O6        1.0  0.24120000000000003  0.38416999999999996  0.9527599999999999  1.0000
  O   O7        1.0  0.70524  0.3306  0.7940799999999998  1.0000
  O   O8        1.0  0.46701000000000015  0.20048000000000005  0.8217499999999998  1.0000
  O   O9        1.0  0.9106599999999998  0.6022099999999999  0.62047  1.0000
  O   O10       1.0  0.9235  0.7322499999999997  0.4191699999999999  1.0000
  O   O11       1.0  0.79987  0.53196  0.88354  1.0000
  O   O12       1.0  0.7447999999999999  0.61829  0.050899999999999994  1.0000
