data_image0
_chemical_formula_structural       Gd2H12C12O18
_chemical_formula_sum              "Gd2 H12 C12 O18"
_cell_length_a       5.99906
_cell_length_b       7.53443
_cell_length_c       13.137819999999998
_cell_angle_alpha    104.43757
_cell_angle_beta     103.40195
_cell_angle_gamma    90.07002

_space_group_name_H-M_alt    "P 1"
_space_group_IT_number       1

loop_
  _space_group_symop_operation_xyz
  'x, y, z'

loop_
  _atom_site_type_symbol
  _atom_site_label
  _atom_site_symmetry_multiplicity
  _atom_site_fract_x
  _atom_site_fract_y
  _atom_site_fract_z
  _atom_site_occupancy
  Gd  Gd1       1.0  0.52151  0.51622  0.50399  1.0000
  Gd  Gd2       1.0  0.44158  0.8615299999999999  0.1381  1.0000
  H   H1        1.0  0.8535600000000001  0.8093200000000002  0.8764100000000002  1.0000
  H   H2        1.0  0.10517999999999998  0.74275  0.75448  1.0000
  H   H3        1.0  0.98619  0.37398  0.26025  1.0000
  H   H4        1.0  0.98084  0.39390999999999987  0.08464  1.0000
  H   H5        1.0  0.9727700000000002  0.08812000000000002  0.55776  1.0000
  H   H6        1.0  0.98363  0.92999  0.38151  1.0000
  H   H7        1.0  0.68487  0.56082  0.91412  1.0000
  H   H8        1.0  0.2941100000000001  0.46638  0.74485  1.0000
  H   H9        1.0  0.30351000000000006  0.68969  0.33394  1.0000
  H   H10       1.0  0.28364  0.48141  0.04173  1.0000
  H   H11       1.0  0.66823  0.21471999999999994  0.59763  1.0000
  H   H12       1.0  0.66454  0.18106  0.30942  1.0000
  C   C1        1.0  0.6844400000000003  0.63026  0.72567  1.0000
  C   C2        1.0  0.8623400000000001  0.66432  0.83348  1.0000
  C   C3        1.0  0.10606999999999996  0.65368  0.80997  1.0000
  C   C4        1.0  0.2813600000000001  0.74475  0.9153  1.0000
  C   C5        1.0  0.32908  0.3051  0.24735  1.0000
  C   C6        1.0  0.14177  0.44431  0.25409  1.0000
  C   C7        1.0  0.08727000000000001  0.50535  0.14769  1.0000
  C   C8        1.0  0.9587  0.68289  0.15304  1.0000
  C   C9        1.0  0.0063199999999999775  0.3236  0.49482  1.0000
  C   C10       1.0  0.87299  0.14972999999999997  0.49544000000000005  1.0000
  C   C11       1.0  0.82473  0.000740000000000024  0.38716000000000006  1.0000
  C   C12       1.0  0.64117  0.86152  0.39106  1.0000
  O   O1        1.0  0.55362  0.48140999999999995  0.68879  1.0000
  O   O2        1.0  0.6760900000000001  0.74863  0.67072  1.0000
  O   O3        1.0  0.83507  0.5416  0.89576  1.0000
  O   O4        1.0  0.14484  0.46957000000000004  0.7643400000000001  1.0000
  O   O5        1.0  0.43253000000000014  0.6488  0.9606  1.0000
  O   O6        1.0  0.26722  0.9128699999999997  0.96055  1.0000
  O   O7        1.0  0.29883  0.16563  0.16907  1.0000
  O   O8        1.0  0.51077  0.34194999999999987  0.3255  1.0000
  O   O9        1.0  0.21137000000000003  0.59093  0.3506600000000001  1.0000
  O   O10       1.0  0.30025  0.53428  0.11944000000000002  1.0000
  O   O11       1.0  0.06568  0.8208399999999998  0.1437  1.0000
  O   O12       1.0  0.7554300000000002  0.6806  0.16453  1.0000
  O   O13       1.0  0.90062  0.46994  0.50473  1.0000
  O   O14       1.0  0.2111800000000001  0.31106  0.4852400000000001  1.0000
  O   O15       1.0  0.6560400000000002  0.20155  0.52044  1.0000
  O   O16       1.0  0.7546800000000002  0.06715  0.29207  1.0000
  O   O17       1.0  0.45545  0.8352399999999998  0.31531  1.0000
  O   O18       1.0  0.6782900000000001  0.78259  0.46601  1.0000
