data_image0
_chemical_formula_structural       Pr2H15C24N3O12
_chemical_formula_sum              "Pr2 H15 C24 N3 O12"
_cell_length_a       10.44589
_cell_length_b       11.27148
_cell_length_c       12.96593
_cell_angle_alpha    101.37986999999998
_cell_angle_beta     109.99815999999998
_cell_angle_gamma    99.81232

_symmetry_space_group_name_H-M    'P 1'
_symmetry_Int_Tables_number       1

loop_
  _symmetry_equiv_pos_as_xyz
  'x,y,z'

loop_
  _atom_site_type_symbol
  _atom_site_label
  _atom_site_symmetry_multiplicity
  _atom_site_fract_x
  _atom_site_fract_y
  _atom_site_fract_z
  _atom_site_occupancy
  Pr  Pr1       1.0  0.62276  0.57175  0.65424  1.0000
  Pr  Pr2       1.0  0.39831  0.42854000000000003  0.33747  1.0000
  H   H1        1.0  0.9033300000000002  0.64655  0.59456  1.0000
  H   H2        1.0  0.52969  0.8830200000000001  0.34077  1.0000
  H   H3        1.0  0.09769000000000001  0.80108  0.96089  1.0000
  H   H4        1.0  0.37779000000000007  0.8147900000000001  0.64132  1.0000
  H   H5        1.0  0.39412  0.9602300000000001  0.7122  1.0000
  H   H6        1.0  0.6457700000000001  0.8791800000000001  0.88373  1.0000
  H   H7        1.0  0.6806300000000002  0.03134000000000005  0.9648900000000001  1.0000
  H   H8        1.0  0.09728000000000003  0.3591  0.38394  1.0000
  H   H9        1.0  0.49071  0.14435  0.67814  1.0000
  H   H10       1.0  0.91074  0.15308  0.09473  1.0000
  H   H11       1.0  0.27363000000000004  0.67806  0.73523  1.0000
  H   H12       1.0  0.12555000000000008  0.72596  0.7406600000000001  1.0000
  H   H13       1.0  0.83976  0.33719  0.31014  1.0000
  H   H14       1.0  0.57019  0.11458  0.37147  1.0000
  H   H15       1.0  0.26336  0.99374  0.11106000000000002  1.0000
  C   C1        1.0  0.7053400000000001  0.48787  0.40801  1.0000
  C   C2        1.0  0.85749  0.49243000000000003  0.44878  1.0000
  C   C3        1.0  0.9106199999999999  0.40916  0.38803  1.0000
  C   C4        1.0  0.94658  0.58245  0.54977  1.0000
  C   C5        1.0  0.48296  0.74812  0.4783200000000001  1.0000
  C   C6        1.0  0.48283000000000004  0.8821  0.4898700000000001  1.0000
  C   C7        1.0  0.47009  0.95462  0.58744  1.0000
  C   C8        1.0  0.51797  0.9402200000000001  0.41314000000000006  1.0000
  C   C9        1.0  0.8194000000000001  0.75162  0.85319  1.0000
  C   C10       1.0  0.9112300000000001  0.86514  0.94569  1.0000
  C   C11       1.0  0.8545700000000003  0.96219  0.9873100000000001  1.0000
  C   C12       1.0  0.05791000000000006  0.87847  0.9914  1.0000
  C   C13       1.0  0.30017000000000005  0.52508  0.57199  1.0000
  C   C14       1.0  0.14771  0.51451  0.53147  1.0000
  C   C15       1.0  0.09288000000000002  0.59575  0.59443  1.0000
  C   C16       1.0  0.05467000000000001  0.42229  0.43019  1.0000
  C   C17       1.0  0.55225  0.27614  0.5439  1.0000
  C   C18       1.0  0.53503  0.13996  0.52834  1.0000
  C   C19       1.0  0.54319  0.06862  0.43027  1.0000
  C   C20       1.0  0.49845  0.08466999999999997  0.60468  1.0000
  C   C21       1.0  0.19513000000000005  0.20828  0.18082000000000004  1.0000
  C   C22       1.0  0.09514000000000003  0.08551  0.10742  1.0000
  C   C23       1.0  0.15020000000000003  0.9851000000000001  0.07417  1.0000
  C   C24       1.0  0.95029  0.07398000000000002  0.06675  1.0000
  N   N1        1.0  0.43629000000000007  0.90471  0.66812  1.0000
  N   N2        1.0  0.71179  0.9509100000000001  0.95236  1.0000
  N   N3        1.0  0.17692999999999998  0.68974  0.69287  1.0000
  O   O1        1.0  0.65908  0.5475000000000002  0.47834  1.0000
  O   O2        1.0  0.62159  0.42810000000000004  0.30667  1.0000
  O   O3        1.0  0.5531200000000001  0.72611  0.57208  1.0000
  O   O4        1.0  0.4198300000000001  0.66383  0.38311  1.0000
  O   O5        1.0  0.86354  0.69791  0.7794  1.0000
  O   O6        1.0  0.69252  0.70794  0.84477  1.0000
  O   O7        1.0  0.35134  0.4671600000000001  0.50376  1.0000
  O   O8        1.0  0.38363  0.58928  0.67199  1.0000
  O   O9        1.0  0.50827  0.3095300000000001  0.45258000000000004  1.0000
  O   O10       1.0  0.60561  0.35323  0.64391  1.0000
  O   O11       1.0  0.15064000000000002  0.30399  0.20967  1.0000
  O   O12       1.0  0.32793000000000005  0.21653  0.21314  1.0000
