data_image0
_chemical_formula_structural       In4H12C36O28
_chemical_formula_sum              "In4 H12 C36 O28"
_cell_length_a       7.72093
_cell_length_b       9.19229
_cell_length_c       17.12974
_cell_angle_alpha    90.27722
_cell_angle_beta     90.21161
_cell_angle_gamma    90.14649

_symmetry_space_group_name_H-M    'P 1'
_symmetry_Int_Tables_number       1

loop_
  _symmetry_equiv_pos_as_xyz
  'x,y,z'

loop_
  _atom_site_type_symbol
  _atom_site_label
  _atom_site_symmetry_multiplicity
  _atom_site_fract_x
  _atom_site_fract_y
  _atom_site_fract_z
  _atom_site_occupancy
  In  In1       1.0  0.29769  0.77771  0.61116  1.0000
  In  In2       1.0  0.8145600000000002  0.74441  0.5453800000000001  1.0000
  In  In3       1.0  0.69109  0.20182  0.10696  1.0000
  In  In4       1.0  0.15959000000000007  0.24377999999999997  0.051780000000000014  1.0000
  H   H1        1.0  0.43111  0.03185  0.33699  1.0000
  H   H2        1.0  0.6737700000000002  0.45230999999999993  0.3491  1.0000
  H   H3        1.0  0.48727  0.25439  0.55969  1.0000
  H   H4        1.0  0.07241000000000003  0.99435  0.8117000000000002  1.0000
  H   H5        1.0  0.82171  0.57446  0.79996  1.0000
  H   H6        1.0  0.9943400000000002  0.7483399999999998  0.02188  1.0000
  H   H7        1.0  0.55704  0.98377  0.84702  1.0000
  H   H8        1.0  0.338  0.5524100000000001  0.84323  1.0000
  H   H9        1.0  0.5364  0.73513  0.05915000000000001  1.0000
  H   H10       1.0  0.9183900000000003  0.0054  0.31247  1.0000
  H   H11       1.0  0.15986  0.42872  0.3034  1.0000
  H   H12       1.0  0.006780000000000001  0.24707999999999997  0.52482  1.0000
  C   C1        1.0  0.4468000000000001  0.13197  0.4519300000000001  1.0000
  C   C2        1.0  0.46869  0.12713  0.37101  1.0000
  C   C3        1.0  0.5450900000000002  0.24600999999999998  0.33389  1.0000
  C   C4        1.0  0.60582  0.36379  0.37766  1.0000
  C   C5        1.0  0.58371  0.36663  0.45863  1.0000
  C   C6        1.0  0.50053  0.25243  0.49644000000000005  1.0000
  C   C7        1.0  0.40345  0.00028000000000000025  0.49595  1.0000
  C   C8        1.0  0.58257  0.23851  0.24924000000000002  1.0000
  C   C9        1.0  0.6598100000000002  0.48923  0.50408  1.0000
  C   C10       1.0  0.03609  0.88427  0.92149  1.0000
  C   C11       1.0  0.02365  0.89685  0.8400400000000002  1.0000
  C   C12       1.0  0.94745  0.7851699999999999  0.79593  1.0000
  C   C13       1.0  0.8832  0.6612099999999999  0.83359  1.0000
  C   C14       1.0  0.9040400000000002  0.64474  0.9147200000000002  1.0000
  C   C15       1.0  0.98046  0.75693  0.9588400000000001  1.0000
  C   C16       1.0  0.10156  0.011069999999999998  0.9674200000000001  1.0000
  C   C17       1.0  0.9433900000000002  0.79624  0.70849  1.0000
  C   C18       1.0  0.84707  0.50106  0.9473900000000001  1.0000
  C   C19       1.0  0.5546  0.87076  0.9574  1.0000
  C   C20       1.0  0.5244300000000002  0.8833899999999999  0.87715  1.0000
  C   C21       1.0  0.45139  0.76605  0.8362  1.0000
  C   C22       1.0  0.39972000000000013  0.64071  0.8754200000000002  1.0000
  C   C23       1.0  0.43049  0.62949  0.95557  1.0000
  C   C24       1.0  0.51128  0.74251  0.9967700000000002  1.0000
  C   C25       1.0  0.6239  0.99525  0.0038300000000000005  1.0000
  C   C26       1.0  0.41649  0.77311  0.7513700000000002  1.0000
  C   C27       1.0  0.3732  0.49496999999999997  0.9934400000000001  1.0000
  C   C28       1.0  0.9611800000000003  0.11248  0.4234900000000001  1.0000
  C   C29       1.0  0.96719  0.10264999999999999  0.34171000000000007  1.0000
  C   C30       1.0  0.03665000000000001  0.21713  0.2983000000000001  1.0000
  C   C31       1.0  0.10300000000000001  0.34024  0.3366400000000001  1.0000
  C   C32       1.0  0.08995  0.35347999999999996  0.41803  1.0000
  C   C33       1.0  0.01768  0.23954999999999999  0.46163  1.0000
  C   C34       1.0  0.89954  0.9831499999999999  0.46818  1.0000
  C   C35       1.0  0.03802  0.2095  0.21126  1.0000
  C   C36       1.0  0.1472  0.49671999999999994  0.4513000000000001  1.0000
  O   O1        1.0  0.5079  0.89234  0.47354  1.0000
  O   O2        1.0  0.2987800000000001  0.9927299999999999  0.55095  1.0000
  O   O3        1.0  0.53289  0.12664  0.21044  1.0000
  O   O4        1.0  0.67352  0.33931  0.2178  1.0000
  O   O5        1.0  0.6233000000000001  0.51226  0.57443  1.0000
  O   O6        1.0  0.76662  0.56993  0.4650200000000001  1.0000
  O   O7        1.0  0.11727  0.13436  0.9338800000000003  1.0000
  O   O8        1.0  0.13389  0.99956  0.040970000000000006  1.0000
  O   O9        1.0  0.06541000000000002  0.86595  0.67531  1.0000
  O   O10       1.0  0.8168  0.734  0.6727400000000002  1.0000
  O   O11       1.0  0.7752600000000002  0.4066299999999999  0.90984  1.0000
  O   O12       1.0  0.89224  0.48884999999999995  0.02594  1.0000
  O   O13       1.0  0.09217  0.65872  0.5547600000000003  1.0000
  O   O14       1.0  0.51521  0.7698  0.52788  1.0000
  O   O15       1.0  0.62387  0.12340999999999999  0.9767300000000001  1.0000
  O   O16       1.0  0.67568  0.9695099999999999  0.07403000000000003  1.0000
  O   O17       1.0  0.44268000000000013  0.8887199999999998  0.71266  1.0000
  O   O18       1.0  0.35001  0.65876  0.71848  1.0000
  O   O19       1.0  0.48470000000000013  0.44814999999999994  0.047140000000000015  1.0000
  O   O20       1.0  0.23586  0.43083  0.97611  1.0000
  O   O21       1.0  0.8931800000000002  0.86008  0.4333800000000001  1.0000
  O   O22       1.0  0.85757  0.99325  0.54052  1.0000
  O   O23       1.0  0.93255  0.12612  0.17519  1.0000
  O   O24       1.0  0.15152  0.28862999999999994  0.17648000000000005  1.0000
  O   O25       1.0  0.21473000000000006  0.59341  0.41435  1.0000
  O   O26       1.0  0.10749  0.5064  0.5305000000000002  1.0000
  O   O27       1.0  0.8944000000000001  0.33602999999999994  0.05041  1.0000
  O   O28       1.0  0.43268  0.31197  0.08249  1.0000
