data_image0
_chemical_formula_structural       Gd4H12C36O24
_chemical_formula_sum              "Gd4 H12 C36 O24"
_cell_length_a       10.4634
_cell_length_b       10.45231
_cell_length_c       14.18217
_cell_angle_alpha    90.0
_cell_angle_beta     90.0
_cell_angle_gamma    90.0

_space_group_name_H-M_alt    "P 1"
_space_group_IT_number       1

loop_
  _space_group_symop_operation_xyz
  'x, y, z'

loop_
  _atom_site_type_symbol
  _atom_site_label
  _atom_site_symmetry_multiplicity
  _atom_site_fract_x
  _atom_site_fract_y
  _atom_site_fract_z
  _atom_site_occupancy
  Gd  Gd1       1.0  0.12999  0.12986  0.37467  1.0000
  Gd  Gd2       1.0  0.87001  0.87014  0.87467  1.0000
  Gd  Gd3       1.0  0.87001  0.12986  0.6253300000000003  1.0000
  Gd  Gd4       1.0  0.12999  0.87014  0.12533  1.0000
  H   H1        1.0  0.0799  0.53658  0.35998  1.0000
  H   H2        1.0  0.9201000000000001  0.46341999999999994  0.8599700000000002  1.0000
  H   H3        1.0  0.46326999999999996  0.07990999999999997  0.60989  1.0000
  H   H4        1.0  0.53673  0.92009  0.10989  1.0000
  H   H5        1.0  0.9201000000000001  0.53658  0.64002  1.0000
  H   H6        1.0  0.0799  0.46342999999999995  0.14002  1.0000
  H   H7        1.0  0.53673  0.07990999999999997  0.39011  1.0000
  H   H8        1.0  0.46326999999999996  0.92009  0.89011  1.0000
  H   H9        1.0  0.0  0.8933399999999999  0.5  1.0000
  H   H10       1.0  0.0  0.10665999999999998  0.0  1.0000
  H   H11       1.0  0.10715  0.0  0.75  1.0000
  H   H12       1.0  0.8928499999999999  0.0  0.25  1.0000
  C   C1        1.0  0.08419  0.7958599999999999  0.3354  1.0000
  C   C2        1.0  0.04506  0.58906  0.42106  1.0000
  C   C3        1.0  0.04356999999999999  0.72306  0.4205300000000001  1.0000
  C   C4        1.0  0.91581  0.20414  0.8354  1.0000
  C   C5        1.0  0.9549399999999999  0.41094  0.9210600000000001  1.0000
  C   C6        1.0  0.95643  0.27694  0.92053  1.0000
  C   C7        1.0  0.20345  0.08464  0.58627  1.0000
  C   C8        1.0  0.41092999999999996  0.04510999999999998  0.6710200000000002  1.0000
  C   C9        1.0  0.27704  0.04388  0.6707700000000002  1.0000
  C   C10       1.0  0.79655  0.9153599999999998  0.08627  1.0000
  C   C11       1.0  0.58907  0.9548899999999998  0.17102000000000006  1.0000
  C   C12       1.0  0.72296  0.9561299999999998  0.17077000000000006  1.0000
  C   C13       1.0  0.91581  0.7958599999999999  0.6646000000000002  1.0000
  C   C14       1.0  0.9549399999999999  0.58906  0.57894  1.0000
  C   C15       1.0  0.95643  0.72306  0.57946  1.0000
  C   C16       1.0  0.08419  0.20414  0.1646  1.0000
  C   C17       1.0  0.04506  0.41094  0.07894  1.0000
  C   C18       1.0  0.04356999999999999  0.27695  0.07946  1.0000
  C   C19       1.0  0.79654  0.08464  0.4137300000000001  1.0000
  C   C20       1.0  0.58907  0.04510999999999998  0.32898000000000005  1.0000
  C   C21       1.0  0.72296  0.04388  0.32922  1.0000
  C   C22       1.0  0.20345  0.9153599999999998  0.9137300000000003  1.0000
  C   C23       1.0  0.41092999999999996  0.9548899999999998  0.8289700000000001  1.0000
  C   C24       1.0  0.27704  0.9561299999999998  0.8292200000000002  1.0000
  C   C25       1.0  0.0  0.37911  0.5  1.0000
  C   C26       1.0  0.0  0.5222299999999999  0.5  1.0000
  C   C27       1.0  0.0  0.7894799999999998  0.5  1.0000
  C   C28       1.0  0.0  0.6208899999999999  0.0  1.0000
  C   C29       1.0  0.0  0.47777  0.0  1.0000
  C   C30       1.0  0.0  0.21052  0.0  1.0000
  C   C31       1.0  0.62061  0.0  0.75  1.0000
  C   C32       1.0  0.47768  0.0  0.75  1.0000
  C   C33       1.0  0.21086  0.0  0.75  1.0000
  C   C34       1.0  0.37939  0.0  0.25  1.0000
  C   C35       1.0  0.52232  0.0  0.25  1.0000
  C   C36       1.0  0.7891399999999998  0.0  0.25  1.0000
  O   O1        1.0  0.08148  0.3236299999999999  0.4471600000000001  1.0000
  O   O2        1.0  0.09927  0.73687  0.25755  1.0000
  O   O3        1.0  0.0994  0.91725  0.34238  1.0000
  O   O4        1.0  0.9185199999999999  0.67637  0.94716  1.0000
  O   O5        1.0  0.9007299999999999  0.26313  0.7575500000000002  1.0000
  O   O6        1.0  0.9005999999999998  0.08274999999999999  0.84238  1.0000
  O   O7        1.0  0.67597  0.08045  0.69599  1.0000
  O   O8        1.0  0.26205  0.09982  0.5084  1.0000
  O   O9        1.0  0.0822  0.09928999999999998  0.59401  1.0000
  O   O10       1.0  0.32403  0.9195599999999999  0.19599000000000005  1.0000
  O   O11       1.0  0.73795  0.9001899999999999  0.00841  1.0000
  O   O12       1.0  0.9177999999999998  0.90071  0.09401  1.0000
  O   O13       1.0  0.9185199999999999  0.3236399999999999  0.55284  1.0000
  O   O14       1.0  0.9007299999999999  0.73687  0.7424400000000002  1.0000
  O   O15       1.0  0.90061  0.91725  0.65762  1.0000
  O   O16       1.0  0.08148  0.67637  0.05284000000000001  1.0000
  O   O17       1.0  0.09927  0.26313  0.24245  1.0000
  O   O18       1.0  0.09939  0.08274999999999999  0.15762  1.0000
  O   O19       1.0  0.32403  0.08045  0.3040000000000001  1.0000
  O   O20       1.0  0.73795  0.09982  0.49159000000000014  1.0000
  O   O21       1.0  0.9177999999999998  0.09928999999999998  0.40598000000000006  1.0000
  O   O22       1.0  0.67597  0.9195499999999999  0.804  1.0000
  O   O23       1.0  0.26205  0.9001899999999999  0.99159  1.0000
  O   O24       1.0  0.0822  0.90071  0.9059800000000002  1.0000
