data_image0
_chemical_formula_structural       Cd4H24C48O16
_chemical_formula_sum              "Cd4 H24 C48 O16"
_cell_length_a       6.05607
_cell_length_b       14.09104
_cell_length_c       15.31746
_cell_angle_alpha    90.04319999999998
_cell_angle_beta     90.00178
_cell_angle_gamma    89.99187000000002

_symmetry_space_group_name_H-M    'P 1'
_symmetry_Int_Tables_number       1

loop_
  _symmetry_equiv_pos_as_xyz
  'x,y,z'

loop_
  _atom_site_type_symbol
  _atom_site_label
  _atom_site_symmetry_multiplicity
  _atom_site_fract_x
  _atom_site_fract_y
  _atom_site_fract_z
  _atom_site_occupancy
  Cd  Cd1       1.0  0.6286  0.20277000000000006  0.4713400000000001  1.0000
  Cd  Cd2       1.0  0.12845  0.29731  0.52892  1.0000
  Cd  Cd3       1.0  0.87045  0.7970100000000001  0.9707700000000002  1.0000
  Cd  Cd4       1.0  0.37044  0.7031300000000003  0.029370000000000007  1.0000
  H   H1        1.0  0.37242  0.19063  0.05471  1.0000
  H   H2        1.0  0.8383000000000002  0.23685000000000006  0.2179  1.0000
  H   H3        1.0  0.16191  0.73601  0.2836  1.0000
  H   H4        1.0  0.33199999999999996  0.8412  0.75148  1.0000
  H   H5        1.0  0.6670400000000001  0.34278  0.74916  1.0000
  H   H6        1.0  0.8535800000000001  0.18793000000000007  0.06291000000000002  1.0000
  H   H7        1.0  0.87263  0.30953000000000014  0.9453600000000002  1.0000
  H   H8        1.0  0.33878  0.26316000000000006  0.7821  1.0000
  H   H9        1.0  0.12709  0.8102600000000002  0.55585  1.0000
  H   H10       1.0  0.11914  0.9811200000000002  0.5169900000000002  1.0000
  H   H11       1.0  0.64596  0.8122700000000003  0.56123  1.0000
  H   H12       1.0  0.63876  0.46428000000000014  0.8672900000000002  1.0000
  H   H13       1.0  0.62727  0.6899500000000002  0.44414  1.0000
  H   H14       1.0  0.36266  0.9618600000000003  0.6327800000000002  1.0000
  H   H15       1.0  0.88046  0.4806900000000001  0.9836300000000002  1.0000
  H   H16       1.0  0.14602  0.6879100000000001  0.43875  1.0000
  H   H17       1.0  0.16706  0.15749000000000005  0.25087  1.0000
  H   H18       1.0  0.61935  0.51907  0.4830000000000001  1.0000
  H   H19       1.0  0.13863  0.03592  0.13279000000000005  1.0000
  H   H20       1.0  0.8321  0.65884  0.24873000000000006  1.0000
  H   H21       1.0  0.66193  0.7642100000000002  0.7164200000000002  1.0000
  H   H22       1.0  0.35354  0.31217  0.93709  1.0000
  H   H23       1.0  0.38032  0.01946000000000001  0.01651  1.0000
  H   H24       1.0  0.86225  0.5381300000000001  0.3673700000000001  1.0000
  C   C1        1.0  0.85773  0.26287  0.08028  1.0000
  C   C2        1.0  0.62804  0.5729  0.5337200000000002  1.0000
  C   C3        1.0  0.85144  0.28991  0.16691000000000006  1.0000
  C   C4        1.0  0.3572  0.9441900000000002  0.8539000000000002  1.0000
  C   C5        1.0  0.35921000000000003  0.08048000000000002  0.71959  1.0000
  C   C6        1.0  0.64384  0.6136000000000001  0.6906100000000002  1.0000
  C   C7        1.0  0.87157  0.4271100000000001  0.03448  1.0000
  C   C8        1.0  0.13799  0.8516100000000001  0.14341000000000007  1.0000
  C   C9        1.0  0.12797  0.9273000000000002  0.4662900000000001  1.0000
  C   C10       1.0  0.63421  0.54297  0.6224  1.0000
  C   C11       1.0  0.8591  0.4195100000000001  0.28047  1.0000
  C   C12       1.0  0.85578  0.51585  0.29949  1.0000
  C   C13       1.0  0.63811  0.6484800000000002  0.85675  1.0000
  C   C14       1.0  0.86876  0.63351  0.08101000000000003  1.0000
  C   C15       1.0  0.8559  0.38746  0.19151000000000007  1.0000
  C   C16       1.0  0.14837  0.7892900000000002  0.3344400000000001  1.0000
  C   C17       1.0  0.13163  0.83224  0.4877300000000001  1.0000
  C   C18       1.0  0.63119  0.3666000000000001  0.58149  1.0000
  C   C19       1.0  0.64238  0.4448700000000001  0.6462  1.0000
  C   C20       1.0  0.13102  0.13351000000000002  0.41872  1.0000
  C   C21       1.0  0.35171  0.21017000000000005  0.8331400000000002  1.0000
  C   C22       1.0  0.13422  0.9572800000000002  0.37763000000000013  1.0000
  C   C23       1.0  0.64194  0.7374300000000003  0.57886  1.0000
  C   C24       1.0  0.368  0.16822000000000006  0.9866900000000002  1.0000
  C   C25       1.0  0.35603  0.98414  0.7006500000000002  1.0000
  C   C26       1.0  0.84387  0.5837600000000002  0.23297000000000007  1.0000
  C   C27       1.0  0.14194  0.7627500000000003  0.4211300000000001  1.0000
  C   C28       1.0  0.35612000000000005  0.11263  0.8085500000000002  1.0000
  C   C29       1.0  0.8653  0.4576300000000001  0.12301000000000002  1.0000
  C   C30       1.0  0.8628900000000002  0.3542700000000001  0.3579100000000001  1.0000
  C   C31       1.0  0.64114  0.5823800000000001  0.7798000000000003  1.0000
  C   C32       1.0  0.14104  0.91784  0.22027  1.0000
  C   C33       1.0  0.36275  0.14563000000000006  0.64206  1.0000
  C   C34       1.0  0.14379  0.8866400000000001  0.30944  1.0000
  C   C35       1.0  0.63172  0.6679500000000003  0.51226  1.0000
  C   C36       1.0  0.15549  0.0825  0.2669800000000001  1.0000
  C   C37       1.0  0.34408  0.9162900000000003  0.76721  1.0000
  C   C38       1.0  0.35783  0.23722000000000004  0.9197700000000002  1.0000
  C   C39       1.0  0.868  0.33192  0.01339  1.0000
  C   C40       1.0  0.64841  0.7109400000000002  0.6655700000000002  1.0000
  C   C41       1.0  0.36556000000000005  0.04251000000000001  0.8771000000000002  1.0000
  C   C42       1.0  0.8568399999999999  0.55593  0.14627  1.0000
  C   C43       1.0  0.64429  0.48615000000000014  0.7993200000000003  1.0000
  C   C44       1.0  0.36876999999999993  0.8665800000000002  0.9191600000000002  1.0000
  C   C45       1.0  0.65542  0.41777  0.73308  1.0000
  C   C46       1.0  0.37166  0.07303  0.96564  1.0000
  C   C47       1.0  0.14247  0.055380000000000006  0.35387000000000013  1.0000
  C   C48       1.0  0.14422  0.01407  0.20076000000000005  1.0000
  O   O1        1.0  0.7328  0.7035700000000001  0.08912  1.0000
  O   O2        1.0  0.98634  0.13309  0.4795300000000001  1.0000
  O   O3        1.0  0.24301999999999999  0.7731600000000002  0.15003000000000005  1.0000
  O   O4        1.0  0.96724  0.3851500000000001  0.42467  1.0000
  O   O5        1.0  0.25705  0.22392000000000006  0.6480100000000002  1.0000
  O   O6        1.0  0.03483  0.8815100000000002  0.07607  1.0000
  O   O7        1.0  0.26676  0.20345000000000005  0.4095600000000001  1.0000
  O   O8        1.0  0.51348  0.8672800000000003  0.9799000000000002  1.0000
  O   O9        1.0  0.74322  0.72693  0.8502300000000003  1.0000
  O   O10       1.0  0.23273999999999997  0.7966  0.9108500000000003  1.0000
  O   O11       1.0  0.7670100000000001  0.29669  0.5907800000000002  1.0000
  O   O12       1.0  0.75702  0.2760200000000001  0.35207  1.0000
  O   O13       1.0  0.01425  0.63267  0.020630000000000006  1.0000
  O   O14       1.0  0.46647000000000005  0.11472000000000002  0.5751600000000002  1.0000
  O   O15       1.0  0.48696  0.36684  0.52051  1.0000
  O   O16       1.0  0.53481  0.6185000000000003  0.9240000000000003  1.0000
