data_image0
_chemical_formula_structural       Zn2Ni2H16C30N14O2
_chemical_formula_sum              "Zn2 Ni2 H16 C30 N14 O2"
_cell_length_a       7.37858
_cell_length_b       12.56706
_cell_length_c       13.445140000000002
_cell_angle_alpha    90.51201
_cell_angle_beta     88.01018
_cell_angle_gamma    89.38030000000002

_symmetry_space_group_name_H-M    'P 1'
_symmetry_Int_Tables_number       1

loop_
  _symmetry_equiv_pos_as_xyz
  'x,y,z'

loop_
  _atom_site_type_symbol
  _atom_site_label
  _atom_site_symmetry_multiplicity
  _atom_site_fract_x
  _atom_site_fract_y
  _atom_site_fract_z
  _atom_site_occupancy
  Zn  Zn1       1.0  0.49443  0.25071  0.0872  1.0000
  Zn  Zn2       1.0  0.51502  0.74892  0.90787  1.0000
  Ni  Ni1       1.0  0.0036900000000000045  0.0010299999999999994  0.99678  1.0000
  Ni  Ni2       1.0  0.9844  0.51963  0.02977  1.0000
  H   H1        1.0  0.52587  0.40785  0.91573  1.0000
  H   H2        1.0  0.5697099999999998  0.41026  0.72975  1.0000
  H   H3        1.0  0.44259999999999994  0.4561300000000001  0.42866  1.0000
  H   H4        1.0  0.3869499999999999  0.42407  0.24781  1.0000
  H   H5        1.0  0.48291  0.92385  0.0708  1.0000
  H   H6        1.0  0.39054  0.93434  0.25162  1.0000
  H   H7        1.0  0.45275  0.88488  0.54372  1.0000
  H   H8        1.0  0.48553  0.8958500000000001  0.7283600000000001  1.0000
  H   H9        1.0  0.56985  0.59806  0.08583  1.0000
  H   H10       1.0  0.51196  0.59845  0.27027  1.0000
  H   H11       1.0  0.48122  0.54067  0.57133  1.0000
  H   H12       1.0  0.51263  0.56993  0.75529  1.0000
  H   H13       1.0  0.5518599999999999  0.07827  0.91982  1.0000
  H   H14       1.0  0.61366  0.06801  0.7358  1.0000
  H   H15       1.0  0.5638899999999999  0.1178  0.45017  1.0000
  H   H16       1.0  0.50728  0.10366000000000003  0.2684  1.0000
  C   C1        1.0  0.8241699999999998  0.08209  0.06133  1.0000
  C   C2        1.0  0.18415  0.07688  0.05473  1.0000
  C   C3        1.0  0.5417200000000002  0.3344  0.87266  1.0000
  C   C4        1.0  0.56594  0.33548  0.76941  1.0000
  C   C5        1.0  0.45726  0.37675  0.39620999999999995  1.0000
  C   C6        1.0  0.42696  0.35961000000000004  0.29625  1.0000
  C   C7        1.0  0.17376  0.61085  0.98521  1.0000
  C   C8        1.0  0.82263  0.56197  0.9286  1.0000
  C   C9        1.0  0.48486  0.85346  0.11718  1.0000
  C   C10       1.0  0.437  0.8595  0.21799  1.0000
  C   C11       1.0  0.46674  0.81308  0.58723  1.0000
  C   C12       1.0  0.48499999999999976  0.81966  0.68919  1.0000
  C   C13       1.0  0.18996  0.9241900000000002  0.93517  1.0000
  C   C14       1.0  0.8315799999999998  0.91947  0.9361  1.0000
  C   C15       1.0  0.53737  0.67162  0.12615  1.0000
  C   C16       1.0  0.50156  0.67181  0.22859  1.0000
  C   C17       1.0  0.48079999999999995  0.62051  0.60323  1.0000
  C   C18       1.0  0.49854  0.63596  0.7044699999999999  1.0000
  C   C19       1.0  0.7940199999999997  0.4405400000000001  0.09358  1.0000
  C   C20       1.0  0.15366  0.40350000000000014  0.02813  1.0000
  C   C21       1.0  0.55855  0.15002  0.87524  1.0000
  C   C22       1.0  0.59003  0.14449  0.7726999999999999  1.0000
  C   C23       1.0  0.52402  0.1875  0.40882  1.0000
  C   C24       1.0  0.4928399999999999  0.17935000000000006  0.30807  1.0000
  C   C25       1.0  0.59351  0.23897  0.71805  1.0000
  C   C26       1.0  0.6389199999999998  0.23349000000000003  0.60871  1.0000
  C   C27       1.0  0.51406  0.28997  0.45577  1.0000
  C   C28       1.0  0.44368999999999986  0.76701  0.27519  1.0000
  C   C29       1.0  0.3777299999999999  0.77325  0.38144  1.0000
  C   C30       1.0  0.46028  0.71048  0.54091  1.0000
  N   N1        1.0  0.30849  0.12142  0.08694  1.0000
  N   N2        1.0  0.7096  0.136  0.09882  1.0000
  N   N3        1.0  0.70523  0.61506  0.89744  1.0000
  N   N4        1.0  0.29747  0.6465700000000001  0.93984  1.0000
  N   N5        1.0  0.72299  0.8652300000000002  0.8996999999999999  1.0000
  N   N6        1.0  0.31651  0.8768500000000002  0.90212  1.0000
  N   N7        1.0  0.27355  0.3526200000000001  0.059  1.0000
  N   N8        1.0  0.67421  0.38061  0.10654  1.0000
  N   N9        1.0  0.53735  0.24337000000000003  0.92465  1.0000
  N   N10       1.0  0.55583  0.3107  0.55166  1.0000
  N   N11       1.0  0.44967  0.2635  0.2516  1.0000
  N   N12       1.0  0.52862  0.76051  0.07126  1.0000
  N   N13       1.0  0.43652999999999986  0.6924000000000002  0.44247  1.0000
  N   N14       1.0  0.49937  0.73322  0.74734  1.0000
  O   O1        1.0  0.7540699999999999  0.16899  0.57509  1.0000
  O   O2        1.0  0.26437  0.84161  0.40982  1.0000
