data_image0
_chemical_formula_structural       Co4H20C32O16
_chemical_formula_sum              "Co4 H20 C32 O16"
_cell_length_a       5.74764
_cell_length_b       10.85914
_cell_length_c       14.179489999999998
_cell_angle_alpha    99.2421
_cell_angle_beta     99.51284
_cell_angle_gamma    105.03753999999999

_symmetry_space_group_name_H-M    'P 1'
_symmetry_Int_Tables_number       1

loop_
  _symmetry_equiv_pos_as_xyz
  'x,y,z'

loop_
  _atom_site_type_symbol
  _atom_site_label
  _atom_site_symmetry_multiplicity
  _atom_site_fract_x
  _atom_site_fract_y
  _atom_site_fract_z
  _atom_site_occupancy
  Co  Co1       1.0  0.66192  0.29052  0.4414800000000001  1.0000
  Co  Co2       1.0  0.43469  0.47736  0.37906  1.0000
  Co  Co3       1.0  0.5652200000000001  0.52228  0.6196600000000002  1.0000
  Co  Co4       1.0  0.33931000000000006  0.7094400000000001  0.55815  1.0000
  H   H1        1.0  0.28308000000000005  0.09186000000000001  0.2825500000000001  1.0000
  H   H2        1.0  0.1519899999999999  0.44966  0.5054  1.0000
  H   H3        1.0  0.35023  0.33575  0.05902000000000002  1.0000
  H   H4        1.0  0.6510200000000002  0.6642800000000001  0.94019  1.0000
  H   H5        1.0  0.90724  0.17713  0.18926000000000007  1.0000
  H   H6        1.0  0.9348299999999999  0.07294  0.023810000000000008  1.0000
  H   H7        1.0  0.7992299999999998  0.7051100000000001  0.25906  1.0000
  H   H8        1.0  0.50495  0.9597200000000001  0.20327  1.0000
  H   H9        1.0  0.7164699999999998  0.90815  0.7165000000000002  1.0000
  H   H10       1.0  0.6311200000000001  0.7739600000000001  0.10595000000000003  1.0000
  H   H11       1.0  0.09303000000000014  0.8218500000000001  0.8099500000000002  1.0000
  H   H12       1.0  0.73809  0.9899100000000002  0.8584100000000001  1.0000
  H   H13       1.0  0.72547  0.03364999999999999  0.45434  1.0000
  H   H14       1.0  0.36958  0.22562  0.89345  1.0000
  H   H15       1.0  0.06396000000000016  0.92549  0.9752700000000002  1.0000
  H   H16       1.0  0.84773  0.55093  0.49381000000000014  1.0000
  H   H17       1.0  0.49623  0.04026000000000008  0.7959100000000002  1.0000
  H   H18       1.0  0.20119000000000015  0.2948900000000001  0.7394800000000002  1.0000
  H   H19       1.0  0.2742499999999999  0.96571  0.54495  1.0000
  H   H20       1.0  0.26309  0.010009999999999998  0.14087  1.0000
  C   C1        1.0  0.13078  0.026300000000000004  0.30238  1.0000
  C   C2        1.0  0.79279  0.18897  0.12420000000000003  1.0000
  C   C3        1.0  0.81493  0.99619  0.39916  1.0000
  C   C4        1.0  0.09511000000000006  0.22054  0.4098900000000001  1.0000
  C   C5        1.0  0.40013000000000015  0.6844500000000001  0.7645800000000003  1.0000
  C   C6        1.0  0.14079000000000014  0.19032000000000007  0.7090000000000002  1.0000
  C   C7        1.0  0.18490999999999996  0.003500000000000004  0.60003  1.0000
  C   C8        1.0  0.19025000000000006  0.86709  0.96796  1.0000
  C   C9        1.0  0.60159  0.31457  0.23506000000000002  1.0000
  C   C10       1.0  0.47599  0.27709  0.05089  1.0000
  C   C11       1.0  0.8099299999999999  0.13211  0.03123  1.0000
  C   C12       1.0  0.009200000000000009  0.07765  0.37017  1.0000
  C   C13       1.0  0.67384  0.07493  0.84902  1.0000
  C   C14       1.0  0.2077300000000001  0.8103000000000001  0.8750600000000002  1.0000
  C   C15       1.0  0.44705  0.22976  0.60413  1.0000
  C   C16       1.0  0.65756  0.14444  0.9472  1.0000
  C   C17       1.0  0.52518  0.7227700000000002  0.9485400000000003  1.0000
  C   C18       1.0  0.90541  0.7793400000000003  0.58951  1.0000
  C   C19       1.0  0.86908  0.97368  0.69682  1.0000
  C   C20       1.0  0.34317000000000003  0.8552  0.052060000000000016  1.0000
  C   C21       1.0  0.49116  0.21703  0.95795  1.0000
  C   C22       1.0  0.99068  0.9222100000000002  0.6290900000000003  1.0000
  C   C23       1.0  0.3760500000000001  0.73838  0.8647900000000001  1.0000
  C   C24       1.0  0.2575  0.1383  0.64026  1.0000
  C   C25       1.0  0.5530799999999999  0.77011  0.3951900000000001  1.0000
  C   C26       1.0  0.62503  0.26122  0.13462000000000002  1.0000
  C   C27       1.0  0.9475199999999998  0.10726  0.7387  1.0000
  C   C28       1.0  0.05268  0.89275  0.26055  1.0000
  C   C29       1.0  0.8590700000000001  0.8095500000000001  0.2899800000000001  1.0000
  C   C30       1.0  0.32713999999999993  0.9249400000000001  0.15024000000000004  1.0000
  C   C31       1.0  0.50983  0.78271  0.04142  1.0000
  C   C32       1.0  0.7423400000000001  0.8614100000000001  0.3588200000000001  1.0000
  O   O1        1.0  0.52445  0.34918  0.64899  1.0000
  O   O2        1.0  0.6699900000000001  0.25457  0.30115000000000003  1.0000
  O   O3        1.0  0.48496  0.58755  0.7501200000000002  1.0000
  O   O4        1.0  0.7067600000000003  0.47494  0.49086000000000013  1.0000
  O   O5        1.0  0.51232  0.18239000000000005  0.5274100000000002  1.0000
  O   O6        1.0  0.48854000000000003  0.8176800000000001  0.4720200000000001  1.0000
  O   O7        1.0  0.14795  0.8360500000000001  0.18891000000000002  1.0000
  O   O8        1.0  0.2940100000000001  0.5250800000000001  0.5084300000000002  1.0000
  O   O9        1.0  0.9976200000000002  0.7264100000000001  0.5232900000000003  1.0000
  O   O10       1.0  0.0034000000000000705  0.2735900000000001  0.4762300000000001  1.0000
  O   O11       1.0  0.47540000000000016  0.6506700000000001  0.3502900000000001  1.0000
  O   O12       1.0  0.33033999999999997  0.74377  0.69821  1.0000
  O   O13       1.0  0.7353999999999999  0.7117900000000001  0.62473  1.0000
  O   O14       1.0  0.26557  0.28815  0.37485  1.0000
  O   O15       1.0  0.8528900000000001  0.16402000000000005  0.8105400000000003  1.0000
  O   O16       1.0  0.5194199999999999  0.4124600000000001  0.24994  1.0000
