data_image0
_chemical_formula_structural       Co2H28C34S2N8O8
_chemical_formula_sum              "Co2 H28 C34 S2 N8 O8"
_cell_length_a       10.08964
_cell_length_b       10.801200000000001
_cell_length_c       10.70542
_cell_angle_alpha    98.45510000000002
_cell_angle_beta     109.07638000000001
_cell_angle_gamma    107.9431

_symmetry_space_group_name_H-M    'P 1'
_symmetry_Int_Tables_number       1

loop_
  _symmetry_equiv_pos_as_xyz
  'x,y,z'

loop_
  _atom_site_type_symbol
  _atom_site_label
  _atom_site_symmetry_multiplicity
  _atom_site_fract_x
  _atom_site_fract_y
  _atom_site_fract_z
  _atom_site_occupancy
  Co  Co1       1.0  0.34981  0.39810000000000006  0.31763  1.0000
  Co  Co2       1.0  0.84711  0.31847000000000003  0.4100600000000001  1.0000
  H   H1        1.0  0.44252  0.4591299999999999  0.63056  1.0000
  H   H2        1.0  0.61889  0.63304  0.36685000000000006  1.0000
  H   H3        1.0  0.65417  0.63092  0.8351300000000001  1.0000
  H   H4        1.0  0.84708  0.79968  0.56143  1.0000
  H   H5        1.0  0.8725  0.8746199999999998  0.9123200000000001  1.0000
  H   H6        1.0  0.98089  0.90162  0.80978  1.0000
  H   H7        1.0  0.91995  0.66292  0.9389900000000001  1.0000
  H   H8        1.0  0.03214999999999996  0.6909199999999999  0.84272  1.0000
  H   H9        1.0  0.22084000000000004  0.9034  0.02247  1.0000
  H   H10       1.0  0.10363999999999998  0.88815  0.11661000000000002  1.0000
  H   H11       1.0  0.18458999999999995  0.79783  0.31137  1.0000
  H   H12       1.0  0.24714000000000005  0.6540400000000001  0.9446700000000002  1.0000
  H   H13       1.0  0.27611  0.62965  0.40501  1.0000
  H   H14       1.0  0.333  0.4902  0.05085  1.0000
  H   H15       1.0  0.94017  0.62963  0.44965000000000005  1.0000
  H   H16       1.0  0.12645999999999996  0.37685  0.64002  1.0000
  H   H17       1.0  0.15154000000000006  0.83377  0.61923  1.0000
  H   H18       1.0  0.35499  0.57076  0.80299  1.0000
  H   H19       1.0  0.36908  0.9132899999999999  0.8728100000000001  1.0000
  H   H20       1.0  0.48183  0.81366  0.9029000000000001  1.0000
  H   H21       1.0  0.4170400000000001  0.9435  0.6619600000000001  1.0000
  H   H22       1.0  0.52973  0.84685  0.68888  1.0000
  H   H23       1.0  0.71911  0.01919  0.90681  1.0000
  H   H24       1.0  0.60206  0.11392000000000001  0.89456  1.0000
  H   H25       1.0  0.67119  0.30596000000000007  0.80244  1.0000
  H   H26       1.0  0.7498300000000001  0.9505400000000002  0.6585  1.0000
  H   H27       1.0  0.7698400000000001  0.40625000000000006  0.64202  1.0000
  H   H28       1.0  0.8407499999999999  0.06207000000000002  0.50086  1.0000
  C   C1        1.0  0.08836000000000004  0.24744  0.36577  1.0000
  C   C2        1.0  0.53233  0.53715  0.6186  1.0000
  C   C3        1.0  0.6327  0.63309  0.47236000000000006  1.0000
  C   C4        1.0  0.19013000000000005  0.17233000000000004  0.3990200000000001  1.0000
  C   C5        1.0  0.6530899999999998  0.63176  0.73301  1.0000
  C   C6        1.0  0.7597100000000001  0.72711  0.5823200000000001  1.0000
  C   C7        1.0  0.17969  0.057429999999999974  0.45178  1.0000
  C   C8        1.0  0.77191  0.72779  0.7170000000000001  1.0000
  C   C9        1.0  0.05793000000000011  0.9782000000000001  0.49772000000000005  1.0000
  C   C10       1.0  0.90917  0.82367  0.84081  1.0000
  C   C11       1.0  0.99654  0.74296  0.91405  1.0000
  C   C12       1.0  0.13637  0.83014  0.047050000000000015  1.0000
  C   C13       1.0  0.20464  0.73981  0.11692  1.0000
  C   C14       1.0  0.21738999999999997  0.73306  0.24989  1.0000
  C   C15       1.0  0.25075  0.65253  0.046910000000000014  1.0000
  C   C16       1.0  0.26909  0.63901  0.30345  1.0000
  C   C17       1.0  0.29931  0.55959  0.10565  1.0000
  C   C18       1.0  0.59111  0.36833  0.2406  1.0000
  C   C19       1.0  0.03189999999999998  0.61971  0.53061  1.0000
  C   C20       1.0  0.13758000000000004  0.47961000000000004  0.63525  1.0000
  C   C21       1.0  0.6946999999999999  0.40158999999999995  0.16933  1.0000
  C   C22       1.0  0.15262  0.73402  0.62405  1.0000
  C   C23       1.0  0.26488000000000006  0.5892800000000001  0.7277600000000001  1.0000
  C   C24       1.0  0.68378  0.4564  0.05466  1.0000
  C   C25       1.0  0.2736  0.7209  0.72461  1.0000
  C   C26       1.0  0.55848  0.49864  0.97127  1.0000
  C   C27       1.0  0.40843000000000007  0.84383  0.8226400000000001  1.0000
  C   C28       1.0  0.49432000000000015  0.91698  0.7426600000000002  1.0000
  C   C29       1.0  0.6340900000000002  0.04613999999999999  0.8337700000000001  1.0000
  C   C30       1.0  0.701  0.11753  0.74498  1.0000
  C   C31       1.0  0.7092199999999999  0.24839999999999998  0.73918  1.0000
  C   C32       1.0  0.7517200000000002  0.051670000000000015  0.65857  1.0000
  C   C33       1.0  0.76387  0.30527  0.64905  1.0000
  C   C34       1.0  0.80256  0.11313000000000002  0.5690900000000001  1.0000
  S   S1        1.0  0.41541  0.12513  0.41378  1.0000
  S   S2        1.0  0.9263699999999999  0.42861999999999995  0.1338  1.0000
  N   N1        1.0  0.5209700000000002  0.53735  0.48883000000000004  1.0000
  N   N2        1.0  0.31647  0.22090000000000004  0.37367  1.0000
  N   N3        1.0  0.30660000000000004  0.55082  0.23215000000000002  1.0000
  N   N4        1.0  0.29866  0.021829999999999995  0.46388  1.0000
  N   N5        1.0  0.022399999999999982  0.49279  0.53595  1.0000
  N   N6        1.0  0.8246200000000001  0.38175  0.22449  1.0000
  N   N7        1.0  0.8075099999999998  0.2385  0.56246  1.0000
  N   N8        1.0  0.80606  0.47464  0.02437  1.0000
  O   O1        1.0  0.13925  0.35472  0.3304  1.0000
  O   O2        1.0  0.46497  0.38282  0.19474  1.0000
  O   O3        1.0  0.08113000000000004  0.02999  0.62064  1.0000
  O   O4        1.0  0.9556599999999998  0.87164  0.41161  1.0000
  O   O5        1.0  0.63874  0.32879  0.34874  1.0000
  O   O6        1.0  0.95975  0.20194  0.37469000000000013  1.0000
  O   O7        1.0  0.57771  0.61915  0.01902  1.0000
  O   O8        1.0  0.4565800000000001  0.41036  0.8643500000000001  1.0000
