data_image0
_chemical_formula_structural       Zn6H16C28N16O16
_chemical_formula_sum              "Zn6 H16 C28 N16 O16"
_cell_length_a       7.97614
_cell_length_b       9.18347
_cell_length_c       16.0487
_cell_angle_alpha    85.98664
_cell_angle_beta     80.63801000000001
_cell_angle_gamma    64.30783

_space_group_name_H-M_alt    "P 1"
_space_group_IT_number       1

loop_
  _space_group_symop_operation_xyz
  'x, y, z'

loop_
  _atom_site_type_symbol
  _atom_site_label
  _atom_site_symmetry_multiplicity
  _atom_site_fract_x
  _atom_site_fract_y
  _atom_site_fract_z
  _atom_site_occupancy
  Zn  Zn1       1.0  0.24304000000000003  0.3336  0.5141199999999998  1.0000
  Zn  Zn2       1.0  0.42339000000000004  0.33351  0.9860899999999998  1.0000
  Zn  Zn3       1.0  0.7569599999999999  0.6664  0.48587999999999987  1.0000
  Zn  Zn4       1.0  0.5766099999999998  0.6664999999999998  0.01391  1.0000
  Zn  Zn5       1.0  0.9327999999999995  0.13475  0.24936999999999995  1.0000
  Zn  Zn6       1.0  0.06719000000000007  0.86526  0.7506299999999998  1.0000
  H   H1        1.0  0.81467  0.22848  0.59887  1.0000
  H   H2        1.0  0.4104900000000001  0.09611999999999997  0.36754  1.0000
  H   H3        1.0  0.31057  0.03811  0.29209  1.0000
  H   H4        1.0  0.6893399999999998  0.45797  0.3608  1.0000
  H   H5        1.0  0.9547700000000001  0.22923999999999994  0.9014699999999998  1.0000
  H   H6        1.0  0.49243999999999993  0.09683  0.13283999999999996  1.0000
  H   H7        1.0  0.65133  0.03873  0.20783  1.0000
  H   H8        1.0  0.85375  0.45801  0.13852  1.0000
  H   H9        1.0  0.18532  0.77153  0.40112  1.0000
  H   H10       1.0  0.5895100000000003  0.9038899999999997  0.6324599999999998  1.0000
  H   H11       1.0  0.6894300000000001  0.9618999999999998  0.7079099999999998  1.0000
  H   H12       1.0  0.3106500000000001  0.5420299999999998  0.6392  1.0000
  H   H13       1.0  0.04521999999999997  0.77077  0.09852  1.0000
  H   H14       1.0  0.5075500000000001  0.90317  0.8671599999999998  1.0000
  H   H15       1.0  0.34867000000000004  0.96128  0.79217  1.0000
  H   H16       1.0  0.14624000000000012  0.542  0.8614799999999998  1.0000
  C   C1        1.0  0.60143  0.19797999999999993  0.49891  1.0000
  C   C2        1.0  0.8987700000000001  0.12781  0.55576  1.0000
  C   C3        1.0  0.9107000000000004  0.9665599999999998  0.4392899999999999  1.0000
  C   C4        1.0  0.8078199999999999  0.09635  0.49621  1.0000
  C   C5        1.0  0.1296499999999999  0.23507999999999998  0.36367  1.0000
  C   C6        1.0  0.8345999999999999  0.39853  0.37147999999999987  1.0000
  C   C7        1.0  0.82598  0.9219599999999998  0.37321  1.0000
  C   C8        1.0  0.19858  0.19996  0.00106  1.0000
  C   C9        1.0  0.97214  0.12830999999999995  0.94448  1.0000
  C   C10       1.0  0.12327000000000009  0.9668899999999999  0.06039  1.0000
  C   C11       1.0  0.09492999999999999  0.09725  0.00374  1.0000
  C   C12       1.0  0.63514  0.23544  0.1362  1.0000
  C   C13       1.0  0.76749  0.39868  0.12808  1.0000
  C   C14       1.0  0.2527199999999998  0.92235  0.12633999999999995  1.0000
  C   C15       1.0  0.39857000000000004  0.8020299999999998  0.50108  1.0000
  C   C16       1.0  0.10122000000000017  0.8721999999999998  0.4442299999999999  1.0000
  C   C17       1.0  0.0893  0.03345  0.5607  1.0000
  C   C18       1.0  0.19217000000000012  0.9036599999999998  0.50379  1.0000
  C   C19       1.0  0.87035  0.76493  0.6363199999999998  1.0000
  C   C20       1.0  0.16539  0.60147  0.62852  1.0000
  C   C21       1.0  0.17400999999999997  0.07804  0.62678  1.0000
  C   C22       1.0  0.8014199999999997  0.80005  0.99894  1.0000
  C   C23       1.0  0.027850000000000076  0.8716999999999998  0.055519999999999986  1.0000
  C   C24       1.0  0.8767199999999996  0.03312  0.93961  1.0000
  C   C25       1.0  0.9050699999999999  0.90276  0.99625  1.0000
  C   C26       1.0  0.3648500000000002  0.76457  0.8638  1.0000
  C   C27       1.0  0.2325000000000001  0.60133  0.8719199999999998  1.0000
  C   C28       1.0  0.7472799999999999  0.07766  0.87366  1.0000
  N   N1        1.0  0.09054000000000004  0.3446999999999999  0.42435  1.0000
  N   N2        1.0  0.29714  0.11059  0.34039  1.0000
  N   N3        1.0  0.97121  0.26708  0.32882  1.0000
  N   N4        1.0  0.89961  0.4479  0.429  1.0000
  N   N5        1.0  0.5644100000000002  0.3451399999999999  0.07573  1.0000
  N   N6        1.0  0.5922799999999998  0.11081999999999997  0.15945  1.0000
  N   N7        1.0  0.7620099999999997  0.26735  0.17074999999999996  1.0000
  N   N8        1.0  0.6525  0.4481799999999999  0.07087  1.0000
  N   N9        1.0  0.9094499999999995  0.65531  0.57565  1.0000
  N   N10       1.0  0.70286  0.88942  0.65961  1.0000
  N   N11       1.0  0.028779999999999823  0.73292  0.67117  1.0000
  N   N12       1.0  0.10038000000000005  0.5521099999999998  0.57099  1.0000
  N   N13       1.0  0.43559000000000003  0.65487  0.92427  1.0000
  N   N14       1.0  0.40771000000000013  0.8891799999999997  0.84054  1.0000
  N   N15       1.0  0.23798  0.73266  0.82925  1.0000
  N   N16       1.0  0.3474900000000001  0.55183  0.92913  1.0000
  O   O1        1.0  0.51148  0.16315999999999994  0.4498  1.0000
  O   O2        1.0  0.5160600000000001  0.31374  0.55105  1.0000
  O   O3        1.0  0.7754599999999999  0.80888  0.3868799999999999  1.0000
  O   O4        1.0  0.8172400000000001  0.9921999999999999  0.30068  1.0000
  O   O5        1.0  0.32472  0.16371999999999995  0.04966  1.0000
  O   O6        1.0  0.16631  0.31715  0.94984  1.0000
  O   O7        1.0  0.4160700000000001  0.8090499999999998  0.11276  1.0000
  O   O8        1.0  0.1912300000000001  0.99237  0.19895999999999994  1.0000
  O   O9        1.0  0.48851999999999995  0.83685  0.5502  1.0000
  O   O10       1.0  0.48392999999999986  0.68626  0.44895  1.0000
  O   O11       1.0  0.2245300000000001  0.19113  0.6131199999999998  1.0000
  O   O12       1.0  0.18275  0.0078  0.69932  1.0000
  O   O13       1.0  0.6752799999999995  0.8362899999999999  0.95033  1.0000
  O   O14       1.0  0.83369  0.68286  0.05016  1.0000
  O   O15       1.0  0.5839199999999999  0.19095  0.8872399999999998  1.0000
  O   O16       1.0  0.8087599999999997  0.00764  0.8010299999999998  1.0000
