data_image0
_chemical_formula_structural       Ni4H16C36N8O16
_chemical_formula_sum              "Ni4 H16 C36 N8 O16"
_cell_length_a       10.23572
_cell_length_b       10.22357
_cell_length_c       10.69058
_cell_angle_alpha    100.91110999999998
_cell_angle_beta     100.74801
_cell_angle_gamma    108.96066

_space_group_name_H-M_alt    "P 1"
_space_group_IT_number       1

loop_
  _space_group_symop_operation_xyz
  'x, y, z'

loop_
  _atom_site_type_symbol
  _atom_site_label
  _atom_site_symmetry_multiplicity
  _atom_site_fract_x
  _atom_site_fract_y
  _atom_site_fract_z
  _atom_site_occupancy
  Ni  Ni1       1.0  0.50157  0.99245  0.73785  1.0000
  Ni  Ni2       1.0  0.003140000000000004  0.49582  0.76112  1.0000
  Ni  Ni3       1.0  0.49843  0.007529999999999995  0.26215  1.0000
  Ni  Ni4       1.0  0.99687  0.50418  0.23888  1.0000
  H   H1        1.0  0.62178  0.73385  0.73017  1.0000
  H   H2        1.0  0.38506000000000007  0.24839000000000006  0.7458  1.0000
  H   H3        1.0  0.15921000000000002  0.15643000000000007  0.71256  1.0000
  H   H4        1.0  0.27054  0.37795999999999996  0.77146  1.0000
  H   H5        1.0  0.74923  0.6155100000000001  0.754  1.0000
  H   H6        1.0  0.8447999999999999  0.83958  0.7882500000000001  1.0000
  H   H7        1.0  0.37822000000000006  0.26615  0.26983  1.0000
  H   H8        1.0  0.61494  0.75161  0.25419  1.0000
  H   H9        1.0  0.8408  0.84357  0.28744  1.0000
  H   H10       1.0  0.72947  0.62204  0.22854  1.0000
  H   H11       1.0  0.25077  0.38449  0.24599  1.0000
  H   H12       1.0  0.1552  0.16042000000000003  0.21174000000000004  1.0000
  H   H13       1.0  0.23288000000000011  0.7655200000000001  0.75108  1.0000
  H   H14       1.0  0.7804600000000002  0.21972000000000003  0.74862  1.0000
  H   H15       1.0  0.7671200000000001  0.23447000000000004  0.24892  1.0000
  H   H16       1.0  0.21953  0.78028  0.25138  1.0000
  C   C1        1.0  0.5137200000000001  0.6800200000000001  0.7389  1.0000
  C   C2        1.0  0.49582000000000015  0.3029900000000001  0.7462100000000002  1.0000
  C   C3        1.0  0.12006999999999998  0.96969  0.55856  1.0000
  C   C4        1.0  0.024269999999999996  0.87937  0.43885  1.0000
  C   C5        1.0  0.09179  0.08777  0.61666  1.0000
  C   C6        1.0  0.2587600000000001  0.9597500000000002  0.61712  1.0000
  C   C7        1.0  0.02679000000000001  0.74102  0.36861  1.0000
  C   C8        1.0  0.32099  0.48606  0.76196  1.0000
  C   C9        1.0  0.69641  0.50473  0.75408  1.0000
  C   C10       1.0  0.030410000000000083  0.8796600000000001  0.9423000000000001  1.0000
  C   C11       1.0  0.12083000000000002  0.97561  0.06158000000000001  1.0000
  C   C12       1.0  0.9126500000000001  0.9080300000000002  0.88388  1.0000
  C   C13       1.0  0.038849999999999996  0.73977  0.88311  1.0000
  C   C14       1.0  0.25898000000000004  0.9737900000000003  0.1311  1.0000
  C   C15       1.0  0.48628  0.31998000000000004  0.26109  1.0000
  C   C16       1.0  0.50418  0.697  0.25378  1.0000
  C   C17       1.0  0.8799300000000001  0.03030000000000001  0.44144000000000005  1.0000
  C   C18       1.0  0.9757300000000001  0.12063000000000001  0.56115  1.0000
  C   C19       1.0  0.90821  0.91223  0.38334  1.0000
  C   C20       1.0  0.7412400000000001  0.04025000000000001  0.38288  1.0000
  C   C21       1.0  0.97321  0.25897  0.63139  1.0000
  C   C22       1.0  0.67901  0.51394  0.23804  1.0000
  C   C23       1.0  0.30359  0.49527  0.24591  1.0000
  C   C24       1.0  0.96959  0.12034  0.0577  1.0000
  C   C25       1.0  0.8791700000000002  0.024390000000000033  0.9384100000000001  1.0000
  C   C26       1.0  0.08735  0.09196  0.11612  1.0000
  C   C27       1.0  0.9611500000000001  0.26023  0.11689000000000001  1.0000
  C   C28       1.0  0.74103  0.026210000000000046  0.8688900000000002  1.0000
  C   C29       1.0  0.46184  0.5380600000000001  0.74949  1.0000
  C   C30       1.0  0.2988000000000001  0.7007400000000003  0.75141  1.0000
  C   C31       1.0  0.55067  0.4489  0.7495  1.0000
  C   C32       1.0  0.71505  0.28516  0.7501  1.0000
  C   C33       1.0  0.53816  0.46193  0.25051  1.0000
  C   C34       1.0  0.7012  0.29926  0.24858  1.0000
  C   C35       1.0  0.4493400000000001  0.5511  0.25049  1.0000
  C   C36       1.0  0.28495  0.71484  0.24990000000000004  1.0000
  N   N1        1.0  0.43263  0.7611100000000001  0.74083  1.0000
  N   N2        1.0  0.57589  0.22117000000000006  0.7438300000000001  1.0000
  N   N3        1.0  0.23980000000000004  0.56642  0.76182  1.0000
  N   N4        1.0  0.7781700000000001  0.42505000000000004  0.75713  1.0000
  N   N5        1.0  0.56737  0.23888  0.25917  1.0000
  N   N6        1.0  0.42412  0.77882  0.25617  1.0000
  N   N7        1.0  0.7601999999999999  0.43358  0.23817999999999998  1.0000
  N   N8        1.0  0.22183000000000005  0.5749500000000001  0.24287  1.0000
  O   O1        1.0  0.30711  0.0015200000000000122  0.74386  1.0000
  O   O2        1.0  0.33496  0.9259  0.5453800000000001  1.0000
  O   O3        1.0  0.98137  0.70408  0.24192  1.0000
  O   O4        1.0  0.06172000000000008  0.6571800000000002  0.43017000000000005  1.0000
  O   O5        1.0  0.99789  0.6931900000000002  0.75619  1.0000
  O   O6        1.0  0.06713000000000006  0.6605600000000001  0.9531700000000001  1.0000
  O   O7        1.0  0.2980600000000001  0.022150000000000003  0.25768  1.0000
  O   O8        1.0  0.3429400000000001  0.9388600000000001  0.06939  1.0000
  O   O9        1.0  0.69289  0.99848  0.25613  1.0000
  O   O10       1.0  0.66504  0.07409999999999999  0.45461999999999997  1.0000
  O   O11       1.0  0.018630000000000042  0.2959100000000001  0.75808  1.0000
  O   O12       1.0  0.9382800000000001  0.34281  0.56983  1.0000
  O   O13       1.0  0.0021100000000000103  0.3068100000000001  0.24381  1.0000
  O   O14       1.0  0.9328700000000002  0.33944  0.04683  1.0000
  O   O15       1.0  0.7019399999999999  0.97784  0.74232  1.0000
  O   O16       1.0  0.65706  0.06112999999999998  0.9306  1.0000
