data_image0
_chemical_formula_structural       Zn3H16C32N2O14
_chemical_formula_sum              "Zn3 H16 C32 N2 O14"
_cell_length_a       7.56631
_cell_length_b       9.930690000000002
_cell_length_c       14.931310000000002
_cell_angle_alpha    73.11569
_cell_angle_beta     89.607
_cell_angle_gamma    69.10390999999998

_symmetry_space_group_name_H-M    'P 1'
_symmetry_Int_Tables_number       1

loop_
  _symmetry_equiv_pos_as_xyz
  'x,y,z'

loop_
  _atom_site_type_symbol
  _atom_site_label
  _atom_site_symmetry_multiplicity
  _atom_site_fract_x
  _atom_site_fract_y
  _atom_site_fract_z
  _atom_site_occupancy
  Zn  Zn1       1.0  0.8543600000000002  0.2136399999999999  0.95737  1.0000
  Zn  Zn2       1.0  0.14564  0.78636  0.042630000000000015  1.0000
  Zn  Zn3       1.0  0.5000000000000001  0.5  0.0  1.0000
  H   H1        1.0  0.81806  0.011360000000000012  0.57835  1.0000
  H   H2        1.0  0.8757499999999999  0.92263  0.21183  1.0000
  H   H3        1.0  0.9291500000000005  0.75777  0.37983  1.0000
  H   H4        1.0  0.60713  0.15156999999999998  0.46175000000000005  1.0000
  H   H5        1.0  0.5588600000000002  0.3124100000000001  0.29605  1.0000
  H   H6        1.0  0.8550700000000003  0.6165600000000002  0.69951  1.0000
  H   H7        1.0  0.81001  0.69713  0.96903  1.0000
  H   H8        1.0  0.7861300000000002  0.057020000000000015  0.72046  1.0000
  H   H9        1.0  0.18205999999999997  0.98858  0.4216500000000001  1.0000
  H   H10       1.0  0.12423000000000003  0.0773599999999999  0.7881600000000002  1.0000
  H   H11       1.0  0.07086999999999997  0.24222000000000007  0.62016  1.0000
  H   H12       1.0  0.3929000000000001  0.84841  0.53825  1.0000
  H   H13       1.0  0.44111999999999996  0.6875900000000001  0.70395  1.0000
  H   H14       1.0  0.14492999999999998  0.38343000000000005  0.30049  1.0000
  H   H15       1.0  0.18999000000000002  0.30287  0.03097  1.0000
  H   H16       1.0  0.21385999999999994  0.9429700000000002  0.27954  1.0000
  C   C1        1.0  0.7156600000000002  0.12788  0.24406  1.0000
  C   C2        1.0  0.8197200000000003  0.97121  0.26746  1.0000
  C   C3        1.0  0.8506300000000003  0.87964  0.3608300000000001  1.0000
  C   C4        1.0  0.7784600000000004  0.94396  0.43222000000000005  1.0000
  C   C5        1.0  0.6729900000000002  0.1004  0.40848  1.0000
  C   C6        1.0  0.64215  0.19168000000000002  0.31504  1.0000
  C   C7        1.0  0.8178300000000001  0.8435699999999999  0.69776  1.0000
  C   C8        1.0  0.8359800000000001  0.6929199999999999  0.7410900000000002  1.0000
  C   C9        1.0  0.8259100000000001  0.6428899999999999  0.8383300000000002  1.0000
  C   C10       1.0  0.8112200000000002  0.73781  0.89334  1.0000
  C   C11       1.0  0.8022100000000003  0.88582  0.8504800000000002  1.0000
  C   C12       1.0  0.7989899999999999  0.94008  0.75281  1.0000
  C   C13       1.0  0.6814100000000001  0.22619  0.14386000000000002  1.0000
  C   C14       1.0  0.8337700000000003  0.4866999999999998  0.8830300000000002  1.0000
  C   C15       1.0  0.8094600000000003  0.97978  0.91103  1.0000
  C   C16       1.0  0.8078700000000001  0.8395899999999998  0.53086  1.0000
  C   C17       1.0  0.28434000000000026  0.8721199999999999  0.75594  1.0000
  C   C18       1.0  0.1803  0.028780000000000035  0.73254  1.0000
  C   C19       1.0  0.14941000000000004  0.12036000000000002  0.63917  1.0000
  C   C20       1.0  0.22156000000000006  0.05603999999999999  0.56778  1.0000
  C   C21       1.0  0.3270400000000002  0.8996  0.59152  1.0000
  C   C22       1.0  0.35786000000000023  0.80832  0.68496  1.0000
  C   C23       1.0  0.18216000000000002  0.15641000000000002  0.30224  1.0000
  C   C24       1.0  0.16401  0.30707  0.25891  1.0000
  C   C25       1.0  0.17409  0.3571  0.16167  1.0000
  C   C26       1.0  0.18877000000000008  0.26218  0.10666  1.0000
  C   C27       1.0  0.19779000000000005  0.11418  0.14952  1.0000
  C   C28       1.0  0.2010000000000001  0.059909999999999984  0.24719000000000002  1.0000
  C   C29       1.0  0.31858000000000025  0.7738099999999999  0.85614  1.0000
  C   C30       1.0  0.16623000000000002  0.5133  0.11697  1.0000
  C   C31       1.0  0.19053  0.020220000000000002  0.08897  1.0000
  C   C32       1.0  0.19200999999999996  0.16040000000000001  0.46914  1.0000
  N   N1        1.0  0.8169400000000003  0.90473  0.60017  1.0000
  N   N2        1.0  0.18312000000000006  0.09525  0.39983  1.0000
  O   O1        1.0  0.5905500000000002  0.36924  0.12886  1.0000
  O   O2        1.0  0.7391100000000003  0.16326  0.08078  1.0000
  O   O3        1.0  0.8957600000000004  0.38521000000000005  0.84329  1.0000
  O   O4        1.0  0.7780499999999999  0.45127  0.96709  1.0000
  O   O5        1.0  0.7556400000000001  0.12343  0.87432  1.0000
  O   O6        1.0  0.8741399999999999  0.91226  0.9978000000000001  1.0000
  O   O7        1.0  0.8203199999999999  0.7069900000000002  0.54749  1.0000
  O   O8        1.0  0.4094500000000001  0.6307499999999998  0.8711500000000002  1.0000
  O   O9        1.0  0.2608800000000002  0.83673  0.91922  1.0000
  O   O10       1.0  0.10422999999999998  0.61478  0.15671  1.0000
  O   O11       1.0  0.22194  0.54873  0.03291  1.0000
  O   O12       1.0  0.2443500000000001  0.87657  0.12568  1.0000
  O   O13       1.0  0.12586000000000006  0.08774  0.0022  1.0000
  O   O14       1.0  0.17939  0.29308  0.45249  1.0000
