data_image0
_chemical_formula_structural       Eu4H20C36N4O24
_chemical_formula_sum              "Eu4 H20 C36 N4 O24"
_cell_length_a       6.93978
_cell_length_b       12.95879
_cell_length_c       16.47882
_cell_angle_alpha    89.93208000000001
_cell_angle_beta     103.46205
_cell_angle_gamma    90.28975

_space_group_name_H-M_alt    "P 1"
_space_group_IT_number       1

loop_
  _space_group_symop_operation_xyz
  'x, y, z'

loop_
  _atom_site_type_symbol
  _atom_site_label
  _atom_site_symmetry_multiplicity
  _atom_site_fract_x
  _atom_site_fract_y
  _atom_site_fract_z
  _atom_site_occupancy
  Eu  Eu1       1.0  0.5578700000000002  0.9384  0.73999  1.0000
  Eu  Eu2       1.0  0.94484  0.43832000000000004  0.2592  1.0000
  Eu  Eu3       1.0  0.44213  0.0616  0.26001  1.0000
  Eu  Eu4       1.0  0.055159999999999855  0.56167  0.7407999999999998  1.0000
  H   H1        1.0  0.51497  0.32162000000000013  0.68873  1.0000
  H   H2        1.0  0.34529999999999994  0.46085  0.45561  1.0000
  H   H3        1.0  0.40375  0.12927  0.46992  1.0000
  H   H4        1.0  0.95653  0.8871600000000002  0.021189999999999994  1.0000
  H   H5        1.0  0.12974999999999987  0.92337  0.9637899999999998  1.0000
  H   H6        1.0  0.98014  0.82146  0.31108  1.0000
  H   H7        1.0  0.15318999999999988  0.96083  0.5441699999999998  1.0000
  H   H8        1.0  0.09970000000000004  0.62897  0.53005  1.0000
  H   H9        1.0  0.5415499999999999  0.38835  0.9762799999999998  1.0000
  H   H10       1.0  0.37254  0.4217700000000001  0.03624  1.0000
  H   H11       1.0  0.48504  0.67837  0.31127  1.0000
  H   H12       1.0  0.6547  0.53915  0.54439  1.0000
  H   H13       1.0  0.5962499999999998  0.87073  0.53008  1.0000
  H   H14       1.0  0.04347999999999985  0.11284000000000001  0.9788199999999998  1.0000
  H   H15       1.0  0.8702399999999999  0.07663  0.03621  1.0000
  H   H16       1.0  0.01985999999999991  0.17854000000000003  0.6889099999999998  1.0000
  H   H17       1.0  0.8468099999999997  0.03917  0.4558299999999999  1.0000
  H   H18       1.0  0.90031  0.37103  0.46995  1.0000
  H   H19       1.0  0.45845  0.61164  0.02372  1.0000
  H   H20       1.0  0.62746  0.5782200000000001  0.96376  1.0000
  C   C1        1.0  0.5025799999999999  0.12018  0.63958  1.0000
  C   C2        1.0  0.4599799999999999  0.21384  0.58551  1.0000
  C   C3        1.0  0.47170999999999985  0.31291000000000013  0.6210899999999998  1.0000
  C   C4        1.0  0.3795  0.39018000000000014  0.49173  1.0000
  C   C5        1.0  0.36987999999999993  0.29508  0.45061  1.0000
  C   C6        1.0  0.4100499999999999  0.20518000000000006  0.4988  1.0000
  C   C7        1.0  0.32158  0.29009  0.3572499999999999  1.0000
  C   C8        1.0  0.82687  0.94179  0.90077  1.0000
  C   C9        1.0  0.9905699999999997  0.9470500000000002  0.97899  1.0000
  C   C10       1.0  0.99723  0.62016  0.35941  1.0000
  C   C11       1.0  0.03941000000000001  0.7135  0.414  1.0000
  C   C12       1.0  0.025440000000000004  0.81274  0.37866  1.0000
  C   C13       1.0  0.11952999999999986  0.88997  0.5081099999999997  1.0000
  C   C14       1.0  0.1310499999999999  0.7946400000000002  0.5491399999999997  1.0000
  C   C15       1.0  0.09121000000000001  0.7047500000000002  0.50077  1.0000
  C   C16       1.0  0.18064000000000008  0.7893600000000001  0.64261  1.0000
  C   C17       1.0  0.67678  0.44098  0.09755  1.0000
  C   C18       1.0  0.51044  0.44654  0.020189999999999993  1.0000
  C   C19       1.0  0.49742  0.8798200000000003  0.36043  1.0000
  C   C20       1.0  0.5400199999999998  0.7861600000000001  0.4144899999999999  1.0000
  C   C21       1.0  0.5283  0.6870800000000002  0.3789  1.0000
  C   C22       1.0  0.6205  0.6098100000000001  0.50826  1.0000
  C   C23       1.0  0.63012  0.7049100000000003  0.54939  1.0000
  C   C24       1.0  0.58995  0.79481  0.5012  1.0000
  C   C25       1.0  0.6784199999999999  0.70991  0.6427499999999998  1.0000
  C   C26       1.0  0.17311  0.05822  0.09923999999999997  1.0000
  C   C27       1.0  0.00942  0.052950000000000004  0.02102  1.0000
  C   C28       1.0  0.0027699999999999695  0.37983  0.64059  1.0000
  C   C29       1.0  0.96059  0.28649  0.586  1.0000
  C   C30       1.0  0.9745700000000002  0.18726000000000007  0.62134  1.0000
  C   C31       1.0  0.8804699999999999  0.11002000000000002  0.49188  1.0000
  C   C32       1.0  0.86895  0.20535  0.45086  1.0000
  C   C33       1.0  0.9087899999999999  0.29525  0.49922999999999995  1.0000
  C   C34       1.0  0.81936  0.21064000000000002  0.35738  1.0000
  C   C35       1.0  0.32322  0.55902  0.90244  1.0000
  C   C36       1.0  0.48957  0.55345  0.9798  1.0000
  N   N1        1.0  0.43195  0.3988  0.57515  1.0000
  N   N2        1.0  0.06523  0.89857  0.42475  1.0000
  N   N3        1.0  0.56806  0.6012  0.42485  1.0000
  N   N4        1.0  0.93478  0.10142000000000001  0.57525  1.0000
  O   O1        1.0  0.4959199999999999  0.03125  0.6052899999999998  1.0000
  O   O2        1.0  0.54328  0.13007  0.71896  1.0000
  O   O3        1.0  0.2642  0.37033  0.31415  1.0000
  O   O4        1.0  0.34286  0.20257  0.32571  1.0000
  O   O5        1.0  0.6766899999999999  0.00105  0.8885699999999997  1.0000
  O   O6        1.0  0.84008  0.87452  0.845  1.0000
  O   O7        1.0  0.00941  0.53097  0.39359  1.0000
  O   O8        1.0  0.95194  0.63026  0.28001  1.0000
  O   O9        1.0  0.23818  0.8698300000000001  0.68578  1.0000
  O   O10       1.0  0.16044999999999998  0.7015800000000002  0.67422  1.0000
  O   O11       1.0  0.82929  0.49910000000000004  0.10812  1.0000
  O   O12       1.0  0.66182  0.3751600000000001  0.15446  1.0000
  O   O13       1.0  0.50408  0.96875  0.39472  1.0000
  O   O14       1.0  0.45672000000000007  0.8699300000000002  0.28104  1.0000
  O   O15       1.0  0.7358  0.62966  0.68585  1.0000
  O   O16       1.0  0.65715  0.7974300000000002  0.67429  1.0000
  O   O17       1.0  0.32335  0.9990100000000001  0.11142  1.0000
  O   O18       1.0  0.15982  0.12546  0.15501  1.0000
  O   O19       1.0  0.9905899999999999  0.46903  0.60641  1.0000
  O   O20       1.0  0.048060000000000005  0.36973000000000006  0.71999  1.0000
  O   O21       1.0  0.76183  0.13017  0.31422  1.0000
  O   O22       1.0  0.8395500000000001  0.29841000000000006  0.32577  1.0000
  O   O23       1.0  0.17072  0.5009  0.89188  1.0000
  O   O24       1.0  0.33817999999999987  0.6248400000000002  0.8455399999999997  1.0000
