data_image0
_chemical_formula_structural       Gd2H8C8O16
_chemical_formula_sum              "Gd2 H8 C8 O16"
_cell_length_a       6.65022
_cell_length_b       7.89484
_cell_length_c       10.62995
_cell_angle_alpha    90.57492
_cell_angle_beta     108.40618999999998
_cell_angle_gamma    89.4525

_space_group_name_H-M_alt    "P 1"
_space_group_IT_number       1

loop_
  _space_group_symop_operation_xyz
  'x, y, z'

loop_
  _atom_site_type_symbol
  _atom_site_label
  _atom_site_symmetry_multiplicity
  _atom_site_fract_x
  _atom_site_fract_y
  _atom_site_fract_z
  _atom_site_occupancy
  Gd  Gd1       1.0  0.13758  0.7469199999999998  0.27646  1.0000
  Gd  Gd2       1.0  0.85904  0.25292  0.722  1.0000
  H   H1        1.0  0.5796099999999998  0.9013999999999998  0.52443  1.0000
  H   H2        1.0  0.44324999999999987  0.4002099999999999  0.4626199999999999  1.0000
  H   H3        1.0  0.9746499999999998  0.60605  0.53554  1.0000
  H   H4        1.0  0.055560000000000005  0.10099  0.47465  1.0000
  H   H5        1.0  0.6773399999999998  0.75156  0.35106  1.0000
  H   H6        1.0  0.32634999999999986  0.25577  0.64917  1.0000
  H   H7        1.0  0.7762199999999999  0.025279999999999997  0.9957799999999999  1.0000
  H   H8        1.0  0.2233399999999999  0.48398  0.9962  1.0000
  C   C1        1.0  0.4933399999999999  0.01834  0.47662  1.0000
  C   C2        1.0  0.50867  0.51846  0.51904  1.0000
  C   C3        1.0  0.9912799999999998  0.4862599999999999  0.48234  1.0000
  C   C4        1.0  0.018549999999999983  0.9841699999999998  0.5217  1.0000
  C   C5        1.0  0.62131  0.7504899999999998  0.24123000000000003  1.0000
  C   C6        1.0  0.37927999999999995  0.24932999999999994  0.7592  1.0000
  C   C7        1.0  0.94464  0.008649999999999998  0.9977599999999999  1.0000
  C   C8        1.0  0.05703999999999994  0.4922  0.9988  1.0000
  O   O1        1.0  0.07132999999999998  0.94283  0.10037  1.0000
  O   O2        1.0  0.34132  0.99996  0.3716  1.0000
  O   O3        1.0  0.42749999999999994  0.7162299999999998  0.18614  1.0000
  O   O4        1.0  0.55898  0.15723  0.53682  1.0000
  O   O5        1.0  0.9111199999999998  0.4498999999999999  0.89482  1.0000
  O   O6        1.0  0.64897  0.50079  0.6297  1.0000
  O   O7        1.0  0.56877  0.20057  0.81254  1.0000
  O   O8        1.0  0.43386999999999987  0.65755  0.46382000000000007  1.0000
  O   O9        1.0  0.030779999999999984  0.54202  0.10593999999999999  1.0000
  O   O10       1.0  0.030500000000000006  0.50001  0.37479  1.0000
  O   O11       1.0  0.75895  0.78348  0.18566  1.0000
  O   O12       1.0  0.9701999999999998  0.34873999999999994  0.53804  1.0000
  O   O13       1.0  0.9891299999999997  0.05842000000000001  0.89753  1.0000
  O   O14       1.0  0.96934  0.0017199999999999997  0.62591  1.0000
  O   O15       1.0  0.2414399999999999  0.29167  0.81289  1.0000
  O   O16       1.0  0.028090000000000028  0.84535  0.46225  1.0000
