data_image0
_chemical_formula_structural       In4Co2H12C36Br4O28
_chemical_formula_sum              "In4 Co2 H12 C36 Br4 O28"
_cell_length_a       10.39773
_cell_length_b       10.85919
_cell_length_c       15.489990000000002
_cell_angle_alpha    90.06561
_cell_angle_beta     99.07413999999999
_cell_angle_gamma    89.98249

_space_group_name_H-M_alt    "P 1"
_space_group_IT_number       1

loop_
  _space_group_symop_operation_xyz
  'x, y, z'

loop_
  _atom_site_type_symbol
  _atom_site_label
  _atom_site_symmetry_multiplicity
  _atom_site_fract_x
  _atom_site_fract_y
  _atom_site_fract_z
  _atom_site_occupancy
  In  In1       1.0  0.7425  0.21671  0.06247999999999999  1.0000
  In  In2       1.0  0.25736  0.71569  0.43857  1.0000
  In  In3       1.0  0.25738  0.78288  0.93762  1.0000
  In  In4       1.0  0.74246  0.28363  0.56299  1.0000
  Co  Co1       1.0  0.49994  0.99989  0.00011  1.0000
  Co  Co2       1.0  0.50007  0.49915000000000004  0.49979  1.0000
  H   H1        1.0  0.51288  0.8645200000000001  0.25669  1.0000
  H   H2        1.0  0.92211  0.90381  0.24189  1.0000
  H   H3        1.0  0.79994  0.67722  0.44221  1.0000
  H   H4        1.0  0.4859200000000001  0.36582  0.24349  1.0000
  H   H5        1.0  0.07668  0.40339  0.2587  1.0000
  H   H6        1.0  0.19944  0.17632000000000003  0.05851  1.0000
  H   H7        1.0  0.48662000000000005  0.13521  0.74319  1.0000
  H   H8        1.0  0.0778  0.09774  0.7596  1.0000
  H   H9        1.0  0.19917000000000004  0.3227400000000001  0.5581  1.0000
  H   H10       1.0  0.51367  0.63469  0.75635  1.0000
  H   H11       1.0  0.9228800000000001  0.59667  0.74108  1.0000
  H   H12       1.0  0.8004  0.8236200000000001  0.94146  1.0000
  C   C1        1.0  0.68414  0.9681900000000001  0.16031  1.0000
  C   C2        1.0  0.61431  0.8443500000000002  0.28194  1.0000
  C   C3        1.0  0.84492  0.8657500000000001  0.27361  1.0000
  C   C4        1.0  0.01427999999999999  0.7602400000000002  0.38007  1.0000
  C   C5        1.0  0.5387499999999998  0.7155200000000002  0.3971899999999999  1.0000
  C   C6        1.0  0.7142900000000002  0.89148  0.24095  1.0000
  C   C7        1.0  0.64579  0.76901  0.35551  1.0000
  C   C8        1.0  0.77616  0.73913  0.38685999999999987  1.0000
  C   C9        1.0  0.87567  0.7883800000000002  0.34619  1.0000
  C   C10       1.0  0.31515  0.46932  0.33979  1.0000
  C   C11       1.0  0.38466  0.34511  0.21820999999999996  1.0000
  C   C12       1.0  0.15404  0.36550000000000005  0.22694  1.0000
  C   C13       1.0  0.98558  0.2577  0.12075  1.0000
  C   C14       1.0  0.46053  0.21686  0.10237  1.0000
  C   C15       1.0  0.28452  0.39213000000000003  0.25931  1.0000
  C   C16       1.0  0.35351  0.26932000000000006  0.14474  1.0000
  C   C17       1.0  0.22333000000000003  0.2386  0.11371  1.0000
  C   C18       1.0  0.12377  0.28731  0.15461  1.0000
  C   C19       1.0  0.31576000000000004  0.03114  0.83974  1.0000
  C   C20       1.0  0.38516  0.15552  0.71821  1.0000
  C   C21       1.0  0.15479  0.13530000000000003  0.72743  1.0000
  C   C22       1.0  0.9854400000000001  0.24226  0.62193  1.0000
  C   C23       1.0  0.46052  0.28402  0.60282  1.0000
  C   C24       1.0  0.28534  0.10845000000000003  0.75938  1.0000
  C   C25       1.0  0.3535  0.23109  0.64477  1.0000
  C   C26       1.0  0.22319000000000003  0.26136  0.61372  1.0000
  C   C27       1.0  0.12394000000000001  0.21312000000000006  0.65513  1.0000
  C   C28       1.0  0.68441  0.53103  0.65997  1.0000
  C   C29       1.0  0.6149799999999999  0.6553  0.7815499999999997  1.0000
  C   C30       1.0  0.8455300000000001  0.63475  0.77278  1.0000
  C   C31       1.0  0.014240000000000039  0.74228  0.87896  1.0000
  C   C32       1.0  0.53942  0.7830500000000002  0.89773  1.0000
  C   C33       1.0  0.7149999999999999  0.6083300000000001  0.7403599999999998  1.0000
  C   C34       1.0  0.64631  0.7307600000000001  0.85517  1.0000
  C   C35       1.0  0.77649  0.7615  0.8861599999999998  1.0000
  C   C36       1.0  0.8759700000000001  0.7127900000000001  0.84514  1.0000
  Br  Br1       1.0  0.66521  0.36542  0.93645  1.0000
  Br  Br2       1.0  0.33592000000000005  0.8636  0.56486  1.0000
  Br  Br3       1.0  0.33481  0.63455  0.06379  1.0000
  Br  Br4       1.0  0.6648800000000001  0.13368  0.43773  1.0000
  O   O1        1.0  0.1046  0.80669  0.34193  1.0000
  O   O2        1.0  0.57795  0.64856  0.46488  1.0000
  O   O3        1.0  0.7727900000000001  0.0377  0.14109  1.0000
  O   O4        1.0  0.043690000000000014  0.6909500000000001  0.44709  1.0000
  O   O5        1.0  0.4215900000000001  0.7388200000000001  0.36384  1.0000
  O   O6        1.0  0.5681  0.9525200000000001  0.11806999999999997  1.0000
  O   O7        1.0  0.6434900000000001  0.07253  0.98169  1.0000
  O   O8        1.0  0.8955400000000001  0.30357  0.15976  1.0000
  O   O9        1.0  0.42146000000000006  0.14926  0.03496  1.0000
  O   O10       1.0  0.22675  0.5388800000000001  0.3596  1.0000
  O   O11       1.0  0.95601  0.18930000000000002  0.05323  1.0000
  O   O12       1.0  0.57766  0.24155  0.13495  1.0000
  O   O13       1.0  0.4317  0.45431000000000005  0.38123  1.0000
  O   O14       1.0  0.35628  0.5705900000000002  0.51949  1.0000
  O   O15       1.0  0.8956100000000001  0.19893000000000005  0.66208  1.0000
  O   O16       1.0  0.42164  0.34991  0.53455  1.0000
  O   O17       1.0  0.22748000000000002  0.9606400000000002  0.85835  1.0000
  O   O18       1.0  0.9556099999999998  0.30858  0.5535099999999997  1.0000
  O   O19       1.0  0.5776599999999998  0.26115  0.63653  1.0000
  O   O20       1.0  0.43148  0.04748  0.88226  1.0000
  O   O21       1.0  0.35649  0.9272700000000003  0.01844  1.0000
  O   O22       1.0  0.10436  0.6961400000000001  0.84018  1.0000
  O   O23       1.0  0.57846  0.85055  0.96518  1.0000
  O   O24       1.0  0.7732000000000001  0.46199000000000007  0.64012  1.0000
  O   O25       1.0  0.04383000000000004  0.81089  0.94637  1.0000
  O   O26       1.0  0.42231  0.75824  0.86524  1.0000
  O   O27       1.0  0.5677400000000002  0.54506  0.6185  1.0000
  O   O28       1.0  0.64345  0.42632000000000003  0.48036  1.0000
