data_image0
_chemical_formula_structural       Co2H32C48N4O10
_chemical_formula_sum              "Co2 H32 C48 N4 O10"
_cell_length_a       9.33217
_cell_length_b       11.481340000000001
_cell_length_c       13.25755
_cell_angle_alpha    89.98688
_cell_angle_beta     90.64528
_cell_angle_gamma    90.16036

_space_group_name_H-M_alt    "P 1"
_space_group_IT_number       1

loop_
  _space_group_symop_operation_xyz
  'x, y, z'

loop_
  _atom_site_type_symbol
  _atom_site_label
  _atom_site_symmetry_multiplicity
  _atom_site_fract_x
  _atom_site_fract_y
  _atom_site_fract_z
  _atom_site_occupancy
  Co  Co1       1.0  0.25069  0.45215  0.49962  1.0000
  Co  Co2       1.0  0.7493100000000003  0.54785  0.50038  1.0000
  H   H1        1.0  0.7547400000000002  0.5482  0.24315000000000006  1.0000
  H   H2        1.0  0.65054  0.46025  0.08633  1.0000
  H   H3        1.0  0.98011  0.19865  0.0919  1.0000
  H   H4        1.0  0.08582  0.28962  0.24761  1.0000
  H   H5        1.0  0.05804000000000001  0.25229  0.42220000000000013  1.0000
  H   H6        1.0  0.0512  0.03591  0.41455  1.0000
  H   H7        1.0  0.15152  0.86676  0.35117  1.0000
  H   H8        1.0  0.15518000000000007  0.65108  0.35716000000000003  1.0000
  H   H9        1.0  0.74537  0.54931  0.75705  1.0000
  H   H10       1.0  0.8503300000000001  0.46081  0.91338  1.0000
  H   H11       1.0  0.5195600000000002  0.19834  0.9076500000000001  1.0000
  H   H12       1.0  0.4139200000000001  0.28997  0.7522900000000002  1.0000
  H   H13       1.0  0.44294  0.25227  0.57783  1.0000
  H   H14       1.0  0.44862  0.03587  0.5854  1.0000
  H   H15       1.0  0.3472200000000001  0.86571  0.64837  1.0000
  H   H16       1.0  0.34342000000000006  0.65017  0.64098  1.0000
  H   H17       1.0  0.24526  0.4518  0.7568500000000002  1.0000
  H   H18       1.0  0.34946  0.53975  0.91367  1.0000
  H   H19       1.0  0.01989000000000001  0.80135  0.9081  1.0000
  H   H20       1.0  0.9141800000000001  0.71038  0.75239  1.0000
  H   H21       1.0  0.9419600000000002  0.74771  0.5778  1.0000
  H   H22       1.0  0.9488000000000001  0.96409  0.58545  1.0000
  H   H23       1.0  0.8484800000000002  0.13324  0.64883  1.0000
  H   H24       1.0  0.8448200000000001  0.34892  0.64284  1.0000
  H   H25       1.0  0.25463000000000013  0.45069  0.24295000000000005  1.0000
  H   H26       1.0  0.14968000000000004  0.53919  0.08662  1.0000
  H   H27       1.0  0.48044000000000003  0.8016599999999999  0.09235000000000003  1.0000
  H   H28       1.0  0.58609  0.71003  0.24771000000000007  1.0000
  H   H29       1.0  0.5570600000000002  0.7477299999999999  0.42217  1.0000
  H   H30       1.0  0.55139  0.96413  0.41460000000000014  1.0000
  H   H31       1.0  0.6527800000000001  0.13428  0.35163  1.0000
  H   H32       1.0  0.65658  0.34983  0.35902  1.0000
  C   C1        1.0  0.9858200000000001  0.4762  0.35159  1.0000
  C   C2        1.0  0.92654  0.42474  0.25569  1.0000
  C   C3        1.0  0.80498  0.47303  0.20861000000000005  1.0000
  C   C4        1.0  0.74612  0.42347  0.12144  1.0000
  C   C5        1.0  0.80972  0.32394  0.08075  1.0000
  C   C6        1.0  0.9323900000000003  0.27549  0.12546  1.0000
  C   C7        1.0  0.99028  0.32623  0.21231  1.0000
  C   C8        1.0  0.14335000000000003  0.20066  0.4559400000000001  1.0000
  C   C9        1.0  0.14045000000000005  0.0795  0.45224  1.0000
  C   C10       1.0  0.19488  0.82289  0.41749  1.0000
  C   C11       1.0  0.19705000000000006  0.70175  0.41997000000000007  1.0000
  C   C12       1.0  0.51444  0.47486  0.64846  1.0000
  C   C13       1.0  0.57333  0.42535999999999996  0.7449100000000001  1.0000
  C   C14       1.0  0.69498  0.47409999999999997  0.79179  1.0000
  C   C15       1.0  0.75424  0.42413  0.87857  1.0000
  C   C16       1.0  0.69048  0.32415  0.9189800000000002  1.0000
  C   C17       1.0  0.56749  0.27551  0.8744400000000001  1.0000
  C   C18       1.0  0.50947  0.32648  0.78797  1.0000
  C   C19       1.0  0.3574800000000001  0.20056999999999997  0.54404  1.0000
  C   C20       1.0  0.35966  0.07943  0.54763  1.0000
  C   C21       1.0  0.30397  0.82239  0.58169  1.0000
  C   C22       1.0  0.30168  0.70123  0.57844  1.0000
  C   C23       1.0  0.014190000000000008  0.52379  0.6484100000000003  1.0000
  C   C24       1.0  0.07346000000000001  0.57526  0.7443100000000002  1.0000
  C   C25       1.0  0.19503000000000006  0.52696  0.7913900000000003  1.0000
  C   C26       1.0  0.25388000000000005  0.57652  0.87856  1.0000
  C   C27       1.0  0.19028  0.67606  0.9192500000000002  1.0000
  C   C28       1.0  0.06761  0.7245100000000001  0.87454  1.0000
  C   C29       1.0  0.009730000000000003  0.67377  0.78769  1.0000
  C   C30       1.0  0.8566600000000002  0.79934  0.54406  1.0000
  C   C31       1.0  0.85955  0.92049  0.54776  1.0000
  C   C32       1.0  0.8051200000000001  0.17709999999999998  0.58251  1.0000
  C   C33       1.0  0.80295  0.29825  0.58003  1.0000
  C   C34       1.0  0.48556  0.52513  0.3515400000000001  1.0000
  C   C35       1.0  0.42667  0.57464  0.25509  1.0000
  C   C36       1.0  0.30503  0.5259  0.20821000000000003  1.0000
  C   C37       1.0  0.24577  0.57587  0.12143  1.0000
  C   C38       1.0  0.30952  0.67585  0.08102  1.0000
  C   C39       1.0  0.43251  0.7244899999999999  0.12556  1.0000
  C   C40       1.0  0.49054000000000003  0.67352  0.21203000000000005  1.0000
  C   C41       1.0  0.6425200000000002  0.79943  0.45596  1.0000
  C   C42       1.0  0.64034  0.92057  0.45237  1.0000
  C   C43       1.0  0.69603  0.17761  0.41831  1.0000
  C   C44       1.0  0.69832  0.29877  0.42156  1.0000
  C   C45       1.0  0.24985000000000002  0.015439999999999999  0.49993  1.0000
  C   C46       1.0  0.24955  0.88656  0.49976  1.0000
  C   C47       1.0  0.75016  0.98455  0.50007  1.0000
  C   C48       1.0  0.7504600000000001  0.11344  0.50024  1.0000
  N   N1        1.0  0.25055  0.26167  0.50011  1.0000
  N   N2        1.0  0.24938000000000002  0.64038  0.4990100000000001  1.0000
  N   N3        1.0  0.74946  0.7383299999999999  0.49989  1.0000
  N   N4        1.0  0.7506200000000001  0.35962  0.50099  1.0000
  O   O1        1.0  0.10959000000000002  0.43986  0.3786  1.0000
  O   O2        1.0  0.91344  0.55296  0.39795  1.0000
  O   O3        1.0  0.3927100000000001  0.43443  0.6206300000000002  1.0000
  O   O4        1.0  0.58454  0.55344  0.60194  1.0000
  O   O5        1.0  0.89041  0.56014  0.6214  1.0000
  O   O6        1.0  0.08657  0.44703999999999994  0.60205  1.0000
  O   O7        1.0  0.60729  0.56557  0.37937000000000004  1.0000
  O   O8        1.0  0.41546  0.44656  0.39806  1.0000
  O   O9        1.0  0.75006  0.26325  0.99978  1.0000
  O   O10       1.0  0.24995  0.7367499999999999  0.00022000000000000003  1.0000
