data_image0
_chemical_formula_structural       Sr4H8C24S4O16
_chemical_formula_sum              "Sr4 H8 C24 S4 O16"
_cell_length_a       5.86361
_cell_length_b       11.72049
_cell_length_c       16.93446
_cell_angle_alpha    89.98247
_cell_angle_beta     90.02166
_cell_angle_gamma    91.01638

_space_group_name_H-M_alt    "P 1"
_space_group_IT_number       1

loop_
  _space_group_symop_operation_xyz
  'x, y, z'

loop_
  _atom_site_type_symbol
  _atom_site_label
  _atom_site_symmetry_multiplicity
  _atom_site_fract_x
  _atom_site_fract_y
  _atom_site_fract_z
  _atom_site_occupancy
  Sr  Sr1       1.0  0.7229  0.90906  0.99379  1.0000
  Sr  Sr2       1.0  0.7775  0.59018  0.49486  1.0000
  Sr  Sr3       1.0  0.27709  0.09093999999999998  0.00621  1.0000
  Sr  Sr4       1.0  0.22249  0.40981  0.50514  1.0000
  H   H1        1.0  0.09453  0.37495  0.69462  1.0000
  H   H2        1.0  0.14121  0.26686  0.83091  1.0000
  H   H3        1.0  0.40032  0.12547  0.19412  1.0000
  H   H4        1.0  0.35393  0.2319  0.33124  1.0000
  H   H5        1.0  0.9054599999999998  0.62505  0.30538  1.0000
  H   H6        1.0  0.85878  0.73314  0.16909  1.0000
  H   H7        1.0  0.59967  0.87453  0.80588  1.0000
  H   H8        1.0  0.64606  0.7681  0.66876  1.0000
  C   C1        1.0  0.7824599999999998  0.10456999999999998  0.87478  1.0000
  C   C2        1.0  0.8169199999999999  0.17971  0.80588  1.0000
  C   C3        1.0  0.99951  0.25368  0.79049  1.0000
  C   C4        1.0  0.9758499999999999  0.31082  0.71749  1.0000
  C   C5        1.0  0.7772399999999998  0.27864  0.67792  1.0000
  C   C6        1.0  0.69165  0.32181  0.60159  1.0000
  C   C7        1.0  0.7174399999999999  0.39396  0.37536  1.0000
  C   C8        1.0  0.67883  0.31912  0.30655  1.0000
  C   C9        1.0  0.4956099999999999  0.24564000000000002  0.2909  1.0000
  C   C10       1.0  0.51935  0.18890999999999997  0.21768  1.0000
  C   C11       1.0  0.7188099999999998  0.22084  0.17858  1.0000
  C   C12       1.0  0.80702  0.17876  0.10244  1.0000
  C   C13       1.0  0.21752999999999995  0.89543  0.12522  1.0000
  C   C14       1.0  0.18306999999999995  0.82029  0.19412  1.0000
  C   C15       1.0  0.0004800000000000032  0.7463200000000001  0.20951  1.0000
  C   C16       1.0  0.02414  0.68918  0.28251  1.0000
  C   C17       1.0  0.22275  0.7213600000000001  0.32208  1.0000
  C   C18       1.0  0.30834  0.67819  0.39841  1.0000
  C   C19       1.0  0.28255  0.60604  0.62464  1.0000
  C   C20       1.0  0.32115999999999995  0.68087  0.69345  1.0000
  C   C21       1.0  0.50438  0.75436  0.7091  1.0000
  C   C22       1.0  0.48064  0.8110800000000001  0.78232  1.0000
  C   C23       1.0  0.28118  0.77915  0.82142  1.0000
  C   C24       1.0  0.19296999999999997  0.8212399999999999  0.89756  1.0000
  S   S1        1.0  0.6159799999999999  0.17981  0.73098  1.0000
  S   S2        1.0  0.8805199999999999  0.31879  0.23203  1.0000
  S   S3        1.0  0.38400999999999996  0.82019  0.26902  1.0000
  S   S4        1.0  0.11947  0.68121  0.76797  1.0000
  O   O1        1.0  0.58339  0.06323  0.88845  1.0000
  O   O2        1.0  0.95591  0.07962  0.91686  1.0000
  O   O3        1.0  0.48658999999999997  0.29696  0.58328  1.0000
  O   O4        1.0  0.8297199999999999  0.38233  0.55934  1.0000
  O   O5        1.0  0.9196199999999999  0.43050999999999995  0.38917  1.0000
  O   O6        1.0  0.54554  0.42364  0.41665  1.0000
  O   O7        1.0  0.013549999999999998  0.20340000000000003  0.08579  1.0000
  O   O8        1.0  0.6705299999999998  0.11975  0.0587  1.0000
  O   O9        1.0  0.4166  0.93677  0.11155  1.0000
  O   O10       1.0  0.04408  0.9203800000000001  0.08314  1.0000
  O   O11       1.0  0.5134  0.70304  0.41672  1.0000
  O   O12       1.0  0.17026999999999998  0.61767  0.44066  1.0000
  O   O13       1.0  0.08037  0.56949  0.61083  1.0000
  O   O14       1.0  0.45445  0.57636  0.58335  1.0000
  O   O15       1.0  0.9864399999999999  0.7966  0.91421  1.0000
  O   O16       1.0  0.32945999999999986  0.88025  0.9413  1.0000
