data_image0
_chemical_formula_structural       Cu8H20C16N24O4
_chemical_formula_sum              "Cu8 H20 C16 N24 O4"
_cell_length_a       7.89486
_cell_length_b       13.57486
_cell_length_c       17.932719999999996
_cell_angle_alpha    90.55373999999999
_cell_angle_beta     90.0
_cell_angle_gamma    90.0

_symmetry_space_group_name_H-M    'P 1'
_symmetry_Int_Tables_number       1

loop_
  _symmetry_equiv_pos_as_xyz
  'x,y,z'

loop_
  _atom_site_type_symbol
  _atom_site_label
  _atom_site_symmetry_multiplicity
  _atom_site_fract_x
  _atom_site_fract_y
  _atom_site_fract_z
  _atom_site_occupancy
  Cu  Cu1       1.0  0.72843  0.75262  0.75231  1.0000
  Cu  Cu2       1.0  0.27157  0.24738  0.24769  1.0000
  Cu  Cu3       1.0  0.22843000000000005  0.74737  0.74769  1.0000
  Cu  Cu4       1.0  0.5  0.5  0.0  1.0000
  Cu  Cu5       1.0  0.5  0.5  0.5  1.0000
  Cu  Cu6       1.0  0.0  0.0  0.0  1.0000
  Cu  Cu7       1.0  0.0  0.0  0.5  1.0000
  Cu  Cu8       1.0  0.77158  0.25262  0.25231  1.0000
  H   H1        1.0  0.28483  0.10853000000000002  0.39205  1.0000
  H   H2        1.0  0.20163  0.9420200000000001  0.41104  1.0000
  H   H3        1.0  0.74298  0.63812  0.90802  1.0000
  H   H4        1.0  0.75702  0.13813  0.40802  1.0000
  H   H5        1.0  0.72394  0.8746400000000001  0.9104  1.0000
  H   H6        1.0  0.27606  0.12535  0.0896  1.0000
  H   H7        1.0  0.7438  0.12307  0.10072  1.0000
  H   H8        1.0  0.2562  0.87692  0.8992799999999999  1.0000
  H   H9        1.0  0.22394  0.62535  0.5896  1.0000
  H   H10       1.0  0.24298000000000006  0.86187  0.59198  1.0000
  H   H11       1.0  0.7562000000000002  0.62307  0.60072  1.0000
  H   H12       1.0  0.25702  0.36187  0.09198  1.0000
  H   H13       1.0  0.7760700000000003  0.37464  0.4104  1.0000
  H   H14       1.0  0.24380000000000004  0.37693  0.39928  1.0000
  H   H15       1.0  0.70163  0.55797  0.08896  1.0000
  H   H16       1.0  0.71517  0.89146  0.60795  1.0000
  H   H17       1.0  0.79838  0.05797  0.58896  1.0000
  H   H18       1.0  0.29838  0.44202  0.91104  1.0000
  H   H19       1.0  0.78483  0.39146  0.10795  1.0000
  H   H20       1.0  0.21517  0.60853  0.89205  1.0000
  C   C1        1.0  0.11394000000000003  0.8548  0.61149  1.0000
  C   C2        1.0  0.6553400000000003  0.37017  0.11936  1.0000
  C   C3        1.0  0.35332  0.63882  0.60674  1.0000
  C   C4        1.0  0.6240500000000002  0.63765  0.61225  1.0000
  C   C5        1.0  0.61394  0.64519  0.88851  1.0000
  C   C6        1.0  0.37596  0.36234  0.38775  1.0000
  C   C7        1.0  0.6466800000000003  0.36117  0.39326  1.0000
  C   C8        1.0  0.85332  0.86116  0.89326  1.0000
  C   C9        1.0  0.12404000000000003  0.8623400000000001  0.88775  1.0000
  C   C10       1.0  0.87596  0.13765  0.11225  1.0000
  C   C11       1.0  0.84466  0.87017  0.61936  1.0000
  C   C12       1.0  0.38606  0.3548  0.11149  1.0000
  C   C13       1.0  0.14668  0.13883  0.10674  1.0000
  C   C14       1.0  0.34466  0.62982  0.88064  1.0000
  C   C15       1.0  0.88606  0.14519  0.38851  1.0000
  C   C16       1.0  0.15534  0.12982  0.38064  1.0000
  N   N1        1.0  0.00808  0.09758000000000003  0.07345  1.0000
  N   N2        1.0  0.57081  0.6984700000000003  0.66597  1.0000
  N   N3        1.0  0.8966500000000001  0.80064  0.83754  1.0000
  N   N4        1.0  0.48087  0.59786  0.9195800000000001  1.0000
  N   N5        1.0  0.01913  0.09786000000000003  0.41958  1.0000
  N   N6        1.0  0.98087  0.9021300000000001  0.58041  1.0000
  N   N7        1.0  0.60335  0.30064  0.33755  1.0000
  N   N8        1.0  0.3900500000000001  0.69294  0.82763  1.0000
  N   N9        1.0  0.56426  0.70274  0.83252  1.0000
  N   N10       1.0  0.5080800000000002  0.40242  0.42654  1.0000
  N   N11       1.0  0.49192000000000013  0.59757  0.57345  1.0000
  N   N12       1.0  0.93574  0.20274  0.33252  1.0000
  N   N13       1.0  0.39665  0.69935  0.66245  1.0000
  N   N14       1.0  0.9292000000000002  0.19847  0.16597  1.0000
  N   N15       1.0  0.60995  0.30706  0.17237  1.0000
  N   N16       1.0  0.4292  0.30152  0.33403  1.0000
  N   N17       1.0  0.10995  0.19294  0.32763  1.0000
  N   N18       1.0  0.99192  0.90242  0.92654  1.0000
  N   N19       1.0  0.89005  0.80705  0.67237  1.0000
  N   N20       1.0  0.10335  0.19936  0.16245  1.0000
  N   N21       1.0  0.5191300000000002  0.40213  0.08042  1.0000
  N   N22       1.0  0.06426  0.7972500000000001  0.66748  1.0000
  N   N23       1.0  0.43574  0.29725  0.16748  1.0000
  N   N24       1.0  0.0708  0.80152  0.83403  1.0000
  O   O1        1.0  0.31462  0.42795  0.9634400000000001  1.0000
  O   O2        1.0  0.18538  0.9279500000000002  0.46344  1.0000
  O   O3        1.0  0.81462  0.07204  0.53656  1.0000
  O   O4        1.0  0.68538  0.57205  0.03656  1.0000
