data_image0
_chemical_formula_structural       Ga2H10C16O10
_chemical_formula_sum              "Ga2 H10 C16 O10"
_cell_length_a       6.99873
_cell_length_b       11.21355
_cell_length_c       11.22792
_cell_angle_alpha    119.86083999999998
_cell_angle_beta     107.76266
_cell_angle_gamma    90.10512

_space_group_name_H-M_alt    "P 1"
_space_group_IT_number       1

loop_
  _space_group_symop_operation_xyz
  'x, y, z'

loop_
  _atom_site_type_symbol
  _atom_site_label
  _atom_site_symmetry_multiplicity
  _atom_site_fract_x
  _atom_site_fract_y
  _atom_site_fract_z
  _atom_site_occupancy
  Ga  Ga1       1.0  0.0  0.5  0.0  1.0000
  Ga  Ga2       1.0  0.5  0.5  0.0  1.0000
  H   H1        1.0  0.13217  0.89096  0.37858  1.0000
  H   H2        1.0  0.36786  0.51282  0.62141  1.0000
  H   H3        1.0  0.25894  0.11387000000000003  0.62674  1.0000
  H   H4        1.0  0.24070999999999998  0.48664  0.37257  1.0000
  H   H5        1.0  0.86783  0.10903  0.62142  1.0000
  H   H6        1.0  0.63214  0.48717999999999995  0.37859  1.0000
  H   H7        1.0  0.74106  0.88612  0.37326  1.0000
  H   H8        1.0  0.75929  0.51335  0.62743  1.0000
  H   H9        1.0  0.24955999999999995  0.33499999999999996  0.9997199999999999  1.0000
  H   H10       1.0  0.75044  0.665  0.00028  1.0000
  C   C1        1.0  0.29212999999999995  0.9399300000000004  0.4326800000000001  1.0000
  C   C2        1.0  0.20792  0.50753  0.5673  1.0000
  C   C3        1.0  0.36218999999999996  0.06258999999999999  0.57013  1.0000
  C   C4        1.0  0.1376  0.4921499999999999  0.42947  1.0000
  C   C5        1.0  0.70787  0.06006  0.56732  1.0000
  C   C6        1.0  0.7920799999999998  0.49247  0.4327  1.0000
  C   C7        1.0  0.6377999999999999  0.9374100000000001  0.4298700000000001  1.0000
  C   C8        1.0  0.8624  0.50785  0.57053  1.0000
  C   C9        1.0  0.42963999999999997  0.87694  0.36189  1.0000
  C   C10       1.0  0.3558  0.7429099999999998  0.21549  1.0000
  C   C11       1.0  0.07058  0.51565  0.63846  1.0000
  C   C12       1.0  0.14461000000000004  0.5284900000000001  0.7851800000000001  1.0000
  C   C13       1.0  0.57035  0.12305000000000002  0.63811  1.0000
  C   C14       1.0  0.6442  0.25708  0.78451  1.0000
  C   C15       1.0  0.92942  0.48434  0.36154  1.0000
  C   C16       1.0  0.8553900000000001  0.4714999999999999  0.21482000000000004  1.0000
  O   O1        1.0  0.1649  0.69274  0.16141  1.0000
  O   O2        1.0  0.33537  0.53249  0.83928  1.0000
  O   O3        1.0  0.50873  0.30756000000000006  0.84099  1.0000
  O   O4        1.0  0.99088  0.4652800000000001  0.15812  1.0000
  O   O5        1.0  0.83509  0.3072500000000001  0.83859  1.0000
  O   O6        1.0  0.66463  0.4675  0.16072000000000003  1.0000
  O   O7        1.0  0.49126999999999993  0.69243  0.15901  1.0000
  O   O8        1.0  0.009119999999999993  0.53472  0.84189  1.0000
  O   O9        1.0  0.24986000000000005  0.4215800000000001  0.9998300000000001  1.0000
  O   O10       1.0  0.75014  0.57842  0.00017  1.0000
