data_image0
_chemical_formula_structural       Zn4H4C18N8O10
_chemical_formula_sum              "Zn4 H4 C18 N8 O10"
_cell_length_a       6.63144
_cell_length_b       9.77117
_cell_length_c       14.03961
_cell_angle_alpha    114.08890000000001
_cell_angle_beta     90.0
_cell_angle_gamma    90.0

_space_group_name_H-M_alt    "P 1"
_space_group_IT_number       1

loop_
  _space_group_symop_operation_xyz
  'x, y, z'

loop_
  _atom_site_type_symbol
  _atom_site_label
  _atom_site_symmetry_multiplicity
  _atom_site_fract_x
  _atom_site_fract_y
  _atom_site_fract_z
  _atom_site_occupancy
  Zn  Zn1       1.0  0.25408000000000003  0.8384999999999999  0.77701  1.0000
  Zn  Zn2       1.0  0.7540700000000002  0.16157999999999997  0.22302  1.0000
  Zn  Zn3       1.0  0.003830000000000001  3e-05  4e-05  1.0000
  Zn  Zn4       1.0  0.5038300000000001  2.000000000001192e-05  0.99996  1.0000
  H   H1        1.0  0.2509700000000001  0.43577  0.4507  1.0000
  H   H2        1.0  0.75098  0.5642799999999999  0.5493  1.0000
  H   H3        1.0  0.25435  0.9663999999999999  0.39991000000000004  1.0000
  H   H4        1.0  0.75434  0.033680000000000036  0.60014  1.0000
  C   C1        1.0  0.25292  0.16011  0.3011  1.0000
  C   C2        1.0  0.25089000000000006  0.28932  0.62607  1.0000
  C   C3        1.0  0.25259000000000004  0.19858000000000003  0.41417  1.0000
  C   C4        1.0  0.7529200000000001  0.8399299999999998  0.69892  1.0000
  C   C5        1.0  0.7508900000000002  0.71076  0.37396  1.0000
  C   C6        1.0  0.75259  0.80148  0.58585  1.0000
  C   C7        1.0  0.25021  0.56691  0.66175  1.0000
  C   C8        1.0  0.2504700000000001  0.40382  0.59265  1.0000
  C   C9        1.0  0.25129000000000007  0.3509  0.48239  1.0000
  C   C10       1.0  0.7502100000000002  0.43317999999999995  0.33826000000000006  1.0000
  C   C11       1.0  0.7504700000000001  0.5962600000000001  0.40737000000000007  1.0000
  C   C12       1.0  0.7513  0.64916  0.51762  1.0000
  C   C13       1.0  0.25112000000000007  0.10938999999999999  0.6567  1.0000
  C   C14       1.0  0.25222  0.13705000000000003  0.55988  1.0000
  C   C15       1.0  0.25323000000000007  0.08481999999999998  0.45233  1.0000
  C   C16       1.0  0.7511200000000002  0.89071  0.34333  1.0000
  C   C17       1.0  0.7522200000000001  0.8630299999999999  0.44015  1.0000
  C   C18       1.0  0.7532300000000002  0.91525  0.54771  1.0000
  N   N1        1.0  0.35282  0.11472999999999998  0.1463  1.0000
  N   N2        1.0  0.42013  0.14131  0.24172  1.0000
  N   N3        1.0  0.85283  0.88519  0.85371  1.0000
  N   N4        1.0  0.92014  0.85869  0.7583  1.0000
  N   N5        1.0  0.15332  0.11533999999999998  0.14631  1.0000
  N   N6        1.0  0.08576  0.1423  0.24178  1.0000
  N   N7        1.0  0.65333  0.88458  0.8537  1.0000
  N   N8        1.0  0.58576  0.8576999999999999  0.75823  1.0000
  O   O1        1.0  0.25319000000000014  0.97025  0.92463  1.0000
  O   O2        1.0  0.75319  0.029909999999999996  0.07538  1.0000
  O   O3        1.0  0.25051000000000007  0.66128  0.62017  1.0000
  O   O4        1.0  0.25031000000000003  0.6073600000000001  0.7602200000000001  1.0000
  O   O5        1.0  0.75051  0.3387800000000001  0.37982  1.0000
  O   O6        1.0  0.7503100000000003  0.39277  0.23980000000000004  1.0000
  O   O7        1.0  0.25048000000000004  0.012130000000000004  0.68771  1.0000
  O   O8        1.0  0.25002  0.2707899999999999  0.72145  1.0000
  O   O9        1.0  0.75048  0.9879999999999999  0.31236  1.0000
  O   O10       1.0  0.75002  0.7293  0.27857  1.0000
