data_image0
_chemical_formula_structural       Y4H8C28N8O24
_chemical_formula_sum              "Y4 H8 C28 N8 O24"
_cell_length_a       8.47896
_cell_length_b       9.0268
_cell_length_c       16.18849
_cell_angle_alpha    89.80851
_cell_angle_beta     90.11147999999999
_cell_angle_gamma    96.93284000000001

_symmetry_space_group_name_H-M    'P 1'
_symmetry_Int_Tables_number       1

loop_
  _symmetry_equiv_pos_as_xyz
  'x,y,z'

loop_
  _atom_site_type_symbol
  _atom_site_label
  _atom_site_symmetry_multiplicity
  _atom_site_fract_x
  _atom_site_fract_y
  _atom_site_fract_z
  _atom_site_occupancy
  Y   Y1        1.0  0.023459999999999998  0.87054  0.66549  1.0000
  Y   Y2        1.0  0.47596  0.63039  0.16511  1.0000
  Y   Y3        1.0  0.97654  0.12946  0.33451  1.0000
  Y   Y4        1.0  0.5240399999999997  0.3696  0.83489  1.0000
  H   H1        1.0  0.029719999999999996  0.28277  0.61199  1.0000
  H   H2        1.0  0.36828  0.6891  0.74401  1.0000
  H   H3        1.0  0.47002000000000005  0.21812  0.11217  1.0000
  H   H4        1.0  0.13289  0.8092  0.2437  1.0000
  H   H5        1.0  0.9702799999999999  0.71723  0.38801  1.0000
  H   H6        1.0  0.63172  0.31089999999999995  0.256  1.0000
  H   H7        1.0  0.52998  0.78188  0.88783  1.0000
  H   H8        1.0  0.8671099999999999  0.19079999999999997  0.7563  1.0000
  C   C1        1.0  0.07753  0.5201  0.63132  1.0000
  C   C2        1.0  0.27456  0.19235  0.71346  1.0000
  C   C3        1.0  0.10686999999999999  0.37209999999999993  0.64166  1.0000
  C   C4        1.0  0.23264  0.34616  0.69253  1.0000
  C   C5        1.0  0.9300299999999998  0.55562  0.58428  1.0000
  C   C6        1.0  0.29267  0.59839  0.71439  1.0000
  C   C7        1.0  0.08411  0.9785199999999998  0.4886399999999999  1.0000
  C   C8        1.0  0.42255  0.98063  0.13106  1.0000
  C   C9        1.0  0.22557999999999995  0.30615  0.21339  1.0000
  C   C10       1.0  0.39305  0.12824  0.14164  1.0000
  C   C11       1.0  0.26748  0.15287999999999996  0.19251  1.0000
  C   C12       1.0  0.57012  0.94645  0.08421  1.0000
  C   C13       1.0  0.20803  0.90046  0.21409  1.0000
  C   C14       1.0  0.4154  0.51996  0.98863  1.0000
  C   C15       1.0  0.9224699999999998  0.47989999999999994  0.36868  1.0000
  C   C16       1.0  0.72544  0.80765  0.28654  1.0000
  C   C17       1.0  0.89313  0.6278899999999998  0.3583399999999999  1.0000
  C   C18       1.0  0.76736  0.6538399999999999  0.30747  1.0000
  C   C19       1.0  0.06997000000000002  0.44437000000000004  0.41572  1.0000
  C   C20       1.0  0.70733  0.4016  0.28561  1.0000
  C   C21       1.0  0.91589  0.021479999999999996  0.51136  1.0000
  C   C22       1.0  0.57745  0.01937  0.86895  1.0000
  C   C23       1.0  0.7744199999999998  0.69385  0.78661  1.0000
  C   C24       1.0  0.60695  0.87176  0.85836  1.0000
  C   C25       1.0  0.73252  0.84712  0.8074899999999998  1.0000
  C   C26       1.0  0.4298799999999999  0.05355  0.91579  1.0000
  C   C27       1.0  0.79197  0.09954  0.78591  1.0000
  C   C28       1.0  0.5846  0.48004  0.01137  1.0000
  N   N1        1.0  0.17155999999999993  0.6337  0.66749  1.0000
  N   N2        1.0  0.32674  0.45962  0.7290999999999997  1.0000
  N   N3        1.0  0.32878  0.86625  0.16693  1.0000
  N   N4        1.0  0.17386  0.03885999999999999  0.22904  1.0000
  N   N5        1.0  0.82844  0.36629999999999996  0.33251  1.0000
  N   N6        1.0  0.67326  0.54038  0.2709  1.0000
  N   N7        1.0  0.67122  0.13375  0.83307  1.0000
  N   N8        1.0  0.82614  0.96114  0.77097  1.0000
  O   O1        1.0  0.9111099999999998  0.69597  0.5829  1.0000
  O   O2        1.0  0.1681699999999999  0.08202  0.70449  1.0000
  O   O3        1.0  0.16607999999999995  0.93269  0.54631  1.0000
  O   O4        1.0  0.41266999999999987  0.1856  0.74147  1.0000
  O   O5        1.0  0.12511  0.9926000000000001  0.41305  1.0000
  O   O6        1.0  0.84172  0.45101  0.55406  1.0000
  O   O7        1.0  0.5894399999999997  0.80628  0.08282  1.0000
  O   O8        1.0  0.33189  0.41643  0.20440999999999995  1.0000
  O   O9        1.0  0.33373  0.56556  0.0461  1.0000
  O   O10       1.0  0.08735999999999998  0.31192999999999993  0.24128999999999998  1.0000
  O   O11       1.0  0.37364999999999987  0.50389  0.91317  1.0000
  O   O12       1.0  0.6580499999999998  0.05192  0.05418  1.0000
  O   O13       1.0  0.08888999999999997  0.30402999999999997  0.41711  1.0000
  O   O14       1.0  0.8318299999999998  0.91798  0.29552  1.0000
  O   O15       1.0  0.8339199999999998  0.06731  0.45369  1.0000
  O   O16       1.0  0.58733  0.8144  0.25853  1.0000
  O   O17       1.0  0.87489  0.0074  0.58695  1.0000
  O   O18       1.0  0.15828  0.54899  0.44594  1.0000
  O   O19       1.0  0.41056  0.19371999999999998  0.91718  1.0000
  O   O20       1.0  0.66811  0.58356  0.79559  1.0000
  O   O21       1.0  0.6662699999999999  0.43444  0.9539  1.0000
  O   O22       1.0  0.91264  0.68807  0.75871  1.0000
  O   O23       1.0  0.62635  0.49611  0.08684  1.0000
  O   O24       1.0  0.34195  0.94807  0.9458199999999998  1.0000
