data_image0
_chemical_formula_structural       Gd2Ni2H12C30N4O20
_chemical_formula_sum              "Gd2 Ni2 H12 C30 N4 O20"
_cell_length_a       9.73977
_cell_length_b       11.16553
_cell_length_c       9.87418
_cell_angle_alpha    83.90943
_cell_angle_beta     74.69375
_cell_angle_gamma    75.49767

_space_group_name_H-M_alt    "P 1"
_space_group_IT_number       1

loop_
  _space_group_symop_operation_xyz
  'x, y, z'

loop_
  _atom_site_type_symbol
  _atom_site_label
  _atom_site_symmetry_multiplicity
  _atom_site_fract_x
  _atom_site_fract_y
  _atom_site_fract_z
  _atom_site_occupancy
  Gd  Gd1       1.0  0.68471  0.66919  0.056280000000000004  1.0000
  Gd  Gd2       1.0  0.31528999999999996  0.3308099999999999  0.9437200000000001  1.0000
  Ni  Ni1       1.0  0.77384  0.8652  0.62432  1.0000
  Ni  Ni2       1.0  0.22614999999999996  0.13479  0.3756900000000001  1.0000
  H   H1        1.0  0.5482600000000003  0.70748  0.74631  1.0000
  H   H2        1.0  0.33777999999999997  0.67225  0.6685600000000003  1.0000
  H   H3        1.0  0.29648  0.76818  0.43455  1.0000
  H   H4        1.0  0.020540000000000003  0.2271  0.65247  1.0000
  H   H5        1.0  0.8044200000000001  0.40818  0.7257900000000003  1.0000
  H   H6        1.0  0.7095999999999999  0.54707  0.53933  1.0000
  H   H7        1.0  0.45174  0.29252  0.25369  1.0000
  H   H8        1.0  0.6622199999999996  0.32774  0.33145  1.0000
  H   H9        1.0  0.7035099999999997  0.23182  0.5654500000000002  1.0000
  H   H10       1.0  0.9794599999999997  0.7728899999999999  0.3475400000000001  1.0000
  H   H11       1.0  0.19558000000000003  0.59182  0.27421  1.0000
  H   H12       1.0  0.2903899999999998  0.45293000000000005  0.46068  1.0000
  C   C1        1.0  0.52572  0.7462899999999999  0.64657  1.0000
  C   C2        1.0  0.40911999999999993  0.72735  0.60151  1.0000
  C   C3        1.0  0.38687  0.78072  0.47275  1.0000
  C   C4        1.0  0.48121  0.85223  0.3920800000000001  1.0000
  C   C5        1.0  0.5956199999999998  0.8681399999999999  0.4437400000000001  1.0000
  C   C6        1.0  0.6986499999999998  0.94964  0.36926  1.0000
  C   C7        1.0  0.45683999999999964  0.9062  0.25190000000000007  1.0000
  C   C8        1.0  0.9769899999999998  0.29319  0.5764400000000001  1.0000
  C   C9        1.0  0.8571999999999997  0.39252000000000004  0.61537  1.0000
  C   C10       1.0  0.8046599999999997  0.47037999999999996  0.5112  1.0000
  C   C11       1.0  0.87434  0.44923  0.36938  1.0000
  C   C12       1.0  0.9981499999999999  0.35115  0.33884  1.0000
  C   C13       1.0  0.09441999999999999  0.33043  0.19434  1.0000
  C   C14       1.0  0.8099799999999998  0.52794  0.25755  1.0000
  C   C15       1.0  0.4428999999999999  0.51926  0.06951  1.0000
  C   C16       1.0  0.47427  0.2537  0.35344  1.0000
  C   C17       1.0  0.5908699999999999  0.27265  0.3985  1.0000
  C   C18       1.0  0.6131299999999998  0.21928  0.5272500000000002  1.0000
  C   C19       1.0  0.5187899999999999  0.14777  0.60792  1.0000
  C   C20       1.0  0.4043799999999999  0.13185  0.55626  1.0000
  C   C21       1.0  0.30135  0.050359999999999995  0.63074  1.0000
  C   C22       1.0  0.5431499999999999  0.09378999999999998  0.7481000000000002  1.0000
  C   C23       1.0  0.022999999999999982  0.7068  0.42357000000000006  1.0000
  C   C24       1.0  0.14279999999999995  0.60747  0.38463000000000014  1.0000
  C   C25       1.0  0.19532999999999998  0.52962  0.48880000000000007  1.0000
  C   C26       1.0  0.12565000000000004  0.55077  0.63063  1.0000
  C   C27       1.0  0.0018400000000000278  0.64885  0.66117  1.0000
  C   C28       1.0  0.90557  0.66956  0.8056600000000003  1.0000
  C   C29       1.0  0.19000999999999993  0.47206  0.7424500000000002  1.0000
  C   C30       1.0  0.55709  0.48073  0.9304900000000002  1.0000
  N   N1        1.0  0.61629  0.8144300000000001  0.56847  1.0000
  N   N2        1.0  0.04643  0.27401  0.44071  1.0000
  N   N3        1.0  0.3837  0.18556  0.43153  1.0000
  N   N4        1.0  0.9535599999999999  0.72599  0.55929  1.0000
  O   O1        1.0  0.79686  0.95685  0.43413000000000007  1.0000
  O   O2        1.0  0.68121  0.00448  0.25703  1.0000
  O   O3        1.0  0.53348  0.84315  0.14524  1.0000
  O   O4        1.0  0.3545999999999999  0.99976  0.24405000000000002  1.0000
  O   O5        1.0  0.06822000000000002  0.40143  0.09185  1.0000
  O   O6        1.0  0.21140999999999996  0.24129  0.17955000000000002  1.0000
  O   O7        1.0  0.7442  0.47892  0.19022000000000006  1.0000
  O   O8        1.0  0.81269  0.64239  0.24025  1.0000
  O   O9        1.0  0.45897  0.6053  0.13343  1.0000
  O   O10       1.0  0.3417399999999999  0.46073  0.10851  1.0000
  O   O11       1.0  0.20313999999999993  0.04314  0.56587  1.0000
  O   O12       1.0  0.31878  0.99551  0.74297  1.0000
  O   O13       1.0  0.46651  0.15685  0.8547600000000001  1.0000
  O   O14       1.0  0.64539  0.00023999999999999353  0.7559500000000002  1.0000
  O   O15       1.0  0.9317699999999999  0.59857  0.90815  1.0000
  O   O16       1.0  0.78859  0.75871  0.8204600000000002  1.0000
  O   O17       1.0  0.2557900000000001  0.52107  0.80978  1.0000
  O   O18       1.0  0.18729999999999997  0.35760999999999993  0.75975  1.0000
  O   O19       1.0  0.5410200000000001  0.3947  0.86658  1.0000
  O   O20       1.0  0.6582599999999998  0.53927  0.8914900000000002  1.0000
