data_image0
_chemical_formula_structural       Ni3H20C16O10
_chemical_formula_sum              "Ni3 H20 C16 O10"
_cell_length_a       4.52786
_cell_length_b       12.86564
_cell_length_c       10.80804
_cell_angle_alpha    115.44887999999999
_cell_angle_beta     93.22576
_cell_angle_gamma    90.30045

_space_group_name_H-M_alt    "P 1"
_space_group_IT_number       1

loop_
  _space_group_symop_operation_xyz
  'x, y, z'

loop_
  _atom_site_type_symbol
  _atom_site_label
  _atom_site_symmetry_multiplicity
  _atom_site_fract_x
  _atom_site_fract_y
  _atom_site_fract_z
  _atom_site_occupancy
  Ni  Ni1       1.0  0.42538  0.86536  0.97722  1.0000
  Ni  Ni2       1.0  0.5530199999999997  0.14857  0.03893  1.0000
  Ni  Ni3       1.0  0.98685  0.00754  0.00889  1.0000
  H   H1        1.0  0.62614  0.9235799999999998  0.39195  1.0000
  H   H2        1.0  0.10015  0.81019  0.33528  1.0000
  H   H3        1.0  0.30693  0.93944  0.37978  1.0000
  H   H4        1.0  0.04691  0.12594999999999995  0.43585999999999997  1.0000
  H   H5        1.0  0.66075  0.13066999999999998  0.44318  1.0000
  H   H6        1.0  0.3742999999999999  0.54006  0.63632  1.0000
  H   H7        1.0  0.9205499999999999  0.48761  0.72773  1.0000
  H   H8        1.0  0.68827  0.5542  0.64611  1.0000
  H   H9        1.0  0.93248  0.66528  0.52473  1.0000
  H   H10       1.0  0.3233  0.6640299999999999  0.51536  1.0000
  H   H11       1.0  0.35516  0.09341999999999996  0.62669  1.0000
  H   H12       1.0  0.8928299999999999  0.20837  0.68142  1.0000
  H   H13       1.0  0.6715399999999999  0.08249  0.64149  1.0000
  H   H14       1.0  0.94049  0.88765  0.5823  1.0000
  H   H15       1.0  0.32833  0.8874400000000001  0.57375  1.0000
  H   H16       1.0  0.62862  0.47409  0.38456  1.0000
  H   H17       1.0  0.08372  0.52389  0.29174  1.0000
  H   H18       1.0  0.30847  0.45495  0.37155  1.0000
  H   H19       1.0  0.0621  0.34368  0.48938000000000004  1.0000
  H   H20       1.0  0.67373  0.34956  0.50373  1.0000
  C   C1        1.0  0.83644  0.96038  0.37179  1.0000
  C   C2        1.0  0.09905999999999997  0.9030900000000001  0.40296  1.0000
  C   C3        1.0  0.8565099999999998  0.09072000000000002  0.46402  1.0000
  C   C4        1.0  0.78511  0.93839  0.22138000000000002  1.0000
  C   C5        1.0  0.15497999999999998  0.5852  0.63986  1.0000
  C   C6        1.0  0.9057  0.50786  0.63832  1.0000
  C   C7        1.0  0.12808999999999995  0.61402  0.51542  1.0000
  C   C8        1.0  0.19137999999999994  0.69537  0.77138  1.0000
  C   C9        1.0  0.14388  0.05650000000000001  0.64727  1.0000
  C   C10       1.0  0.8840099999999999  0.11475999999999999  0.61607  1.0000
  C   C11       1.0  0.12714  0.92573  0.55476  1.0000
  C   C12       1.0  0.19192  0.07847  0.79773  1.0000
  C   C13       1.0  0.84445  0.42780999999999997  0.37955  1.0000
  C   C14       1.0  0.09664999999999999  0.50383  0.38098  1.0000
  C   C15       1.0  0.8713799999999999  0.39792999999999995  0.5031  1.0000
  C   C16       1.0  0.8084899999999998  0.31629  0.24766  1.0000
  O   O1        1.0  0.56284  0.87478  0.15435  1.0000
  O   O2        1.0  0.97054  0.98677  0.17735  1.0000
  O   O3        1.0  0.4056899999999999  0.70113  0.8583899999999999  1.0000
  O   O4        1.0  0.026850000000000002  0.78096  0.7955  1.0000
  O   O5        1.0  0.41638  0.14304  0.86527  1.0000
  O   O6        1.0  0.007639999999999999  0.029290000000000014  0.84063  1.0000
  O   O7        1.0  0.5913  0.31033  0.16134  1.0000
  O   O8        1.0  0.97253  0.23328999999999997  0.22635  1.0000
  O   O9        1.0  0.34613  0.06321  0.09782  1.0000
  O   O10       1.0  0.63128  0.95094  0.9166800000000002  1.0000
