data_image0
_chemical_formula_structural       Cu2H16C37O8
_chemical_formula_sum              "Cu2 H16 C37 O8"
_cell_length_a       11.34004
_cell_length_b       15.40202
_cell_length_c       17.8769
_cell_angle_alpha    105.51018
_cell_angle_beta     93.19815
_cell_angle_gamma    128.51408000000004

_symmetry_space_group_name_H-M    'P 1'
_symmetry_Int_Tables_number       1

loop_
  _symmetry_equiv_pos_as_xyz
  'x,y,z'

loop_
  _atom_site_type_symbol
  _atom_site_label
  _atom_site_symmetry_multiplicity
  _atom_site_fract_x
  _atom_site_fract_y
  _atom_site_fract_z
  _atom_site_occupancy
  Cu  Cu1       1.0  0.61484  0.18046000000000006  0.49178000000000005  1.0000
  Cu  Cu2       1.0  0.8867499999999998  0.33242  0.49616999999999994  1.0000
  H   H1        1.0  0.7954  0.55322  0.24608999999999998  1.0000
  H   H2        1.0  0.8615500000000001  0.5087  0.35838  1.0000
  H   H3        1.0  0.8325800000000001  0.10795  0.25256  1.0000
  H   H4        1.0  0.7749400000000002  0.9388400000000002  0.13813  1.0000
  H   H5        1.0  0.55685  0.4170699999999999  0.6463899999999998  1.0000
  H   H6        1.0  0.51444  0.46846  0.78111  1.0000
  H   H7        1.0  0.92569  0.54094  0.89823  1.0000
  H   H8        1.0  0.97612  0.50108  0.76398  1.0000
  H   H9        1.0  0.38711  0.16966  0.27874  1.0000
  H   H10       1.0  0.32044  0.21154  0.16474  1.0000
  H   H11       1.0  0.46994000000000014  0.69231  0.24712999999999996  1.0000
  H   H12       1.0  0.5214  0.86055  0.35874  1.0000
  H   H13       1.0  0.11627999999999987  0.26412999999999986  0.6394199999999998  1.0000
  H   H14       1.0  0.2734700000000001  0.3189700000000001  0.77386  1.0000
  H   H15       1.0  0.93239  0.2990099999999999  0.8828599999999998  1.0000
  H   H16       1.0  0.7685000000000001  0.23339  0.74684  1.0000
  C   C1        1.0  0.6292  0.3358500000000001  0.32432  1.0000
  C   C2        1.0  0.5545600000000002  0.3842300000000001  0.19735  1.0000
  C   C3        1.0  0.7074299999999999  0.4691100000000001  0.25317999999999996  1.0000
  C   C4        1.0  0.7440599999999999  0.44463000000000014  0.31557  1.0000
  C   C5        1.0  0.75361  0.016729999999999988  0.25068  1.0000
  C   C6        1.0  0.7219  0.9227  0.18718  1.0000
  C   C7        1.0  0.7676999999999999  0.45449  0.69711  1.0000
  C   C8        1.0  0.6386000000000002  0.44701  0.70201  1.0000
  C   C9        1.0  0.6140700000000001  0.47412000000000004  0.7766099999999998  1.0000
  C   C10       1.0  0.71457  0.50455  0.84807  1.0000
  C   C11       1.0  0.84757  0.51675  0.84338  1.0000
  C   C12       1.0  0.87527  0.49396  0.76839  1.0000
  C   C13       1.0  0.47561  0.25263  0.27051  1.0000
  C   C14       1.0  0.43852  0.27604999999999996  0.20725999999999994  1.0000
  C   C15       1.0  0.6817400000000001  0.9943600000000002  0.31267  1.0000
  C   C16       1.0  0.6201  0.80492  0.18598  1.0000
  C   C17       1.0  0.54827  0.78323  0.24861999999999998  1.0000
  C   C18       1.0  0.5774600000000001  0.8767700000000003  0.31081  1.0000
  C   C19       1.0  0.93329  0.24601999999999996  0.68509  1.0000
  C   C20       1.0  0.07518999999999999  0.2691700000000001  0.69259  1.0000
  C   C21       1.0  0.16343999999999997  0.3011099999999999  0.7673399999999999  1.0000
  C   C22       1.0  0.11574999999999999  0.31623  0.8375  1.0000
  C   C23       1.0  0.9707  0.28888  0.82937  1.0000
  C   C24       1.0  0.8790700000000001  0.2523400000000001  0.75329  1.0000
  C   C25       1.0  0.50256  0.49821  0.02583  1.0000
  C   C26       1.0  0.58725  0.7061800000000003  0.12466  1.0000
  C   C27       1.0  0.55165  0.61454  0.07716  1.0000
  C   C28       1.0  0.34280999999999995  0.42102000000000006  0.96877  1.0000
  C   C29       1.0  0.22647  0.36804  0.91303  1.0000
  C   C30       1.0  0.66848  0.5146000000000001  0.9200799999999998  1.0000
  C   C31       1.0  0.60516  0.51359  0.97312  1.0000
  C   C32       1.0  0.5232600000000001  0.41165000000000007  0.13344  1.0000
  C   C33       1.0  0.50924  0.4444700000000001  0.0812  1.0000
  C   C34       1.0  0.85322  0.22908  0.60694  1.0000
  C   C35       1.0  0.7111900000000001  0.09274  0.38038  1.0000
  C   C36       1.0  0.6731900000000001  0.3083400000000001  0.38886  1.0000
  C   C37       1.0  0.77088  0.3995100000000001  0.61555  1.0000
  O   O1        1.0  0.70773  0.17733  0.59056  1.0000
  O   O2        1.0  0.94318  0.27501  0.56274  1.0000
  O   O3        1.0  0.6083000000000001  0.05838000000000006  0.41967  1.0000
  O   O4        1.0  0.8325  0.20163000000000003  0.3945  1.0000
  O   O5        1.0  0.56419  0.211  0.39757  1.0000
  O   O6        1.0  0.81958  0.3844099999999999  0.4304499999999999  1.0000
  O   O7        1.0  0.63261  0.3089  0.5652  1.0000
  O   O8        1.0  0.9012200000000001  0.43721  0.60201  1.0000
