data_image0
_chemical_formula_structural       Mg6P6H36C18N6O18
_chemical_formula_sum              "Mg6 P6 H36 C18 N6 O18"
_cell_length_a       6.09926
_cell_length_b       16.69607
_cell_length_c       16.67162
_cell_angle_alpha    118.53238
_cell_angle_beta     96.96121999999998
_cell_angle_gamma    97.02289999999999

_space_group_name_H-M_alt    "P 1"
_space_group_IT_number       1

loop_
  _space_group_symop_operation_xyz
  'x, y, z'

loop_
  _atom_site_type_symbol
  _atom_site_label
  _atom_site_symmetry_multiplicity
  _atom_site_fract_x
  _atom_site_fract_y
  _atom_site_fract_z
  _atom_site_occupancy
  Mg  Mg1       1.0  0.05843000000000001  0.35283  0.59766  1.0000
  Mg  Mg2       1.0  0.7036299999999996  0.2453499999999999  0.6462199999999998  1.0000
  Mg  Mg3       1.0  0.45847  0.40141  0.75506  1.0000
  Mg  Mg4       1.0  0.9415799999999999  0.64717  0.40233999999999986  1.0000
  Mg  Mg5       1.0  0.29637999999999987  0.7546499999999999  0.3537799999999999  1.0000
  Mg  Mg6       1.0  0.54154  0.59859  0.24494  1.0000
  P   P1        1.0  0.54031  0.35159000000000007  0.53995  1.0000
  P   P2        1.0  0.18738999999999995  0.18866999999999992  0.6486799999999999  1.0000
  P   P3        1.0  0.9995499999999999  0.45958  0.81112  1.0000
  P   P4        1.0  0.4596999999999999  0.64841  0.4600499999999999  1.0000
  P   P5        1.0  0.81263  0.8113299999999999  0.3513199999999999  1.0000
  P   P6        1.0  0.0004700000000000068  0.54043  0.18888  1.0000
  H   H1        1.0  0.65242  0.5008600000000002  0.54695  1.0000
  H   H2        1.0  0.76373  0.50327  0.65128  1.0000
  H   H3        1.0  0.80732  0.33577  0.41275  1.0000
  H   H4        1.0  0.10115999999999993  0.37790999999999997  0.4316899999999999  1.0000
  H   H5        1.0  0.28759  0.5267900000000002  0.5898  1.0000
  H   H6        1.0  0.11382000000000002  0.57456  0.67017  1.0000
  H   H7        1.0  0.15054999999999993  0.04567999999999996  0.4996699999999999  1.0000
  H   H8        1.0  0.25865999999999995  0.14718999999999993  0.49684  1.0000
  H   H9        1.0  0.4703899999999998  0.07657999999999991  0.6643699999999998  1.0000
  H   H10       1.0  0.72247  0.054029999999999995  0.62245  1.0000
  H   H11       1.0  0.7604  0.0637  0.47402  1.0000
  H   H12       1.0  0.5390099999999999  0.09564999999999994  0.4257199999999999  1.0000
  H   H13       1.0  0.10400999999999998  0.45294  0.95392  1.0000
  H   H14       1.0  0.11206999999999985  0.3489299999999998  0.8520899999999998  1.0000
  H   H15       1.0  0.39427999999999985  0.5870799999999998  0.9228699999999997  1.0000
  H   H16       1.0  0.66883  0.56773  0.9457599999999998  1.0000
  H   H17       1.0  0.69684  0.41031  0.93656  1.0000
  H   H18       1.0  0.44323  0.3300999999999999  0.9045599999999998  1.0000
  H   H19       1.0  0.3475899999999999  0.49914  0.4530499999999999  1.0000
  H   H20       1.0  0.23628999999999997  0.49673  0.34872  1.0000
  H   H21       1.0  0.1926899999999999  0.6642299999999999  0.5872499999999998  1.0000
  H   H22       1.0  0.89885  0.62209  0.5683099999999999  1.0000
  H   H23       1.0  0.7124299999999999  0.47321  0.4102  1.0000
  H   H24       1.0  0.8861899999999999  0.42544000000000004  0.32983  1.0000
  H   H25       1.0  0.8494699999999998  0.95432  0.50033  1.0000
  H   H26       1.0  0.74136  0.85281  0.50316  1.0000
  H   H27       1.0  0.52962  0.92342  0.33563  1.0000
  H   H28       1.0  0.27753999999999984  0.94597  0.3775499999999999  1.0000
  H   H29       1.0  0.23960999999999993  0.9363  0.5259799999999999  1.0000
  H   H30       1.0  0.4610099999999999  0.90435  0.57428  1.0000
  H   H31       1.0  0.896  0.54706  0.04607999999999999  1.0000
  H   H32       1.0  0.8879500000000001  0.65106  0.14791  1.0000
  H   H33       1.0  0.60573  0.41292  0.07713  1.0000
  H   H34       1.0  0.33118999999999993  0.43227  0.05423999999999999  1.0000
  H   H35       1.0  0.30317  0.58969  0.06344  1.0000
  H   H36       1.0  0.5567900000000001  0.6699  0.09543999999999997  1.0000
  C   C1        1.0  0.7335900000000002  0.46139  0.57474  1.0000
  C   C2        1.0  0.9402199999999996  0.3993399999999999  0.4455399999999999  1.0000
  C   C3        1.0  0.11723999999999993  0.53952  0.5955  1.0000
  C   C4        1.0  0.27105  0.11294000000000004  0.53903  1.0000
  C   C5        1.0  0.54015  0.0461  0.6008  1.0000
  C   C6        1.0  0.57731  0.05615  0.46083  1.0000
  C   C7        1.0  0.15806999999999993  0.42535  0.8867299999999998  1.0000
  C   C8        1.0  0.49424999999999997  0.55429  0.9536699999999998  1.0000
  C   C9        1.0  0.5212  0.40465000000000023  0.94401  1.0000
  C   C10       1.0  0.26642  0.5386000000000002  0.4252599999999999  1.0000
  C   C11       1.0  0.05979  0.60066  0.55446  1.0000
  C   C12       1.0  0.88277  0.4604799999999999  0.4044999999999999  1.0000
  C   C13       1.0  0.7289599999999999  0.8870600000000001  0.4609699999999999  1.0000
  C   C14       1.0  0.45986  0.9539  0.3992  1.0000
  C   C15       1.0  0.42270999999999986  0.94385  0.53917  1.0000
  C   C16       1.0  0.8419499999999999  0.57464  0.11326999999999997  1.0000
  C   C17       1.0  0.50577  0.44571  0.04633  1.0000
  C   C18       1.0  0.47881999999999997  0.59535  0.05599  1.0000
  N   N1        1.0  0.95639  0.44666999999999996  0.54917  1.0000
  N   N2        1.0  0.5087099999999999  0.10247999999999995  0.5537099999999999  1.0000
  N   N3        1.0  0.4062399999999998  0.4509299999999999  0.8975999999999997  1.0000
  N   N4        1.0  0.043619999999999964  0.55333  0.4508299999999999  1.0000
  N   N5        1.0  0.4913  0.8975200000000002  0.44629  1.0000
  N   N6        1.0  0.59377  0.54907  0.10239999999999998  1.0000
  O   O1        1.0  0.38896  0.30955  0.44589  1.0000
  O   O2        1.0  0.4013599999999999  0.3781099999999999  0.6195999999999998  1.0000
  O   O3        1.0  0.7101099999999998  0.29338  0.5532599999999998  1.0000
  O   O4        1.0  0.07842999999999986  0.1375799999999999  0.6916499999999998  1.0000
  O   O5        1.0  0.021569999999999912  0.24067999999999995  0.6206999999999998  1.0000
  O   O6        1.0  0.41471  0.26059  0.7066499999999998  1.0000
  O   O7        1.0  0.94455  0.55392  0.86281  1.0000
  O   O8        1.0  0.7800699999999999  0.38034  0.75894  1.0000
  O   O9        1.0  0.15493999999999988  0.4450099999999999  0.7388299999999998  1.0000
  O   O10       1.0  0.6110599999999997  0.6904499999999999  0.5541099999999998  1.0000
  O   O11       1.0  0.5986499999999999  0.62189  0.38039999999999996  1.0000
  O   O12       1.0  0.2899  0.70662  0.44674  1.0000
  O   O13       1.0  0.92159  0.86242  0.30835  1.0000
  O   O14       1.0  0.97845  0.75932  0.3793  1.0000
  O   O15       1.0  0.5853  0.7394100000000001  0.29335  1.0000
  O   O16       1.0  0.05546999999999997  0.44608  0.13718999999999995  1.0000
  O   O17       1.0  0.21994000000000008  0.6196600000000002  0.24105999999999994  1.0000
  O   O18       1.0  0.8450699999999999  0.55499  0.26116999999999996  1.0000
