data_image0
_chemical_formula_structural       Cd8H12C36I4O24
_chemical_formula_sum              "Cd8 H12 C36 I4 O24"
_cell_length_a       13.77544
_cell_length_b       15.634240000000002
_cell_length_c       16.01795
_cell_angle_alpha    89.97956
_cell_angle_beta     90.03861
_cell_angle_gamma    89.99642

_symmetry_space_group_name_H-M    'P 1'
_symmetry_Int_Tables_number       1

loop_
  _symmetry_equiv_pos_as_xyz
  'x,y,z'

loop_
  _atom_site_type_symbol
  _atom_site_label
  _atom_site_symmetry_multiplicity
  _atom_site_fract_x
  _atom_site_fract_y
  _atom_site_fract_z
  _atom_site_occupancy
  Cd  Cd1       1.0  0.26077  0.7126999999999998  0.72563  1.0000
  Cd  Cd2       1.0  0.11300999999999997  0.6008799999999997  0.61384  1.0000
  Cd  Cd3       1.0  0.24088999999999997  0.2894  0.22576999999999994  1.0000
  Cd  Cd4       1.0  0.38835  0.40044999999999986  0.11360999999999997  1.0000
  Cd  Cd5       1.0  0.7409099999999997  0.21265  0.77399  1.0000
  Cd  Cd6       1.0  0.88825  0.10139999999999998  0.88626  1.0000
  Cd  Cd7       1.0  0.7592799999999997  0.7900699999999998  0.2729  1.0000
  Cd  Cd8       1.0  0.6122099999999998  0.8994299999999997  0.38615  1.0000
  H   H1        1.0  0.3035599999999999  0.4721499999999999  0.4244099999999999  1.0000
  H   H2        1.0  0.54412  0.5744799999999998  0.2847099999999999  1.0000
  H   H3        1.0  0.45651999999999987  0.69393  0.5147899999999997  1.0000
  H   H4        1.0  0.19836  0.52789  0.92395  1.0000
  H   H5        1.0  0.95526  0.42734999999999995  0.78581  1.0000
  H   H6        1.0  0.04441999999999999  0.30723  0.0153  1.0000
  H   H7        1.0  0.69839  0.9741899999999998  0.07519  1.0000
  H   H8        1.0  0.45536  0.07396  0.21389  1.0000
  H   H9        1.0  0.54403  0.19483  0.98458  1.0000
  H   H10       1.0  0.80211  0.02745999999999999  0.576  1.0000
  H   H11       1.0  0.045929999999999985  0.9282199999999998  0.71405  1.0000
  H   H12       1.0  0.9564799999999999  0.8068199999999998  0.48519  1.0000
  C   C1        1.0  0.3026799999999999  0.5924899999999997  0.54766  1.0000
  C   C2        1.0  0.4034899999999999  0.45456999999999986  0.27939  1.0000
  C   C3        1.0  0.57764  0.7130199999999998  0.3826099999999999  1.0000
  C   C4        1.0  0.37562  0.5816799999999998  0.47932999999999987  1.0000
  C   C5        1.0  0.3629599999999999  0.51762  0.41901  1.0000
  C   C6        1.0  0.42437999999999987  0.5146699999999997  0.34951  1.0000
  C   C7        1.0  0.4985099999999999  0.5754099999999999  0.34000999999999987  1.0000
  C   C8        1.0  0.5098999999999999  0.6401899999999998  0.39933  1.0000
  C   C9        1.0  0.4491399999999999  0.6426499999999998  0.4695  1.0000
  C   C10       1.0  0.19822999999999993  0.4077899999999999  0.047489999999999984  1.0000
  C   C11       1.0  0.09637999999999997  0.5472899999999998  0.77952  1.0000
  C   C12       1.0  0.9217499999999997  0.2890299999999999  0.88371  1.0000
  C   C13       1.0  0.12554  0.4189699999999999  0.97907  1.0000
  C   C14       1.0  0.13836  0.4830199999999999  0.9187  1.0000
  C   C15       1.0  0.07628  0.4865599999999999  0.84955  1.0000
  C   C16       1.0  0.0016299999999999995  0.42612  0.84069  1.0000
  C   C17       1.0  0.9901799999999997  0.3613899999999999  0.90014  1.0000
  C   C18       1.0  0.05158  0.3584199999999999  0.96985  1.0000
  C   C19       1.0  0.69828  0.09440999999999997  0.95235  1.0000
  C   C20       1.0  0.5968599999999997  0.9533899999999997  0.2192  1.0000
  C   C21       1.0  0.42203  0.21291999999999994  0.11640999999999997  1.0000
  C   C22       1.0  0.62541  0.08314  0.02054  1.0000
  C   C23       1.0  0.6383099999999998  0.018929999999999992  0.08073  1.0000
  C   C24       1.0  0.57626  0.014939999999999997  0.14986  1.0000
  C   C25       1.0  0.5017099999999999  0.07541999999999997  0.15902  1.0000
  C   C26       1.0  0.49027  0.14047999999999994  0.09979  1.0000
  C   C27       1.0  0.5513999999999999  0.14359  0.029979999999999993  1.0000
  C   C28       1.0  0.8021399999999999  0.9078299999999998  0.45261  1.0000
  C   C29       1.0  0.9034999999999997  0.047399999999999984  0.72038  1.0000
  C   C30       1.0  0.07983999999999997  0.78945  0.61651  1.0000
  C   C31       1.0  0.8749899999999998  0.9186099999999998  0.52114  1.0000
  C   C32       1.0  0.8622  0.9827099999999998  0.58142  1.0000
  C   C33       1.0  0.9243099999999997  0.9866899999999997  0.65052  1.0000
  C   C34       1.0  0.9992999999999999  0.9265399999999998  0.65935  1.0000
  C   C35       1.0  0.010749999999999996  0.8615099999999998  0.6001399999999998  1.0000
  C   C36       1.0  0.9490799999999998  0.8580999999999998  0.53054  1.0000
  I   I1        1.0  0.40205  0.7717499999999998  0.8222  1.0000
  I   I2        1.0  0.09904  0.22874999999999995  0.32074  1.0000
  I   I3        1.0  0.59937  0.27117  0.67737  1.0000
  I   I4        1.0  0.9006199999999998  0.7251899999999998  0.18  1.0000
  O   O1        1.0  0.31393  0.6530499999999998  0.5997099999999997  1.0000
  O   O2        1.0  0.22920999999999994  0.5412799999999998  0.54561  1.0000
  O   O3        1.0  0.32903  0.4066999999999999  0.28286  1.0000
  O   O4        1.0  0.46174  0.4592799999999999  0.21632  1.0000
  O   O5        1.0  0.6321199999999999  0.7099599999999998  0.31857999999999986  1.0000
  O   O6        1.0  0.5711699999999997  0.776  0.43394  1.0000
  O   O7        1.0  0.18652  0.34717  0.09946999999999998  1.0000
  O   O8        1.0  0.27165  0.4589499999999999  0.045659999999999985  1.0000
  O   O9        1.0  0.16959  0.59666  0.78308  1.0000
  O   O10       1.0  0.03858  0.54131  0.71617  1.0000
  O   O11       1.0  0.8659799999999997  0.29398999999999986  0.8206099999999997  1.0000
  O   O12       1.0  0.92904  0.22498999999999994  0.9337  1.0000
  O   O13       1.0  0.6871199999999997  0.15511999999999995  0.9003999999999998  1.0000
  O   O14       1.0  0.7716  0.04308999999999999  0.95438  1.0000
  O   O15       1.0  0.67107  0.9053299999999997  0.21469  1.0000
  O   O16       1.0  0.5387299999999999  0.9570399999999998  0.28251  1.0000
  O   O17       1.0  0.36637  0.20809999999999995  0.17952999999999994  1.0000
  O   O18       1.0  0.4291199999999999  0.2769999999999999  0.06634  1.0000
  O   O19       1.0  0.8140599999999998  0.84821  0.3997999999999999  1.0000
  O   O20       1.0  0.7281999999999997  0.9584699999999998  0.45493  1.0000
  O   O21       1.0  0.8289199999999998  0.09512999999999998  0.71691  1.0000
  O   O22       1.0  0.9619699999999998  0.04312999999999999  0.78342  1.0000
  O   O23       1.0  0.13732  0.7954699999999998  0.67846  1.0000
  O   O24       1.0  0.0714  0.72479  0.56723  1.0000
