data_image0
_chemical_formula_structural       Cu6H18C48O24
_chemical_formula_sum              "Cu6 H18 C48 O24"
_cell_length_a       13.61864
_cell_length_b       13.618689999999999
_cell_length_c       13.61868
_cell_angle_alpha    86.57136
_cell_angle_beta     86.5705
_cell_angle_gamma    86.5705

_space_group_name_H-M_alt    "P 1"
_space_group_IT_number       1

loop_
  _space_group_symop_operation_xyz
  'x, y, z'

loop_
  _atom_site_type_symbol
  _atom_site_label
  _atom_site_symmetry_multiplicity
  _atom_site_fract_x
  _atom_site_fract_y
  _atom_site_fract_z
  _atom_site_occupancy
  Cu  Cu1       1.0  0.41641  0.98151  0.98151  1.0000
  Cu  Cu2       1.0  0.98151  0.98151  0.4164  1.0000
  Cu  Cu3       1.0  0.98151  0.41639999999999994  0.98151  1.0000
  Cu  Cu4       1.0  0.018499999999999992  0.5836  0.01849  1.0000
  Cu  Cu5       1.0  0.018499999999999992  0.018490000000000003  0.5836  1.0000
  Cu  Cu6       1.0  0.5836  0.018489999999999993  0.01849  1.0000
  H   H1        1.0  0.56674  0.0002899999999999977  0.3346700000000001  1.0000
  H   H2        1.0  0.0002900000000000008  0.33467  0.56674  1.0000
  H   H3        1.0  0.33468  0.56674  0.00029000000000000006  1.0000
  H   H4        1.0  0.9997199999999998  0.43326000000000003  0.66533  1.0000
  H   H5        1.0  0.66533  0.99971  0.43326  1.0000
  H   H6        1.0  0.43327  0.66533  0.9997100000000001  1.0000
  H   H7        1.0  0.43326999999999993  0.99971  0.66533  1.0000
  H   H8        1.0  0.99972  0.66533  0.43326  1.0000
  H   H9        1.0  0.66533  0.43325999999999987  0.9997100000000001  1.0000
  H   H10       1.0  0.00028999999999999675  0.56674  0.3346700000000001  1.0000
  H   H11       1.0  0.33468  0.0002900000000000018  0.56674  1.0000
  H   H12       1.0  0.56674  0.33467  0.00029000000000000006  1.0000
  H   H13       1.0  0.26561  0.98453  0.26561  1.0000
  H   H14       1.0  0.98454  0.26561  0.26561  1.0000
  H   H15       1.0  0.26561  0.26561  0.98453  1.0000
  H   H16       1.0  0.015470000000000006  0.73439  0.73439  1.0000
  H   H17       1.0  0.7344  0.01547  0.73439  1.0000
  H   H18       1.0  0.7344  0.73439  0.015470000000000003  1.0000
  C   C1        1.0  0.45171  0.99263  0.18402000000000002  1.0000
  C   C2        1.0  0.49015  0.99723  0.36142  1.0000
  C   C3        1.0  0.42007999999999995  0.9922699999999999  0.291  1.0000
  C   C4        1.0  0.99264  0.18402  0.4517  1.0000
  C   C5        1.0  0.99724  0.36142  0.4901500000000001  1.0000
  C   C6        1.0  0.99227  0.2909999999999999  0.42007000000000005  1.0000
  C   C7        1.0  0.18402  0.4517  0.99263  1.0000
  C   C8        1.0  0.36142999999999986  0.49015  0.9972300000000001  1.0000
  C   C9        1.0  0.29101  0.42008  0.99227  1.0000
  C   C10       1.0  0.0073700000000000015  0.5483  0.81598  1.0000
  C   C11       1.0  0.0027700000000000016  0.50985  0.63858  1.0000
  C   C12       1.0  0.007740000000000004  0.5799299999999997  0.7090000000000002  1.0000
  C   C13       1.0  0.81599  0.007370000000000001  0.5483  1.0000
  C   C14       1.0  0.63858  0.0027700000000000003  0.50985  1.0000
  C   C15       1.0  0.7089999999999999  0.007730000000000002  0.57993  1.0000
  C   C16       1.0  0.5483  0.81598  0.00737  1.0000
  C   C17       1.0  0.5098600000000001  0.6385799999999998  0.00277  1.0000
  C   C18       1.0  0.57993  0.709  0.00773  1.0000
  C   C19       1.0  0.5482999999999999  0.007370000000000001  0.81598  1.0000
  C   C20       1.0  0.50986  0.0027700000000000003  0.63858  1.0000
  C   C21       1.0  0.5799299999999998  0.0077299999999999895  0.7090000000000002  1.0000
  C   C22       1.0  0.00737000000000001  0.81598  0.5483  1.0000
  C   C23       1.0  0.0027700000000000094  0.6385799999999998  0.50985  1.0000
  C   C24       1.0  0.007739999999999996  0.709  0.57993  1.0000
  C   C25       1.0  0.81599  0.5483  0.00737  1.0000
  C   C26       1.0  0.63858  0.50985  0.00277  1.0000
  C   C27       1.0  0.7089999999999999  0.57993  0.00773  1.0000
  C   C28       1.0  0.99264  0.4517  0.18402000000000002  1.0000
  C   C29       1.0  0.9972400000000001  0.49015  0.36142  1.0000
  C   C30       1.0  0.99227  0.42007  0.291  1.0000
  C   C31       1.0  0.18402  0.99263  0.4517  1.0000
  C   C32       1.0  0.36142999999999986  0.99723  0.4901500000000001  1.0000
  C   C33       1.0  0.29101  0.9922699999999999  0.42007000000000005  1.0000
  C   C34       1.0  0.45171  0.18402  0.99263  1.0000
  C   C35       1.0  0.49015  0.36142  0.9972300000000001  1.0000
  C   C36       1.0  0.42007999999999995  0.29101  0.99227  1.0000
  C   C37       1.0  0.46256  0.99841  0.46255  1.0000
  C   C38       1.0  0.32004999999999995  0.98872  0.32005  1.0000
  C   C39       1.0  0.99841  0.46255  0.46255  1.0000
  C   C40       1.0  0.98873  0.32005  0.32005  1.0000
  C   C41       1.0  0.46255999999999997  0.46255999999999997  0.99841  1.0000
  C   C42       1.0  0.32004999999999995  0.32005  0.98872  1.0000
  C   C43       1.0  0.001600000000000005  0.53745  0.53745  1.0000
  C   C44       1.0  0.011280000000000012  0.6799499999999999  0.67995  1.0000
  C   C45       1.0  0.53745  0.0015900000000000033  0.53745  1.0000
  C   C46       1.0  0.6799599999999999  0.011279999999999998  0.67995  1.0000
  C   C47       1.0  0.53745  0.53745  0.00159  1.0000
  C   C48       1.0  0.6799599999999999  0.6799499999999999  0.01128  1.0000
  O   O1        1.0  0.38567  0.97644  0.12473  1.0000
  O   O2        1.0  0.54173  0.00983  0.16005  1.0000
  O   O3        1.0  0.97645  0.12473  0.38567  1.0000
  O   O4        1.0  0.009830000000000004  0.16004999999999997  0.54173  1.0000
  O   O5        1.0  0.12474  0.38566999999999996  0.97644  1.0000
  O   O6        1.0  0.16004999999999997  0.54173  0.009830000000000004  1.0000
  O   O7        1.0  0.02356  0.61433  0.87527  1.0000
  O   O8        1.0  0.99018  0.45826999999999984  0.8399500000000002  1.0000
  O   O9        1.0  0.87527  0.02356  0.61433  1.0000
  O   O10       1.0  0.83996  0.99017  0.45827  1.0000
  O   O11       1.0  0.61434  0.8752699999999999  0.02356  1.0000
  O   O12       1.0  0.45828  0.83996  0.99017  1.0000
  O   O13       1.0  0.61434  0.02356  0.87527  1.0000
  O   O14       1.0  0.45827999999999997  0.99017  0.8399500000000002  1.0000
  O   O15       1.0  0.023560000000000008  0.8752699999999999  0.61433  1.0000
  O   O16       1.0  0.99018  0.8399499999999999  0.45827  1.0000
  O   O17       1.0  0.87527  0.61433  0.02356  1.0000
  O   O18       1.0  0.83996  0.45827  0.99017  1.0000
  O   O19       1.0  0.97645  0.38566999999999996  0.12473  1.0000
  O   O20       1.0  0.009830000000000004  0.54173  0.16005  1.0000
  O   O21       1.0  0.12474  0.97644  0.38567  1.0000
  O   O22       1.0  0.16004999999999997  0.00983  0.54173  1.0000
  O   O23       1.0  0.38567  0.12473  0.97644  1.0000
  O   O24       1.0  0.54173  0.16004999999999997  0.009830000000000004  1.0000
