data_image0
_chemical_formula_structural       Ag2H40C40N8
_chemical_formula_sum              "Ag2 H40 C40 N8"
_cell_length_a       10.73315
_cell_length_b       10.73336
_cell_length_c       10.82876
_cell_angle_alpha    105.81518
_cell_angle_beta     105.92686
_cell_angle_gamma    102.40885

_symmetry_space_group_name_H-M    'P 1'
_symmetry_Int_Tables_number       1

loop_
  _symmetry_equiv_pos_as_xyz
  'x,y,z'

loop_
  _atom_site_type_symbol
  _atom_site_label
  _atom_site_symmetry_multiplicity
  _atom_site_fract_x
  _atom_site_fract_y
  _atom_site_fract_z
  _atom_site_occupancy
  Ag  Ag1       1.0  0.87627  0.017120000000000017  0.16858000000000004  1.0000
  Ag  Ag2       1.0  0.017019999999999976  0.8761599999999999  0.66865  1.0000
  H   H1        1.0  0.7876999999999997  0.84316  0.44755  1.0000
  H   H2        1.0  0.70569  0.92338  0.33876  1.0000
  H   H3        1.0  0.18878  0.96874  0.49786  1.0000
  H   H4        1.0  0.10649  0.04851  0.3886  1.0000
  H   H5        1.0  0.52972  0.48069  0.39241  1.0000
  H   H6        1.0  0.35080999999999996  0.41358  0.43424000000000007  1.0000
  H   H7        1.0  0.91041  0.12472  0.43617  1.0000
  H   H8        1.0  0.8638799999999999  0.08942000000000001  0.5718300000000001  1.0000
  H   H9        1.0  0.22902000000000003  0.14758000000000002  0.7046000000000001  1.0000
  H   H10       1.0  0.09208999999999998  0.19692000000000007  0.73969  1.0000
  H   H11       1.0  0.03049999999999998  0.80226  0.26511  1.0000
  H   H12       1.0  0.98345  0.7674199999999999  0.40076  1.0000
  H   H13       1.0  0.66698  0.74667  0.12894000000000003  1.0000
  H   H14       1.0  0.80454  0.69556  0.09748  1.0000
  H   H15       1.0  0.8767699999999998  0.52313  0.17  1.0000
  H   H16       1.0  0.015049999999999985  0.36804  0.6696  1.0000
  H   H17       1.0  0.56329  0.65947  0.28774000000000005  1.0000
  H   H18       1.0  0.6673700000000001  0.32351  0.3871000000000001  1.0000
  H   H19       1.0  0.32572  0.23599000000000003  0.54151  1.0000
  H   H20       1.0  0.20933999999999997  0.5671  0.44236  1.0000
  H   H21       1.0  0.8431499999999998  0.78769  0.9475600000000001  1.0000
  H   H22       1.0  0.9234099999999998  0.7058400000000001  0.83903  1.0000
  H   H23       1.0  0.9686699999999999  0.18859000000000004  0.9975800000000001  1.0000
  H   H24       1.0  0.04850000000000001  0.10651999999999998  0.88856  1.0000
  H   H25       1.0  0.48083999999999993  0.52952  0.8924300000000002  1.0000
  H   H26       1.0  0.41347  0.35087  0.93415  1.0000
  H   H27       1.0  0.12479  0.91047  0.93643  1.0000
  H   H28       1.0  0.08961  0.86388  0.07214  1.0000
  H   H29       1.0  0.14755999999999997  0.22881  0.20438  1.0000
  H   H30       1.0  0.19716  0.09209  0.23988  1.0000
  H   H31       1.0  0.80202  0.03047000000000001  0.7648  1.0000
  H   H32       1.0  0.7673699999999998  0.98333  0.90051  1.0000
  H   H33       1.0  0.7466899999999999  0.66717  0.62912  1.0000
  H   H34       1.0  0.69531  0.80451  0.59725  1.0000
  H   H35       1.0  0.52309  0.8768499999999999  0.6699600000000001  1.0000
  H   H36       1.0  0.36808  0.01495000000000001  0.16973  1.0000
  H   H37       1.0  0.65947  0.5631500000000002  0.7877400000000001  1.0000
  H   H38       1.0  0.3237  0.66726  0.8871  1.0000
  H   H39       1.0  0.23596999999999996  0.32575  0.04138  1.0000
  H   H40       1.0  0.56695  0.20931999999999995  0.94244  1.0000
  C   C1        1.0  0.80394  0.91215  0.39012  1.0000
  C   C2        1.0  0.09045000000000004  0.9798400000000002  0.4464000000000001  1.0000
  C   C3        1.0  0.7266399999999998  0.60638  0.2269  1.0000
  C   C4        1.0  0.16406  0.28676  0.60757  1.0000
  C   C5        1.0  0.6065699999999999  0.49041999999999997  0.34479  1.0000
  C   C6        1.0  0.10343  0.48071  0.55883  1.0000
  C   C7        1.0  0.27635999999999994  0.40293999999999996  0.48461000000000004  1.0000
  C   C8        1.0  0.90243  0.05075999999999999  0.48965  1.0000
  C   C9        1.0  0.13544000000000003  0.16987000000000002  0.6590200000000002  1.0000
  C   C10       1.0  0.99179  0.8412099999999999  0.34706  1.0000
  C   C11       1.0  0.7810399999999997  0.41033  0.27625  1.0000
  C   C12       1.0  0.7591899999999999  0.72323  0.17637  1.0000
  C   C13       1.0  0.80092  0.51454  0.21907  1.0000
  C   C14       1.0  0.08837000000000002  0.3773  0.61765  1.0000
  C   C15       1.0  0.62569  0.59193  0.28662  1.0000
  C   C16       1.0  0.85741  0.32  0.26709  1.0000
  C   C17       1.0  0.6834299999999999  0.40194  0.34231  1.0000
  C   C18       1.0  0.2619  0.30208  0.54426  1.0000
  C   C19       1.0  0.026129999999999997  0.57007  0.56903  1.0000
  C   C20       1.0  0.19769999999999996  0.48962  0.48896  1.0000
  C   C21       1.0  0.9121799999999999  0.80401  0.89026  1.0000
  C   C22       1.0  0.97979  0.09036  0.94624  1.0000
  C   C23       1.0  0.6063099999999999  0.72658  0.7268200000000001  1.0000
  C   C24       1.0  0.28682  0.16407  0.10762  1.0000
  C   C25       1.0  0.4905099999999999  0.60641  0.84477  1.0000
  C   C26       1.0  0.48064999999999997  0.10337999999999999  0.05893  1.0000
  C   C27       1.0  0.40286999999999995  0.2764  0.9845900000000001  1.0000
  C   C28       1.0  0.050859999999999995  0.90245  0.98986  1.0000
  C   C29       1.0  0.16998  0.13536  0.15904  1.0000
  C   C30       1.0  0.8410999999999998  0.9917400000000001  0.8468300000000001  1.0000
  C   C31       1.0  0.4103700000000001  0.7809899999999999  0.77618  1.0000
  C   C32       1.0  0.72311  0.75924  0.67632  1.0000
  C   C33       1.0  0.5145  0.8009199999999999  0.719  1.0000
  C   C34       1.0  0.37732  0.08831  0.11775000000000001  1.0000
  C   C35       1.0  0.5919399999999999  0.62558  0.78659  1.0000
  C   C36       1.0  0.32009  0.85742  0.7671000000000001  1.0000
  C   C37       1.0  0.40207  0.68331  0.84228  1.0000
  C   C38       1.0  0.30207  0.26192  0.04422000000000001  1.0000
  C   C39       1.0  0.56998  0.02602  0.06908  1.0000
  C   C40       1.0  0.4895200000000001  0.1977  0.98901  1.0000
  N   N1        1.0  0.85715  0.85411  0.2829400000000001  1.0000
  N   N2        1.0  0.03743000000000003  0.03837000000000005  0.5535600000000002  1.0000
  N   N3        1.0  0.9609599999999999  0.64586  0.5808  1.0000
  N   N4        1.0  0.92377  0.24531999999999998  0.25608  1.0000
  N   N5        1.0  0.85405  0.8572299999999999  0.7829  1.0000
  N   N6        1.0  0.03840999999999999  0.03732  0.05356  1.0000
  N   N7        1.0  0.6458599999999998  0.9608799999999998  0.08075  1.0000
  N   N8        1.0  0.24533999999999995  0.92378  0.75617  1.0000
