data_image0
_chemical_formula_structural       Ag12H24C16S8N32
_chemical_formula_sum              "Ag12 H24 C16 S8 N32"
_cell_length_a       11.30546
_cell_length_b       14.27695
_cell_length_c       11.06835
_cell_angle_alpha    89.27704
_cell_angle_beta     81.86451
_cell_angle_gamma    89.88991

_symmetry_space_group_name_H-M    'P 1'
_symmetry_Int_Tables_number       1

loop_
  _symmetry_equiv_pos_as_xyz
  'x,y,z'

loop_
  _atom_site_type_symbol
  _atom_site_label
  _atom_site_symmetry_multiplicity
  _atom_site_fract_x
  _atom_site_fract_y
  _atom_site_fract_z
  _atom_site_occupancy
  Ag  Ag1       1.0  0.39990999999999993  0.8913100000000003  0.7605600000000001  1.0000
  Ag  Ag2       1.0  0.59854  0.007930000000000001  0.4520100000000001  1.0000
  Ag  Ag3       1.0  0.9651299999999998  0.10188000000000003  0.70798  1.0000
  Ag  Ag4       1.0  0.10113999999999995  0.3911600000000001  0.7413000000000001  1.0000
  Ag  Ag5       1.0  0.89428  0.51305  0.04534  1.0000
  Ag  Ag6       1.0  0.53368  0.6005100000000002  0.7924100000000001  1.0000
  Ag  Ag7       1.0  0.59903  0.10694000000000001  0.23271  1.0000
  Ag  Ag8       1.0  0.37217  0.9792500000000002  0.54037  1.0000
  Ag  Ag9       1.0  0.031169999999999993  0.8992700000000001  0.29214  1.0000
  Ag  Ag10      1.0  0.90043  0.60516  0.26514  1.0000
  Ag  Ag11      1.0  0.12081000000000001  0.4789200000000001  0.95976  1.0000
  Ag  Ag12      1.0  0.46844999999999987  0.3993100000000001  0.20569  1.0000
  H   H1        1.0  0.84191  0.76223  0.59712  1.0000
  H   H2        1.0  0.9289199999999999  0.86918  0.59236  1.0000
  H   H3        1.0  0.8301899999999998  0.8536400000000002  0.48391  1.0000
  H   H4        1.0  0.015729999999999984  0.60413  0.7301  1.0000
  H   H5        1.0  0.08653  0.5636500000000001  0.58581  1.0000
  H   H6        1.0  0.042609999999999995  0.6842700000000003  0.60059  1.0000
  H   H7        1.0  0.6619899999999999  0.26009  0.90365  1.0000
  H   H8        1.0  0.5730399999999999  0.36712000000000006  0.90811  1.0000
  H   H9        1.0  0.67245  0.3498400000000001  0.01649  1.0000
  H   H10       1.0  0.48391  0.10326  0.7683  1.0000
  H   H11       1.0  0.41317  0.060780000000000015  0.9135800000000001  1.0000
  H   H12       1.0  0.45855  0.18075  0.89792  1.0000
  H   H13       1.0  0.16921  0.23570000000000005  0.41091000000000005  1.0000
  H   H14       1.0  0.08202999999999998  0.12823  0.4186  1.0000
  H   H15       1.0  0.19189  0.14058000000000007  0.51635  1.0000
  H   H16       1.0  0.9868000000000001  0.38857000000000014  0.26051  1.0000
  H   H17       1.0  0.91775  0.4276700000000001  0.40696  1.0000
  H   H18       1.0  0.96339  0.30735  0.38811  1.0000
  H   H19       1.0  0.32949000000000006  0.73776  0.0869  1.0000
  H   H20       1.0  0.4173699999999999  0.63016  0.08011  1.0000
  H   H21       1.0  0.30837999999999993  0.6441  0.98203  1.0000
  H   H22       1.0  0.51298  0.88981  0.23905  1.0000
  H   H23       1.0  0.58228  0.9315500000000002  0.09262  1.0000
  H   H24       1.0  0.53594  0.81166  0.11107000000000002  1.0000
  C   C1        1.0  0.27931  0.59358  0.7199500000000001  1.0000
  C   C2        1.0  0.84388  0.83744  0.57774  1.0000
  C   C3        1.0  0.07658  0.6238900000000002  0.64712  1.0000
  C   C4        1.0  0.73062  0.97406  0.68361  1.0000
  C   C5        1.0  0.21915999999999994  0.09319  0.78207  1.0000
  C   C6        1.0  0.6585  0.33515  0.9226400000000001  1.0000
  C   C7        1.0  0.42346999999999996  0.12177  0.8516300000000001  1.0000
  C   C8        1.0  0.7701400000000002  0.4734800000000001  0.81439  1.0000
  C   C9        1.0  0.7254999999999999  0.4019200000000001  0.2744  1.0000
  C   C10       1.0  0.16909999999999997  0.15957  0.42626  1.0000
  C   C11       1.0  0.9278399999999999  0.36834  0.34426  1.0000
  C   C12       1.0  0.27427999999999997  0.02625  0.30433  1.0000
  C   C13       1.0  0.77336  0.90209  0.22760000000000002  1.0000
  C   C14       1.0  0.33029  0.6620300000000001  0.07215  1.0000
  C   C15       1.0  0.57195  0.87115  0.15547  1.0000
  C   C16       1.0  0.22537999999999994  0.52722  0.19567000000000004  1.0000
  S   S1        1.0  0.80482  0.06503000000000003  0.60266  1.0000
  S   S2        1.0  0.29216000000000003  0.47599  0.74994  1.0000
  S   S3        1.0  0.69575  0.56294  0.8959300000000001  1.0000
  S   S4        1.0  0.20677000000000004  0.97599  0.7535  1.0000
  S   S5        1.0  0.20249  0.9339900000000001  0.38536  1.0000
  S   S6        1.0  0.7145  0.51987  0.24752  1.0000
  S   S7        1.0  0.29566  0.43543  0.11497000000000002  1.0000
  S   S8        1.0  0.78412  0.01939  0.25661  1.0000
  N   N1        1.0  0.5956899999999998  0.8901100000000002  0.7925700000000001  1.0000
  N   N2        1.0  0.6357599999999999  0.9793900000000002  0.77101  1.0000
  N   N3        1.0  0.33355000000000007  0.74123  0.7107700000000001  1.0000
  N   N4        1.0  0.7487899999999998  0.8809  0.65936  1.0000
  N   N5        1.0  0.3677099999999999  0.6534100000000002  0.73877  1.0000
  N   N6        1.0  0.19329  0.6484700000000002  0.67905  1.0000
  N   N7        1.0  0.6642099999999997  0.82902  0.72683  1.0000
  N   N8        1.0  0.22863  0.7396500000000003  0.6744200000000001  1.0000
  N   N9        1.0  0.90539  0.39144  0.70597  1.0000
  N   N10       1.0  0.8640499999999999  0.4805800000000001  0.7260900000000001  1.0000
  N   N11       1.0  0.16568  0.24076000000000006  0.78886  1.0000
  N   N12       1.0  0.75233  0.37991  0.83987  1.0000
  N   N13       1.0  0.13031999999999996  0.15322000000000005  0.76333  1.0000
  N   N14       1.0  0.30622999999999995  0.14740000000000006  0.82093  1.0000
  N   N15       1.0  0.83747  0.3293500000000001  0.77259  1.0000
  N   N16       1.0  0.27096999999999993  0.23853000000000002  0.8236300000000001  1.0000
  N   N17       1.0  0.40266  0.11306  0.19103  1.0000
  N   N18       1.0  0.36334  0.02324  0.21067  1.0000
  N   N19       1.0  0.66803  0.25571  0.28121  1.0000
  N   N20       1.0  0.25753999999999994  0.11872000000000002  0.33439  1.0000
  N   N21       1.0  0.63516  0.34421000000000007  0.25648  1.0000
  N   N22       1.0  0.81104  0.34505000000000013  0.31185  1.0000
  N   N23       1.0  0.3383599999999999  0.17197000000000007  0.26447  1.0000
  N   N24       1.0  0.7737799999999999  0.25437  0.31473  1.0000
  N   N25       1.0  0.09602999999999999  0.61277  0.3074  1.0000
  N   N26       1.0  0.13590999999999998  0.5227700000000002  0.28881  1.0000
  N   N27       1.0  0.8319499999999999  0.7557  0.21818  1.0000
  N   N28       1.0  0.24223999999999998  0.62  0.16447  1.0000
  N   N29       1.0  0.8638399999999999  0.84363  0.24572  1.0000
  N   N30       1.0  0.6884400000000002  0.8466000000000002  0.18784000000000003  1.0000
  N   N31       1.0  0.16064  0.67246  0.23310000000000003  1.0000
  N   N32       1.0  0.7262899999999998  0.75606  0.18319  1.0000
