data_image0
_chemical_formula_structural       Mn4H16C32O20
_chemical_formula_sum              "Mn4 H16 C32 O20"
_cell_length_a       9.68056
_cell_length_b       12.02504
_cell_length_c       12.592720000000002
_cell_angle_alpha    61.20358999999999
_cell_angle_beta     72.78251
_cell_angle_gamma    74.19855

_space_group_name_H-M_alt    "P 1"
_space_group_IT_number       1

loop_
  _space_group_symop_operation_xyz
  'x, y, z'

loop_
  _atom_site_type_symbol
  _atom_site_label
  _atom_site_symmetry_multiplicity
  _atom_site_fract_x
  _atom_site_fract_y
  _atom_site_fract_z
  _atom_site_occupancy
  Mn  Mn1       1.0  0.9085800000000003  0.83339  0.8395299999999999  1.0000
  Mn  Mn2       1.0  0.09145999999999999  0.16659  0.16051  1.0000
  Mn  Mn3       1.0  0.9998600000000001  0.49985  2e-05  1.0000
  Mn  Mn4       1.0  0.0001199999999999694  1.0000000000003411e-05  0.99995  1.0000
  H   H1        1.0  0.45133000000000006  0.3167300000000001  0.29504  1.0000
  H   H2        1.0  0.7668399999999999  0.59679  0.59391  1.0000
  H   H3        1.0  0.6133900000000001  0.46301  0.16412  1.0000
  H   H4        1.0  0.15905000000000002  0.52259  0.14814  1.0000
  H   H5        1.0  0.42198000000000013  0.8238100000000002  0.90473  1.0000
  H   H6        1.0  0.96225  0.13790000000000002  0.52459  1.0000
  H   H7        1.0  0.85888  0.54892  0.32398  1.0000
  H   H8        1.0  0.8345600000000001  0.37470999999999993  0.71763  1.0000
  H   H9        1.0  0.5486800000000002  0.6832799999999999  0.70495  1.0000
  H   H10       1.0  0.23317000000000002  0.40321  0.40609  1.0000
  H   H11       1.0  0.3866  0.5369999999999999  0.83589  1.0000
  H   H12       1.0  0.84095  0.47741  0.8518299999999999  1.0000
  H   H13       1.0  0.5780199999999999  0.17619  0.09526  1.0000
  H   H14       1.0  0.0377599999999999  0.8621100000000003  0.47540999999999994  1.0000
  H   H15       1.0  0.14112000000000008  0.45108999999999994  0.67601  1.0000
  H   H16       1.0  0.16545999999999994  0.6253  0.28236  1.0000
  C   C1        1.0  0.6809799999999998  0.6834700000000001  0.9788800000000001  1.0000
  C   C2        1.0  0.14787  0.7625400000000001  0.9641  1.0000
  C   C3        1.0  0.9147600000000001  0.12785000000000005  0.7507199999999999  1.0000
  C   C4        1.0  0.95856  0.33112  0.29297  1.0000
  C   C5        1.0  0.53184  0.64631  0.0286  1.0000
  C   C6        1.0  0.51762  0.52335  0.12548  1.0000
  C   C7        1.0  0.38247000000000003  0.4812600000000001  0.16955  1.0000
  C   C8        1.0  0.26299  0.55789  0.11475999999999999  1.0000
  C   C9        1.0  0.27701999999999993  0.68134  0.01952  1.0000
  C   C10       1.0  0.4107600000000001  0.7275700000000002  0.97771  1.0000
  C   C11       1.0  0.8991700000000002  0.24530999999999997  0.6328  1.0000
  C   C12       1.0  0.9282899999999998  0.23214  0.52342  1.0000
  C   C13       1.0  0.9166800000000002  0.34239  0.41179  1.0000
  C   C14       1.0  0.8694500000000002  0.46385  0.41054  1.0000
  C   C15       1.0  0.83667  0.47630000000000006  0.52072  1.0000
  C   C16       1.0  0.8554100000000001  0.3669299999999999  0.63165  1.0000
  C   C17       1.0  0.31899000000000005  0.31655  0.02111  1.0000
  C   C18       1.0  0.8521500000000001  0.23746000000000003  0.03588  1.0000
  C   C19       1.0  0.08527999999999997  0.87216  0.24927  1.0000
  C   C20       1.0  0.04143  0.66888  0.70704  1.0000
  C   C21       1.0  0.46813999999999995  0.3536999999999999  0.9714000000000002  1.0000
  C   C22       1.0  0.48237000000000035  0.47666  0.87452  1.0000
  C   C23       1.0  0.6175200000000001  0.5187400000000001  0.8304499999999999  1.0000
  C   C24       1.0  0.73701  0.44211  0.88524  1.0000
  C   C25       1.0  0.7229799999999997  0.31866  0.9804800000000001  1.0000
  C   C26       1.0  0.5892400000000001  0.27243  0.02229  1.0000
  C   C27       1.0  0.10084999999999997  0.7547  0.3672  1.0000
  C   C28       1.0  0.07172  0.7678600000000001  0.47657999999999995  1.0000
  C   C29       1.0  0.08332999999999989  0.6576200000000002  0.58821  1.0000
  C   C30       1.0  0.13054999999999997  0.5361600000000001  0.58945  1.0000
  C   C31       1.0  0.16334000000000018  0.52371  0.47928  1.0000
  C   C32       1.0  0.14460000000000006  0.63308  0.36835  1.0000
  O   O1        1.0  0.6953099999999999  0.8010700000000002  0.9063999999999999  1.0000
  O   O2        1.0  0.78763  0.59363  0.01154  1.0000
  O   O3        1.0  0.13689  0.88475  0.91572  1.0000
  O   O4        1.0  0.04895999999999993  0.7078200000000001  0.96549  1.0000
  O   O5        1.0  0.89583  0.023810000000000064  0.7573199999999999  1.0000
  O   O6        1.0  0.9436099999999998  0.13809000000000005  0.83875  1.0000
  O   O7        1.0  0.98972  0.21746000000000004  0.29941  1.0000
  O   O8        1.0  0.96303  0.43448  0.19264  1.0000
  O   O9        1.0  0.3589200000000001  0.36351000000000006  0.26861  1.0000
  O   O10       1.0  0.7908399999999999  0.5976400000000002  0.51228  1.0000
  O   O11       1.0  0.3047  0.19894  0.09359  1.0000
  O   O12       1.0  0.21233000000000005  0.40638  0.9884899999999999  1.0000
  O   O13       1.0  0.8632200000000001  0.11526  0.08422  1.0000
  O   O14       1.0  0.95104  0.29221  0.03452  1.0000
  O   O15       1.0  0.10419000000000005  0.97619  0.24270999999999998  1.0000
  O   O16       1.0  0.05645000000000003  0.86194  0.16123  1.0000
  O   O17       1.0  0.010270000000000036  0.7825199999999999  0.70061  1.0000
  O   O18       1.0  0.03694000000000001  0.5655  0.80736  1.0000
  O   O19       1.0  0.6410800000000002  0.63649  0.7314  1.0000
  O   O20       1.0  0.20916999999999994  0.40237  0.48772  1.0000
