data_image0
_chemical_formula_structural       Dy2H14C26N4O12
_chemical_formula_sum              "Dy2 H14 C26 N4 O12"
_cell_length_a       9.17854
_cell_length_b       9.26203
_cell_length_c       11.85166
_cell_angle_alpha    107.17162
_cell_angle_beta     95.50114
_cell_angle_gamma    105.93491000000002

_symmetry_space_group_name_H-M    'P 1'
_symmetry_Int_Tables_number       1

loop_
  _symmetry_equiv_pos_as_xyz
  'x,y,z'

loop_
  _atom_site_type_symbol
  _atom_site_label
  _atom_site_symmetry_multiplicity
  _atom_site_fract_x
  _atom_site_fract_y
  _atom_site_fract_z
  _atom_site_occupancy
  Dy  Dy1       1.0  0.27443  0.51404  0.96059  1.0000
  Dy  Dy2       1.0  0.7255  0.48596  0.03934  1.0000
  H   H1        1.0  0.36810000000000004  0.9426400000000001  0.03586000000000001  1.0000
  H   H2        1.0  0.8870199999999999  0.9320200000000001  0.18566  1.0000
  H   H3        1.0  0.18079000000000003  0.01441  0.35449  1.0000
  H   H4        1.0  0.9549800000000002  0.41553  0.5812700000000001  1.0000
  H   H5        1.0  0.28012  0.15848000000000007  0.5746600000000001  1.0000
  H   H6        1.0  0.8598299999999999  0.27818  0.36012  1.0000
  H   H7        1.0  0.8901399999999999  0.11928000000000002  0.17222000000000004  1.0000
  H   H8        1.0  0.63135  0.05717999999999997  0.9639  1.0000
  H   H9        1.0  0.11240999999999998  0.068  0.81457  1.0000
  H   H10       1.0  0.81906  0.9857000000000001  0.64559  1.0000
  H   H11       1.0  0.04505  0.58474  0.41893  1.0000
  H   H12       1.0  0.7198  0.8417  0.42533000000000004  1.0000
  H   H13       1.0  0.13997  0.72211  0.64019  1.0000
  H   H14       1.0  0.1093700000000001  0.88069  0.82799  1.0000
  C   C1        1.0  0.29002  0.0033300000000000057  0.07482000000000001  1.0000
  C   C2        1.0  0.14992999999999992  0.9345399999999999  0.10304  1.0000
  C   C3        1.0  0.07185  0.76342  0.07846  1.0000
  C   C4        1.0  0.42496  0.28586  0.07705000000000001  1.0000
  C   C5        1.0  0.94944  0.24909  0.40735000000000005  1.0000
  C   C6        1.0  0.30179000000000006  0.16505000000000003  0.10017  1.0000
  C   C7        1.0  0.01387  0.13715  0.34294  1.0000
  C   C8        1.0  0.0033100000000000074  0.32744  0.53069  1.0000
  C   C9        1.0  0.12443000000000004  0.29624000000000006  0.59038  1.0000
  C   C10       1.0  0.18724  0.38446  0.72006  1.0000
  C   C11       1.0  0.9579699999999999  0.05678000000000001  0.20845000000000002  1.0000
  C   C12       1.0  0.13120000000000004  0.10215  0.40391000000000005  1.0000
  C   C13       1.0  0.18711999999999998  0.18184999999999996  0.52654  1.0000
  C   C14       1.0  0.7095999999999999  0.99667  0.92508  1.0000
  C   C15       1.0  0.8497200000000001  0.06537000000000007  0.8968800000000001  1.0000
  C   C16       1.0  0.9280499999999999  0.23650000000000015  0.9215500000000002  1.0000
  C   C17       1.0  0.5744700000000001  0.7143400000000001  0.9228800000000001  1.0000
  C   C18       1.0  0.05039000000000003  0.75109  0.59283  1.0000
  C   C19       1.0  0.6977  0.8349400000000002  0.8997000000000003  1.0000
  C   C20       1.0  0.9858500000000001  0.86293  0.65717  1.0000
  C   C21       1.0  0.99663  0.67275  0.4694800000000001  1.0000
  C   C22       1.0  0.87552  0.7038300000000002  0.40967000000000003  1.0000
  C   C23       1.0  0.8128000000000001  0.6154000000000001  0.27992  1.0000
  C   C24       1.0  0.04162  0.94318  0.7916500000000001  1.0000
  C   C25       1.0  0.86859  0.89794  0.59612  1.0000
  C   C26       1.0  0.81275  0.81823  0.4734600000000001  1.0000
  N   N1        1.0  0.08815  0.05684000000000001  0.14518000000000003  1.0000
  N   N2        1.0  0.17931  0.19697  0.14485000000000003  1.0000
  N   N3        1.0  0.9113699999999996  0.9430099999999999  0.85477  1.0000
  N   N4        1.0  0.8201599999999998  0.80288  0.85506  1.0000
  O   O1        1.0  0.15748  0.6735  0.06472  1.0000
  O   O2        1.0  0.13383000000000003  0.49345000000000006  0.77814  1.0000
  O   O3        1.0  0.40616  0.41754  0.07272  1.0000
  O   O4        1.0  0.92691  0.7148  0.07003  1.0000
  O   O5        1.0  0.55056  0.25745  0.05927  1.0000
  O   O6        1.0  0.29405  0.35023  0.77556  1.0000
  O   O7        1.0  0.84249  0.3265100000000001  0.9350800000000001  1.0000
  O   O8        1.0  0.8662999999999998  0.50655  0.22180000000000005  1.0000
  O   O9        1.0  0.59333  0.58272  0.92736  1.0000
  O   O10       1.0  0.07305000000000009  0.2850100000000002  0.9303900000000003  1.0000
  O   O11       1.0  0.4488800000000002  0.74284  0.9405900000000003  1.0000
  O   O12       1.0  0.7057000000000001  0.64929  0.22445000000000004  1.0000
