data_image0
_chemical_formula_structural       Cd8H12C36Br4O24
_chemical_formula_sum              "Cd8 H12 C36 Br4 O24"
_cell_length_a       13.78622
_cell_length_b       15.35315
_cell_length_c       16.0593
_cell_angle_alpha    90.01357999999999
_cell_angle_beta     90.17807
_cell_angle_gamma    90.14962999999999

_symmetry_space_group_name_H-M    'P 1'
_symmetry_Int_Tables_number       1

loop_
  _symmetry_equiv_pos_as_xyz
  'x,y,z'

loop_
  _atom_site_type_symbol
  _atom_site_label
  _atom_site_symmetry_multiplicity
  _atom_site_fract_x
  _atom_site_fract_y
  _atom_site_fract_z
  _atom_site_occupancy
  Cd  Cd1       1.0  0.23907000000000003  0.21568  0.22632  1.0000
  Cd  Cd2       1.0  0.3879200000000001  0.10410000000000003  0.11487  1.0000
  Cd  Cd3       1.0  0.26175  0.7860500000000002  0.7263799999999998  1.0000
  Cd  Cd4       1.0  0.11234  0.8964700000000002  0.6141899999999998  1.0000
  Cd  Cd5       1.0  0.75981  0.7167500000000002  0.27726  1.0000
  Cd  Cd6       1.0  0.61364  0.6013600000000002  0.3870899999999999  1.0000
  Cd  Cd7       1.0  0.7398900000000002  0.28399  0.77656  1.0000
  Cd  Cd8       1.0  0.88778  0.3972500000000001  0.88742  1.0000
  H   H1        1.0  0.19881  0.9671200000000002  0.9280899999999997  1.0000
  H   H2        1.0  0.95312  0.06484  0.7907899999999998  1.0000
  H   H3        1.0  0.04161  0.18954  0.01907  1.0000
  H   H4        1.0  0.30081  0.03369  0.42688  1.0000
  H   H5        1.0  0.54538  0.9346800000000002  0.29025  1.0000
  H   H6        1.0  0.45554  0.80955  0.5176  1.0000
  H   H7        1.0  0.80239  0.46591  0.57499  1.0000
  H   H8        1.0  0.04913  0.5654  0.7106799999999998  1.0000
  H   H9        1.0  0.9591000000000002  0.68827  0.48208  1.0000
  H   H10       1.0  0.7001400000000002  0.53198  0.07635  1.0000
  H   H11       1.0  0.45123  0.4347400000000001  0.20957  1.0000
  H   H12       1.0  0.54181  0.31042  0.9825899999999997  1.0000
  C   C1        1.0  0.19877000000000006  0.08985000000000003  0.05006  1.0000
  C   C2        1.0  0.12475  0.0771  0.98298  1.0000
  C   C3        1.0  0.13811  0.01189  0.9229999999999998  1.0000
  C   C4        1.0  0.07570000000000002  0.007060000000000002  0.8542699999999998  1.0000
  C   C5        1.0  0.9997800000000001  0.06707  0.84543  1.0000
  C   C6        1.0  0.9874200000000002  0.13289  0.90473  1.0000
  C   C7        1.0  0.04943  0.13727  0.97396  1.0000
  C   C8        1.0  0.9179400000000002  0.20566  0.8882  1.0000
  C   C9        1.0  0.09826  0.94587  0.78465  1.0000
  C   C10       1.0  0.30101  0.91182  0.54966  1.0000
  C   C11       1.0  0.37414  0.92331  0.48191  1.0000
  C   C12       1.0  0.36107000000000006  0.9884900000000002  0.4218  1.0000
  C   C13       1.0  0.42331  0.99322  0.35326  1.0000
  C   C14       1.0  0.4985600000000001  0.93256  0.34452  1.0000
  C   C15       1.0  0.50998  0.8660700000000002  0.40334  1.0000
  C   C16       1.0  0.44834  0.8620000000000002  0.4725499999999999  1.0000
  C   C17       1.0  0.57937  0.7932  0.38658  1.0000
  C   C18       1.0  0.40155000000000013  0.05517000000000001  0.28398  1.0000
  C   C19       1.0  0.80252  0.58792  0.45183  1.0000
  C   C20       1.0  0.8765100000000001  0.5755300000000001  0.51901  1.0000
  C   C21       1.0  0.86332  0.51079  0.57952  1.0000
  C   C22       1.0  0.92607  0.50674  0.64814  1.0000
  C   C23       1.0  0.00222  0.56702  0.6561799999999998  1.0000
  C   C24       1.0  0.01415  0.63253  0.59644  1.0000
  C   C25       1.0  0.95183  0.6361700000000002  0.52744  1.0000
  C   C26       1.0  0.08319000000000001  0.7061300000000003  0.61232  1.0000
  C   C27       1.0  0.9038500000000003  0.44601000000000013  0.71834  1.0000
  C   C28       1.0  0.6995400000000003  0.4101500000000001  0.95353  1.0000
  C   C29       1.0  0.62542  0.42278  0.02013  1.0000
  C   C30       1.0  0.6386100000000002  0.48776  0.08056  1.0000
  C   C31       1.0  0.57528  0.4928400000000001  0.14837  1.0000
  C   C32       1.0  0.49878  0.43287  0.15574  1.0000
  C   C33       1.0  0.48682000000000003  0.36717  0.09626  1.0000
  C   C34       1.0  0.54949  0.36269000000000007  0.0278  1.0000
  C   C35       1.0  0.41756  0.29396  0.11221  1.0000
  C   C36       1.0  0.5964  0.5535900000000002  0.21892  1.0000
  Br  Br1       1.0  0.10745  0.27553  0.31338  1.0000
  Br  Br2       1.0  0.39505  0.72697  0.81286  1.0000
  Br  Br3       1.0  0.89238  0.7782500000000002  0.19181999999999994  1.0000
  Br  Br4       1.0  0.6088700000000001  0.22301000000000007  0.6881699999999997  1.0000
  O   O1        1.0  0.18634000000000003  0.15013000000000007  0.10322  1.0000
  O   O2        1.0  0.27426  0.0404  0.04585  1.0000
  O   O3        1.0  0.9246800000000002  0.27149  0.9375899999999998  1.0000
  O   O4        1.0  0.86179  0.19956  0.82543  1.0000
  O   O5        1.0  0.04249  0.95211  0.72007  1.0000
  O   O6        1.0  0.17133  0.8962500000000002  0.79078  1.0000
  O   O7        1.0  0.3142300000000001  0.8525800000000002  0.60374  1.0000
  O   O8        1.0  0.22537  0.96101  0.54541  1.0000
  O   O9        1.0  0.57113  0.72673  0.4347799999999999  1.0000
  O   O10       1.0  0.63716  0.8003200000000003  0.32535  1.0000
  O   O11       1.0  0.46177000000000007  0.054960000000000016  0.22235  1.0000
  O   O12       1.0  0.32411000000000006  0.09966  0.2870399999999999  1.0000
  O   O13       1.0  0.8139800000000001  0.6495000000000002  0.39999  1.0000
  O   O14       1.0  0.72792  0.53697  0.4544  1.0000
  O   O15       1.0  0.07581  0.7713000000000001  0.56232  1.0000
  O   O16       1.0  0.13918  0.70155  0.6751599999999998  1.0000
  O   O17       1.0  0.96153  0.4505300000000001  0.7819399999999997  1.0000
  O   O18       1.0  0.82873  0.39821  0.7138699999999998  1.0000
  O   O19       1.0  0.68612  0.35066  0.89966  1.0000
  O   O20       1.0  0.77578  0.4589100000000001  0.9584699999999998  1.0000
  O   O21       1.0  0.42442  0.22881  0.06223  1.0000
  O   O22       1.0  0.36188  0.29861  0.17508  1.0000
  O   O23       1.0  0.53755  0.54932  0.2812  1.0000
  O   O24       1.0  0.67193  0.60122  0.21673999999999993  1.0000
