data_image0
_chemical_formula_structural       Zn8P12H28C12O36
_chemical_formula_sum              "Zn8 P12 H28 C12 O36"
_cell_length_a       8.72346
_cell_length_b       9.83173
_cell_length_c       17.68065
_cell_angle_alpha    90.0
_cell_angle_beta     90.0
_cell_angle_gamma    108.94401

_space_group_name_H-M_alt    "P 1"
_space_group_IT_number       1

loop_
  _space_group_symop_operation_xyz
  'x, y, z'

loop_
  _atom_site_type_symbol
  _atom_site_label
  _atom_site_symmetry_multiplicity
  _atom_site_fract_x
  _atom_site_fract_y
  _atom_site_fract_z
  _atom_site_occupancy
  Zn  Zn1       1.0  0.89856  0.0886  0.83511  1.0000
  Zn  Zn2       1.0  0.89744  0.1979  0.16111  1.0000
  Zn  Zn3       1.0  0.10143999999999999  0.4114  0.33511  1.0000
  Zn  Zn4       1.0  0.10256  0.3021  0.66111  1.0000
  Zn  Zn5       1.0  0.10145000000000001  0.9114  0.16489  1.0000
  Zn  Zn6       1.0  0.10257000000000001  0.80211  0.83889  1.0000
  Zn  Zn7       1.0  0.89856  0.58861  0.66489  1.0000
  Zn  Zn8       1.0  0.89744  0.6979  0.33889  1.0000
  P   P1        1.0  0.75661  0.0084  0.00441  1.0000
  P   P2        1.0  0.23333  0.09987  0.7585199999999999  1.0000
  P   P3        1.0  0.76716  0.28753  0.7383299999999998  1.0000
  P   P4        1.0  0.24338999999999997  0.4916  0.50441  1.0000
  P   P5        1.0  0.76667  0.40013  0.25852  1.0000
  P   P6        1.0  0.23284  0.21247  0.23833  1.0000
  P   P7        1.0  0.24338999999999997  0.99161  0.9955999999999999  1.0000
  P   P8        1.0  0.76667  0.9001400000000002  0.24148  1.0000
  P   P9        1.0  0.23284  0.71247  0.26167  1.0000
  P   P10       1.0  0.75661  0.5084  0.49559  1.0000
  P   P11       1.0  0.23333  0.59987  0.74149  1.0000
  P   P12       1.0  0.76716  0.78753  0.76167  1.0000
  H   H1        1.0  0.78429  0.85302  0.08883  1.0000
  H   H2        1.0  0.58466  0.10499  0.93584  1.0000
  H   H3        1.0  0.51821  0.91423  0.92897  1.0000
  H   H4        1.0  0.44359000000000004  0.32152  0.77442  1.0000
  H   H5        1.0  0.47327  0.18558  0.83262  1.0000
  H   H6        1.0  0.53232  0.21206  0.6592499999999999  1.0000
  H   H7        1.0  0.5542  0.07078  0.7154  1.0000
  H   H8        1.0  0.21572  0.64699  0.58883  1.0000
  H   H9        1.0  0.41534  0.39501  0.43584  1.0000
  H   H10       1.0  0.48180000000000006  0.58577  0.42897  1.0000
  H   H11       1.0  0.55641  0.17848  0.27442  1.0000
  H   H12       1.0  0.52673  0.31442  0.33261999999999997  1.0000
  H   H13       1.0  0.46768  0.28794  0.15924999999999997  1.0000
  H   H14       1.0  0.4458  0.42922  0.21538999999999994  1.0000
  H   H15       1.0  0.21572  0.14699  0.9111700000000001  1.0000
  H   H16       1.0  0.41534000000000004  0.8950100000000001  0.06416  1.0000
  H   H17       1.0  0.48179  0.08577  0.07103  1.0000
  H   H18       1.0  0.55641  0.67848  0.22558  1.0000
  H   H19       1.0  0.52674  0.81442  0.16737999999999997  1.0000
  H   H20       1.0  0.46768999999999994  0.78794  0.34074999999999994  1.0000
  H   H21       1.0  0.44581  0.92923  0.28461  1.0000
  H   H22       1.0  0.78429  0.35302000000000006  0.41117  1.0000
  H   H23       1.0  0.58466  0.605  0.56416  1.0000
  H   H24       1.0  0.51821  0.41423  0.57103  1.0000
  H   H25       1.0  0.4436  0.82152  0.72558  1.0000
  H   H26       1.0  0.47327  0.68559  0.66738  1.0000
  H   H27       1.0  0.53232  0.71207  0.84076  1.0000
  H   H28       1.0  0.5542  0.57078  0.78461  1.0000
  C   C1        1.0  0.56193  0.00514  0.9684099999999999  1.0000
  C   C2        1.0  0.44158  0.20916  0.7749599999999998  1.0000
  C   C3        1.0  0.55926  0.18385  0.71679  1.0000
  C   C4        1.0  0.43807  0.49487  0.46840999999999994  1.0000
  C   C5        1.0  0.55842  0.29085  0.27496  1.0000
  C   C6        1.0  0.4407499999999999  0.31615  0.21679  1.0000
  C   C7        1.0  0.43807  0.9948700000000001  0.03159  1.0000
  C   C8        1.0  0.55842  0.79085  0.22505  1.0000
  C   C9        1.0  0.4407499999999999  0.81615  0.28321  1.0000
  C   C10       1.0  0.56193  0.50514  0.53159  1.0000
  C   C11       1.0  0.44159  0.70916  0.72505  1.0000
  C   C12       1.0  0.55926  0.68385  0.78321  1.0000
  O   O1        1.0  0.71983  0.85376  0.04157  1.0000
  O   O2        1.0  0.81018  0.12763  0.06359  1.0000
  O   O3        1.0  0.87715  0.026560000000000004  0.93929  1.0000
  O   O4        1.0  0.17459  0.13806  0.68198  1.0000
  O   O5        1.0  0.13542  0.1339  0.82622  1.0000
  O   O6        1.0  0.22076000000000004  0.9393900000000001  0.75965  1.0000
  O   O7        1.0  0.87124  0.258  0.67362  1.0000
  O   O8        1.0  0.81037  0.24240999999999996  0.81736  1.0000
  O   O9        1.0  0.78088  0.44875  0.74188  1.0000
  O   O10       1.0  0.28017  0.64625  0.54157  1.0000
  O   O11       1.0  0.18982  0.37238  0.56359  1.0000
  O   O12       1.0  0.12285  0.47344  0.43929  1.0000
  O   O13       1.0  0.82541  0.36194  0.18198  1.0000
  O   O14       1.0  0.86458  0.3661  0.32622  1.0000
  O   O15       1.0  0.77924  0.56061  0.25965  1.0000
  O   O16       1.0  0.12876  0.242  0.17362  1.0000
  O   O17       1.0  0.18963  0.25759  0.31736  1.0000
  O   O18       1.0  0.21912  0.05125  0.24188  1.0000
  O   O19       1.0  0.28017  0.14625  0.9584299999999999  1.0000
  O   O20       1.0  0.18981999999999993  0.87238  0.93641  1.0000
  O   O21       1.0  0.12285000000000006  0.9734400000000001  0.06071  1.0000
  O   O22       1.0  0.82541  0.8619500000000001  0.31802  1.0000
  O   O23       1.0  0.86458  0.8661  0.17378  1.0000
  O   O24       1.0  0.77924  0.06061  0.24035  1.0000
  O   O25       1.0  0.12875999999999996  0.742  0.32638  1.0000
  O   O26       1.0  0.18963000000000005  0.75759  0.18265  1.0000
  O   O27       1.0  0.21912  0.55125  0.25812  1.0000
  O   O28       1.0  0.71983  0.35376  0.45842999999999995  1.0000
  O   O29       1.0  0.81019  0.62763  0.43641  1.0000
  O   O30       1.0  0.87716  0.52656  0.56071  1.0000
  O   O31       1.0  0.17460000000000003  0.63806  0.81802  1.0000
  O   O32       1.0  0.13542000000000004  0.63391  0.67378  1.0000
  O   O33       1.0  0.22076  0.43939000000000006  0.74035  1.0000
  O   O34       1.0  0.87124  0.758  0.82638  1.0000
  O   O35       1.0  0.81037  0.74241  0.6826499999999998  1.0000
  O   O36       1.0  0.78088  0.94875  0.7581199999999999  1.0000
