data_image0
_chemical_formula_structural       Zn3H24C38N12O8
_chemical_formula_sum              "Zn3 H24 C38 N12 O8"
_cell_length_a       11.56177
_cell_length_b       11.70971
_cell_length_c       11.898150000000001
_cell_angle_alpha    64.27111
_cell_angle_beta     81.2297
_cell_angle_gamma    72.4906

_space_group_name_H-M_alt    "P 1"
_space_group_IT_number       1

loop_
  _space_group_symop_operation_xyz
  'x, y, z'

loop_
  _atom_site_type_symbol
  _atom_site_label
  _atom_site_symmetry_multiplicity
  _atom_site_fract_x
  _atom_site_fract_y
  _atom_site_fract_z
  _atom_site_occupancy
  Zn  Zn1       1.0  0.0  3.9767386635009696e-17  0.4999999999999999  1.0000
  Zn  Zn2       1.0  1.9205070237950705e-17  0.5  0.4999999999999999  1.0000
  Zn  Zn3       1.0  0.0  0.0  0.0  1.0000
  H   H1        1.0  0.78852  0.98232  0.6951199999999998  1.0000
  H   H2        1.0  0.63791  0.416  0.35661  1.0000
  H   H3        1.0  0.5730000000000001  0.10770000000000003  0.7090099999999999  1.0000
  H   H4        1.0  0.19779000000000008  0.3689499999999999  0.71098  1.0000
  H   H5        1.0  0.8486999999999999  0.27395  0.35626999999999986  1.0000
  H   H6        1.0  0.4217099999999999  0.2651700000000001  0.7295599999999999  1.0000
  H   H7        1.0  0.44775  0.43945000000000006  0.32687999999999995  1.0000
  H   H8        1.0  0.22333000000000003  0.5376  0.32654  1.0000
  H   H9        1.0  0.52971  0.2095100000000001  0.9505599999999998  1.0000
  H   H10       1.0  0.85612  0.80376  0.03133999999999999  1.0000
  H   H11       1.0  0.64345  0.79261  0.037899999999999996  1.0000
  H   H12       1.0  0.7482600000000001  0.20052000000000011  0.9462699999999997  1.0000
  H   H13       1.0  0.21148000000000003  0.017670000000000016  0.30487999999999993  1.0000
  H   H14       1.0  0.36209  0.584  0.64339  1.0000
  H   H15       1.0  0.42700000000000005  0.8922999999999999  0.29099  1.0000
  H   H16       1.0  0.8022100000000001  0.63105  0.28902  1.0000
  H   H17       1.0  0.15130000000000002  0.7260499999999999  0.64374  1.0000
  H   H18       1.0  0.57829  0.7348199999999999  0.27044  1.0000
  H   H19       1.0  0.5522499999999999  0.5605400000000001  0.67312  1.0000
  H   H20       1.0  0.77667  0.46240000000000003  0.6734599999999997  1.0000
  H   H21       1.0  0.47029  0.7904799999999998  0.04944  1.0000
  H   H22       1.0  0.14387999999999998  0.19624000000000008  0.9686599999999997  1.0000
  H   H23       1.0  0.3565499999999999  0.2073800000000001  0.9620999999999997  1.0000
  H   H24       1.0  0.25174000000000013  0.79948  0.05373  1.0000
  C   C1        1.0  0.75039  0.07919  0.623  1.0000
  C   C2        1.0  0.023070000000000014  0.22080000000000002  0.6194899999999999  1.0000
  C   C3        1.0  0.04032000000000006  0.9657499999999998  0.76921  1.0000
  C   C4        1.0  0.4551299999999999  0.34316  0.5288999999999999  1.0000
  C   C5        1.0  0.66608  0.31994000000000006  0.43315999999999993  1.0000
  C   C6        1.0  0.63094  0.15012000000000003  0.6299699999999999  1.0000
  C   C7        1.0  0.25777  0.38339  0.62868  1.0000
  C   C8        1.0  0.051609999999999996  0.24849000000000004  0.48470999999999986  1.0000
  C   C9        1.0  0.018790000000000005  0.11008000000000008  0.7305399999999999  1.0000
  C   C10       1.0  0.58523  0.27257000000000003  0.5318899999999999  1.0000
  C   C11       1.0  0.78409  0.24297000000000005  0.43271999999999994  1.0000
  C   C12       1.0  0.38228000000000006  0.32551  0.63801  1.0000
  C   C13       1.0  0.39693  0.42395  0.41469  1.0000
  C   C14       1.0  0.27195  0.47821  0.4135499999999999  1.0000
  C   C15       1.0  0.5645299999999998  0.0005500000000000993  0.9969499999999998  1.0000
  C   C16       1.0  0.59751  0.11639000000000001  0.96937  1.0000
  C   C17       1.0  0.77979  0.89067  0.014219999999999998  1.0000
  C   C18       1.0  0.66018  0.88607  0.0182  1.0000
  C   C19       1.0  0.7193199999999998  0.11296000000000003  0.9666199999999998  1.0000
  C   C20       1.0  0.24960999999999997  0.9208100000000001  0.37699999999999995  1.0000
  C   C21       1.0  0.97693  0.7791999999999999  0.38051  1.0000
  C   C22       1.0  0.95968  0.034240000000000034  0.23078999999999994  1.0000
  C   C23       1.0  0.5448700000000001  0.65683  0.47109999999999996  1.0000
  C   C24       1.0  0.33392000000000005  0.68006  0.56684  1.0000
  C   C25       1.0  0.36906000000000005  0.84988  0.37002999999999997  1.0000
  C   C26       1.0  0.7422299999999998  0.61661  0.37132  1.0000
  C   C27       1.0  0.9483900000000001  0.7515  0.51529  1.0000
  C   C28       1.0  0.98121  0.88991  0.2694599999999999  1.0000
  C   C29       1.0  0.4147699999999997  0.72742  0.46811  1.0000
  C   C30       1.0  0.2159100000000001  0.7570199999999999  0.56728  1.0000
  C   C31       1.0  0.61772  0.6744800000000001  0.36199  1.0000
  C   C32       1.0  0.6030699999999999  0.57604  0.58531  1.0000
  C   C33       1.0  0.7280499999999999  0.52179  0.58645  1.0000
  C   C34       1.0  0.43547  0.99945  0.00305  1.0000
  C   C35       1.0  0.40249  0.8836  0.030639999999999994  1.0000
  C   C36       1.0  0.22021  0.10932000000000001  0.98578  1.0000
  C   C37       1.0  0.33982  0.11393000000000006  0.9817999999999999  1.0000
  C   C38       1.0  0.28068000000000004  0.88703  0.03337999999999999  1.0000
  N   N1        1.0  0.9970799999999999  0.32393  0.6522999999999998  1.0000
  N   N2        1.0  0.82518  0.12365000000000004  0.5252299999999999  1.0000
  N   N3        1.0  0.20274  0.45749000000000006  0.5185699999999999  1.0000
  N   N4        1.0  0.97668  0.28344999999999987  0.77564  1.0000
  N   N5        1.0  0.9899300000000002  0.15382999999999997  0.82301  1.0000
  N   N6        1.0  0.8088899999999999  0.00210000000000009  0.9897499999999998  1.0000
  N   N7        1.0  0.002919999999999949  0.6760600000000001  0.3477  1.0000
  N   N8        1.0  0.17482000000000003  0.87635  0.47477  1.0000
  N   N9        1.0  0.7972599999999997  0.5425100000000002  0.48143  1.0000
  N   N10       1.0  0.023320000000000007  0.71654  0.22435999999999998  1.0000
  N   N11       1.0  0.010070000000000004  0.84616  0.17698999999999998  1.0000
  N   N12       1.0  0.19110999999999997  0.9979  0.01025  1.0000
  O   O1        1.0  0.08059000000000001  0.15529  0.44971  1.0000
  O   O2        1.0  0.04588  0.36834  0.41129  1.0000
  O   O3        1.0  0.04585999999999998  0.9197300000000002  0.6893699999999998  1.0000
  O   O4        1.0  0.051570000000000005  0.8940200000000001  0.8864699999999998  1.0000
  O   O5        1.0  0.91941  0.84471  0.55029  1.0000
  O   O6        1.0  0.9541200000000001  0.6316499999999999  0.58871  1.0000
  O   O7        1.0  0.95414  0.08027000000000001  0.31063  1.0000
  O   O8        1.0  0.94843  0.10596999999999998  0.11352999999999999  1.0000
