data_image0
_chemical_formula_structural       Cd4H16C36N2O26
_chemical_formula_sum              "Cd4 H16 C36 N2 O26"
_cell_length_a       9.24541
_cell_length_b       9.599659999999998
_cell_length_c       18.77398
_cell_angle_alpha    83.13309
_cell_angle_beta     79.92847999999998
_cell_angle_gamma    71.3427

_space_group_name_H-M_alt    "P 1"
_space_group_IT_number       1

loop_
  _space_group_symop_operation_xyz
  'x, y, z'

loop_
  _atom_site_type_symbol
  _atom_site_label
  _atom_site_symmetry_multiplicity
  _atom_site_fract_x
  _atom_site_fract_y
  _atom_site_fract_z
  _atom_site_occupancy
  Cd  Cd1       1.0  0.20864999999999992  0.8149600000000002  0.10664  1.0000
  Cd  Cd2       1.0  0.09799999999999999  0.7625600000000001  0.43552  1.0000
  Cd  Cd3       1.0  0.7913400000000002  0.18504000000000004  0.89337  1.0000
  Cd  Cd4       1.0  0.9019900000000001  0.23744000000000007  0.56448  1.0000
  H   H1        1.0  0.21714999999999998  0.31756  0.13779  1.0000
  H   H2        1.0  0.9607600000000001  0.36006000000000005  0.99021  1.0000
  H   H3        1.0  0.9852000000000002  0.41218000000000005  0.07336  1.0000
  H   H4        1.0  0.5135299999999999  0.8820600000000001  0.0289  1.0000
  H   H5        1.0  0.7926700000000002  0.76111  0.9977000000000001  1.0000
  H   H6        1.0  0.4339399999999999  0.4846000000000001  0.10203  1.0000
  H   H7        1.0  0.7109100000000002  0.34532  0.07467000000000003  1.0000
  H   H8        1.0  0.20469000000000004  0.9403000000000001  0.49429  1.0000
  H   H9        1.0  0.7828399999999999  0.68244  0.8622100000000001  1.0000
  H   H10       1.0  0.039239999999999935  0.6399400000000002  0.00979  1.0000
  H   H11       1.0  0.014789999999999989  0.58782  0.9266400000000001  1.0000
  H   H12       1.0  0.48646000000000006  0.11793999999999999  0.9711  1.0000
  H   H13       1.0  0.2073200000000001  0.23889000000000002  0.00231  1.0000
  H   H14       1.0  0.5660500000000002  0.5154  0.89797  1.0000
  H   H15       1.0  0.28908  0.65468  0.9253400000000002  1.0000
  H   H16       1.0  0.7953100000000001  0.05970000000000002  0.50571  1.0000
  C   C1        1.0  0.15497000000000008  0.15212  0.30767  1.0000
  C   C2        1.0  0.18452000000000002  0.17007000000000005  0.23074000000000003  1.0000
  C   C3        1.0  0.19469000000000006  0.30469  0.19667  1.0000
  C   C4        1.0  0.1744100000000001  0.42371  0.23729000000000003  1.0000
  C   C5        1.0  0.14649  0.40703  0.31436  1.0000
  C   C6        1.0  0.13394  0.27133  0.34928  1.0000
  C   C7        1.0  0.13920000000000005  0.5289499999999999  0.3583600000000001  1.0000
  C   C8        1.0  0.19189999999999993  0.5628  0.19713000000000003  1.0000
  C   C9        1.0  0.15609999999999996  0.0020999999999999955  0.34245  1.0000
  C   C10       1.0  0.19810000000000003  0.04912  0.18455  1.0000
  C   C11       1.0  0.08948000000000002  0.25731  0.43015  1.0000
  C   C12       1.0  0.9481400000000002  0.45593  0.02024  1.0000
  C   C13       1.0  0.779  0.54058  0.03406  1.0000
  C   C14       1.0  0.56183  0.76329  0.03779  1.0000
  C   C15       1.0  0.7193599999999999  0.69332  0.02045  1.0000
  C   C16       1.0  0.51771  0.5414900000000001  0.07944  1.0000
  C   C17       1.0  0.67308  0.46451000000000003  0.06369  1.0000
  C   C18       1.0  0.92865  0.99026  0.02597  1.0000
  C   C19       1.0  0.8450199999999999  0.84788  0.69233  1.0000
  C   C20       1.0  0.8154799999999999  0.82993  0.76926  1.0000
  C   C21       1.0  0.80531  0.69531  0.80334  1.0000
  C   C22       1.0  0.8255799999999996  0.5763  0.7627100000000002  1.0000
  C   C23       1.0  0.8535100000000001  0.59297  0.68564  1.0000
  C   C24       1.0  0.86605  0.72867  0.65073  1.0000
  C   C25       1.0  0.8608  0.47105  0.64164  1.0000
  C   C26       1.0  0.8080900000000002  0.4372  0.80288  1.0000
  C   C27       1.0  0.8438899999999999  0.9979000000000001  0.65755  1.0000
  C   C28       1.0  0.8018899999999999  0.95088  0.81545  1.0000
  C   C29       1.0  0.9105200000000001  0.7427  0.56985  1.0000
  C   C30       1.0  0.051849999999999966  0.54407  0.97976  1.0000
  C   C31       1.0  0.2210000000000001  0.45943  0.96595  1.0000
  C   C32       1.0  0.43815999999999994  0.23670999999999998  0.9622100000000001  1.0000
  C   C33       1.0  0.28064000000000006  0.30668  0.9795500000000001  1.0000
  C   C34       1.0  0.48229000000000005  0.45852000000000004  0.92056  1.0000
  C   C35       1.0  0.32692  0.53549  0.93631  1.0000
  C   C36       1.0  0.07133999999999999  0.009740000000000004  0.97403  1.0000
  N   N1        1.0  0.4620099999999998  0.6891400000000001  0.06729000000000002  1.0000
  N   N2        1.0  0.5379800000000003  0.31085999999999997  0.93272  1.0000
  O   O1        1.0  0.22063000000000013  0.83339  0.50331  1.0000
  O   O2        1.0  0.7956600000000003  0.06269  0.0101  1.0000
  O   O3        1.0  0.021759999999999977  0.6449000000000001  0.35956  1.0000
  O   O4        1.0  0.2477699999999999  0.5145100000000001  0.39345  1.0000
  O   O5        1.0  0.97534  0.3617200000000001  0.4567800000000001  1.0000
  O   O6        1.0  0.14184000000000002  0.59714  0.13572  1.0000
  O   O7        1.0  0.26127000000000017  0.63468  0.22221000000000002  1.0000
  O   O8        1.0  0.02983999999999996  0.9927900000000001  0.38135  1.0000
  O   O9        1.0  0.2770100000000001  0.8971500000000001  0.33233  1.0000
  O   O10       1.0  0.10010999999999998  0.97919  0.19946  1.0000
  O   O11       1.0  0.30572  0.02496  0.13099  1.0000
  O   O12       1.0  0.9503900000000002  0.9029  0.08166  1.0000
  O   O13       1.0  0.15693  0.14502  0.46775  1.0000
  O   O14       1.0  0.7793700000000001  0.16660999999999998  0.4966900000000001  1.0000
  O   O15       1.0  0.20432999999999996  0.9373100000000002  0.9899  1.0000
  O   O16       1.0  0.97824  0.35510000000000014  0.64044  1.0000
  O   O17       1.0  0.7522299999999998  0.48550000000000004  0.6065500000000001  1.0000
  O   O18       1.0  0.02466000000000001  0.63828  0.54323  1.0000
  O   O19       1.0  0.85816  0.40286  0.86428  1.0000
  O   O20       1.0  0.7387300000000001  0.36532000000000003  0.77779  1.0000
  O   O21       1.0  0.9701600000000001  0.007210000000000004  0.61865  1.0000
  O   O22       1.0  0.7229900000000002  0.10285  0.6676700000000002  1.0000
  O   O23       1.0  0.8998800000000001  0.020809999999999995  0.80055  1.0000
  O   O24       1.0  0.6942699999999999  0.9750400000000001  0.8690100000000001  1.0000
  O   O25       1.0  0.04960000000000002  0.0971  0.91834  1.0000
  O   O26       1.0  0.84306  0.85499  0.53225  1.0000
