data_image0
_chemical_formula_structural       Sc2H32C40N8O10
_chemical_formula_sum              "Sc2 H32 C40 N8 O10"
_cell_length_a       4.24542
_cell_length_b       16.21923
_cell_length_c       16.16924
_cell_angle_alpha    87.70569
_cell_angle_beta     86.48618
_cell_angle_gamma    86.62960999999999

_symmetry_space_group_name_H-M    'P 1'
_symmetry_Int_Tables_number       1

loop_
  _symmetry_equiv_pos_as_xyz
  'x,y,z'

loop_
  _atom_site_type_symbol
  _atom_site_label
  _atom_site_symmetry_multiplicity
  _atom_site_fract_x
  _atom_site_fract_y
  _atom_site_fract_z
  _atom_site_occupancy
  Sc  Sc1       1.0  0.05662999999999996  0.9922399999999999  0.98122  1.0000
  Sc  Sc2       1.0  0.68593  0.52055  0.50941  1.0000
  H   H1        1.0  0.9894999999999999  0.26067  0.99626  1.0000
  H   H2        1.0  0.58761  0.37506  0.9632  1.0000
  H   H3        1.0  0.56776  0.09696  0.85183  1.0000
  H   H4        1.0  0.20184000000000002  0.21065  0.79814  1.0000
  H   H5        1.0  0.15318000000000007  0.70573  0.9884  1.0000
  H   H6        1.0  0.85132  0.5942199999999997  0.06287  1.0000
  H   H7        1.0  0.50808  0.89201  0.07144  1.0000
  H   H8        1.0  0.20709  0.78505  0.16065  1.0000
  H   H9        1.0  0.78243  0.0019799999999999996  0.2579  1.0000
  H   H10       1.0  0.010590000000000004  0.06427  0.37971  1.0000
  H   H11       1.0  0.40349  0.11666  0.09043  1.0000
  H   H12       1.0  0.64601  0.1873  0.2067  1.0000
  H   H13       1.0  0.09299999999999994  0.9938899999999999  0.70215  1.0000
  H   H14       1.0  0.5366699999999999  0.95356  0.60056  1.0000
  H   H15       1.0  0.5404899999999999  0.8708299999999999  0.89673  1.0000
  H   H16       1.0  0.9488799999999998  0.80613  0.79834  1.0000
  H   H17       1.0  0.75745  0.50331  0.23917  1.0000
  H   H18       1.0  0.15848  0.53554  0.124  1.0000
  H   H19       1.0  0.18341  0.64753  0.40216  1.0000
  H   H20       1.0  0.54944  0.70037  0.28774  1.0000
  H   H21       1.0  0.59322  0.50779  0.79477  1.0000
  H   H22       1.0  0.90445  0.43516  0.90554  1.0000
  H   H23       1.0  0.23329999999999992  0.42616  0.60602  1.0000
  H   H24       1.0  0.53731  0.33695  0.71206  1.0000
  H   H25       1.0  0.95757  0.23895000000000002  0.50103  1.0000
  H   H26       1.0  0.7295799999999998  0.11889999999999999  0.43619  1.0000
  H   H27       1.0  0.33882999999999985  0.40819  0.38935  1.0000
  H   H28       1.0  0.09623000000000002  0.29336  0.31562  1.0000
  H   H29       1.0  0.63455  0.79693  0.5072099999999998  1.0000
  H   H30       1.0  0.1905900000000001  0.89865  0.54594  1.0000
  H   H31       1.0  0.18305000000000002  0.60426  0.63278  1.0000
  H   H32       1.0  0.77344  0.70317  0.69576  1.0000
  C   C1        1.0  0.80787  0.25583  0.9528  1.0000
  C   C2        1.0  0.5876599999999998  0.31698  0.93212  1.0000
  C   C3        1.0  0.5628200000000001  0.15968999999999997  0.87313  1.0000
  C   C4        1.0  0.3692900000000001  0.22431  0.8431299999999998  1.0000
  C   C5        1.0  0.38145  0.30629  0.86985  1.0000
  C   C6        1.0  0.95154  0.71786  0.03144  1.0000
  C   C7        1.0  0.77565  0.65823  0.07209  1.0000
  C   C8        1.0  0.57292  0.82413  0.07491  1.0000
  C   C9        1.0  0.41095  0.76405  0.12152  1.0000
  C   C10       1.0  0.52133  0.68026  0.12634  1.0000
  C   C11       1.0  0.9553599999999999  0.048729999999999996  0.25256  1.0000
  C   C12       1.0  0.09613000000000001  0.08137  0.31737  1.0000
  C   C13       1.0  0.3318  0.10709  0.15553  1.0000
  C   C14       1.0  0.4659699999999999  0.1433  0.22203  1.0000
  C   C15       1.0  0.32711  0.13731  0.30285  1.0000
  C   C16       1.0  0.29706  0.95479  0.71831  1.0000
  C   C17       1.0  0.5381400000000001  0.92896  0.66383  1.0000
  C   C18       1.0  0.5495100000000002  0.88487  0.8305199999999999  1.0000
  C   C19       1.0  0.7663699999999999  0.84863  0.77435  1.0000
  C   C20       1.0  0.7655100000000001  0.86747  0.68724  1.0000
  C   C21       1.0  0.94015  0.54645  0.24379  1.0000
  C   C22       1.0  0.16040000000000001  0.56671  0.18209  1.0000
  C   C23       1.0  0.18769  0.62583  0.33948  1.0000
  C   C24       1.0  0.38228000000000006  0.65526  0.27432  1.0000
  C   C25       1.0  0.3683599999999999  0.6286  0.19223  1.0000
  C   C26       1.0  0.7974100000000001  0.4660099999999999  0.782  1.0000
  C   C27       1.0  0.9758799999999999  0.42579  0.8411  1.0000
  C   C28       1.0  0.17115999999999995  0.42263  0.67403  1.0000
  C   C29       1.0  0.3340799999999998  0.37586  0.73358  1.0000
  C   C30       1.0  0.22837000000000002  0.37153  0.81813  1.0000
  C   C31       1.0  0.7859700000000001  0.24537999999999996  0.45396  1.0000
  C   C32       1.0  0.6454499999999997  0.18136  0.41989  1.0000
  C   C33       1.0  0.41152999999999995  0.34303  0.39661  1.0000
  C   C34       1.0  0.27708  0.27743  0.35924  1.0000
  C   C35       1.0  0.41566  0.19682  0.36376  1.0000
  C   C36       1.0  0.4304200000000001  0.78142  0.54686  1.0000
  C   C37       1.0  0.18899999999999997  0.83596  0.57175  1.0000
  C   C38       1.0  0.17657000000000003  0.67019  0.61829  1.0000
  C   C39       1.0  0.95902  0.72661  0.65365  1.0000
  C   C40       1.0  0.96031  0.81328  0.63355  1.0000
  N   N1        1.0  0.79692  0.17630000000000004  0.92282  1.0000
  N   N2        1.0  0.85087  0.80059  0.03443  1.0000
  N   N3        1.0  0.0675  0.06469  0.17158  1.0000
  N   N4        1.0  0.30168  0.93312  0.80283  1.0000
  N   N5        1.0  0.95224  0.57647  0.3234  1.0000
  N   N6        1.0  0.8951899999999999  0.4634  0.69873  1.0000
  N   N7        1.0  0.67528  0.32642  0.43914  1.0000
  N   N8        1.0  0.42546000000000006  0.69738  0.56971  1.0000
  O   O1        1.0  0.016029999999999992  0.12100999999999999  0.94604  1.0000
  O   O2        1.0  0.04694000000000002  0.85382  0.9997399999999999  1.0000
  O   O3        1.0  0.8850299999999999  0.0409  0.11604  1.0000
  O   O4        1.0  0.07720000000000009  0.9669499999999999  0.85374  1.0000
  O   O5        1.0  0.7323700000000001  0.55385  0.37904  1.0000
  O   O6        1.0  0.7003399999999999  0.49993999999999994  0.64624  1.0000
  O   O7        1.0  0.85757  0.38169  0.46365  1.0000
  O   O8        1.0  0.65062  0.64659  0.5362  1.0000
  O   O9        1.0  0.4272599999999999  0.9914600000000001  0.03351  1.0000
  O   O10       1.0  0.31593  0.46918  0.50481  1.0000
