data_image0
_chemical_formula_structural       Cu4H28C28N16O4
_chemical_formula_sum              "Cu4 H28 C28 N16 O4"
_cell_length_a       6.94328
_cell_length_b       8.128040000000002
_cell_length_c       14.57264
_cell_angle_alpha    90.06158
_cell_angle_beta     90.04809
_cell_angle_gamma    89.97896

_space_group_name_H-M_alt    "P 1"
_space_group_IT_number       1

loop_
  _space_group_symop_operation_xyz
  'x, y, z'

loop_
  _atom_site_type_symbol
  _atom_site_label
  _atom_site_symmetry_multiplicity
  _atom_site_fract_x
  _atom_site_fract_y
  _atom_site_fract_z
  _atom_site_occupancy
  Cu  Cu1       1.0  0.91232  0.69719  0.9560800000000003  1.0000
  Cu  Cu2       1.0  0.4111699999999999  0.80285  0.04426  1.0000
  Cu  Cu3       1.0  0.58766  0.30391  0.45579  1.0000
  Cu  Cu4       1.0  0.08697000000000002  0.19559  0.5438200000000002  1.0000
  H   H1        1.0  0.14694  0.57106  0.8579000000000002  1.0000
  H   H2        1.0  0.75633  0.70935  0.16833000000000006  1.0000
  H   H3        1.0  0.34403  0.58089  0.22573000000000004  1.0000
  H   H4        1.0  0.26265  0.72387  0.36842000000000014  1.0000
  H   H5        1.0  0.19532  0.665  0.53445  1.0000
  H   H6        1.0  0.88978  0.51876  0.57589  1.0000
  H   H7        1.0  0.71036  0.49671000000000004  0.30616  1.0000
  H   H8        1.0  0.64749  0.93081  0.14143000000000006  1.0000
  H   H9        1.0  0.25635  0.79255  0.83166  1.0000
  H   H10       1.0  0.84527  0.91881  0.77528  1.0000
  H   H11       1.0  0.76479  0.77827  0.6326200000000001  1.0000
  H   H12       1.0  0.69763  0.83625  0.46644000000000013  1.0000
  H   H13       1.0  0.39134  0.98101  0.42429  1.0000
  H   H14       1.0  0.21102  0.0038  0.69379  1.0000
  H   H15       1.0  0.3489  0.42753  0.3581100000000001  1.0000
  H   H16       1.0  0.74187  0.29092  0.6686800000000002  1.0000
  H   H17       1.0  0.1541  0.41925  0.7248100000000002  1.0000
  H   H18       1.0  0.23472  0.27608  0.8681500000000002  1.0000
  H   H19       1.0  0.30233000000000004  0.33588  0.034140000000000004  1.0000
  H   H20       1.0  0.60824  0.48149  0.07574  1.0000
  H   H21       1.0  0.78697  0.50313  0.8059  1.0000
  H   H22       1.0  0.85374  0.07008  0.6427400000000002  1.0000
  H   H23       1.0  0.24148  0.20585  0.3309700000000001  1.0000
  H   H24       1.0  0.65237  0.08173  0.2748500000000001  1.0000
  H   H25       1.0  0.73239  0.22091  0.13179000000000005  1.0000
  H   H26       1.0  0.80056  0.16306  0.96571  1.0000
  H   H27       1.0  0.1076  0.01944  0.92386  1.0000
  H   H28       1.0  0.28603  0.99641  0.19393000000000005  1.0000
  C   C1        1.0  0.90918  0.66987  0.15972000000000003  1.0000
  C   C2        1.0  0.21410999999999997  0.61552  0.18910000000000005  1.0000
  C   C3        1.0  0.99524  0.61057  0.32422  1.0000
  C   C4        1.0  0.13097  0.66206  0.3895000000000001  1.0000
  C   C5        1.0  0.09286  0.63036  0.4815500000000001  1.0000
  C   C6        1.0  0.92217  0.55003  0.50489  1.0000
  C   C7        1.0  0.82381  0.53789  0.3529800000000001  1.0000
  C   C8        1.0  0.40949  0.8309  0.84047  1.0000
  C   C9        1.0  0.7147099999999998  0.88508  0.81163  1.0000
  C   C10       1.0  0.49633  0.89032  0.6762200000000003  1.0000
  C   C11       1.0  0.63273  0.83938  0.61123  1.0000
  C   C12       1.0  0.59474  0.87073  0.5191100000000002  1.0000
  C   C13       1.0  0.42354  0.95024  0.49543  1.0000
  C   C14       1.0  0.32469  0.96248  0.64718  1.0000
  C   C15       1.0  0.58907  0.32936  0.6597800000000003  1.0000
  C   C16       1.0  0.28427  0.38442  0.68848  1.0000
  C   C17       1.0  0.50252  0.38891  0.8241200000000002  1.0000
  C   C18       1.0  0.36652  0.33796  0.8892600000000003  1.0000
  C   C19       1.0  0.40492  0.37008  0.9813100000000001  1.0000
  C   C20       1.0  0.5759  0.45028  0.004660000000000002  1.0000
  C   C21       1.0  0.674  0.46186  0.85287  1.0000
  C   C22       1.0  0.08845  0.1681  0.34004  1.0000
  C   C23       1.0  0.78293  0.1154  0.3112300000000001  1.0000
  C   C24       1.0  0.00097  0.10909  0.17576  1.0000
  C   C25       1.0  0.86469  0.15997  0.11062000000000002  1.0000
  C   C26       1.0  0.90327  0.12872  0.01853000000000001  1.0000
  C   C27       1.0  0.07490999999999999  0.04969  0.9950200000000001  1.0000
  C   C28       1.0  0.17294  0.03732  0.14687000000000006  1.0000
  N   N1        1.0  0.20151  0.64883  0.10064000000000001  1.0000
  N   N2        1.0  0.00712  0.68085  0.08189000000000003  1.0000
  N   N3        1.0  0.03552  0.62956  0.22920000000000004  1.0000
  N   N4        1.0  0.78753  0.50851  0.44230000000000014  1.0000
  N   N5        1.0  0.7016499999999999  0.85139  0.9000100000000001  1.0000
  N   N6        1.0  0.5072  0.81952  0.9184500000000002  1.0000
  N   N7        1.0  0.53617  0.87147  0.77127  1.0000
  N   N8        1.0  0.28846  0.99146  0.55778  1.0000
  N   N9        1.0  0.2975  0.35153000000000006  0.59998  1.0000
  N   N10       1.0  0.49186  0.31909  0.58163  1.0000
  N   N11       1.0  0.46239  0.36957  0.7290600000000002  1.0000
  N   N12       1.0  0.71058  0.49159  0.9421800000000002  1.0000
  N   N13       1.0  0.7964799999999999  0.14927  0.39962  1.0000
  N   N14       1.0  0.99122  0.18031  0.41806  1.0000
  N   N15       1.0  0.96128  0.12803  0.27083  1.0000
  N   N16       1.0  0.20989  0.00855  0.057520000000000016  1.0000
  O   O1        1.0  0.05094  0.64976  0.8377000000000002  1.0000
  O   O2        1.0  0.55359  0.8507100000000002  0.16210000000000005  1.0000
  O   O3        1.0  0.44600999999999996  0.35017  0.33748  1.0000
  O   O4        1.0  0.94875  0.14982  0.66273  1.0000
