data_image0
_chemical_formula_structural       Co6H18C42O18
_chemical_formula_sum              "Co6 H18 C42 O18"
_cell_length_a       6.85833
_cell_length_b       21.86663
_cell_length_c       21.864819999999998
_cell_angle_alpha    119.90926
_cell_angle_beta     90.00275
_cell_angle_gamma    89.99588

_space_group_name_H-M_alt    "P 1"
_space_group_IT_number       1

loop_
  _space_group_symop_operation_xyz
  'x, y, z'

loop_
  _atom_site_type_symbol
  _atom_site_label
  _atom_site_symmetry_multiplicity
  _atom_site_fract_x
  _atom_site_fract_y
  _atom_site_fract_z
  _atom_site_occupancy
  Co  Co1       1.0  0.67068  0.71516  0.33399  1.0000
  Co  Co2       1.0  0.0041  0.6191699999999999  0.28494  1.0000
  Co  Co3       1.0  0.33745  0.66607  0.381  1.0000
  Co  Co4       1.0  0.32915  0.38099  0.66601  1.0000
  Co  Co5       1.0  0.99587  0.33398  0.7152  1.0000
  Co  Co6       1.0  0.6625599999999998  0.28484999999999994  0.6191  1.0000
  H   H1        1.0  0.97899  0.6101  0.12066000000000002  1.0000
  H   H2        1.0  0.83266  0.55136  0.00111  1.0000
  H   H3        1.0  0.28183  0.5414  0.08993  1.0000
  H   H4        1.0  0.31242999999999993  0.51062  0.38985  1.0000
  H   H5        1.0  0.16587  0.44969  0.44863  1.0000
  H   H6        1.0  0.6152699999999998  0.54848  0.45857000000000003  1.0000
  H   H7        1.0  0.6455699999999998  0.87922  0.48935  1.0000
  H   H8        1.0  0.49919999999999987  0.99875  0.55017  1.0000
  H   H9        1.0  0.94834  0.9101299999999998  0.4515100000000001  1.0000
  H   H10       1.0  0.02077  0.48939  0.87924  1.0000
  H   H11       1.0  0.16737  0.55016  0.9987400000000001  1.0000
  H   H12       1.0  0.7180699999999998  0.45154000000000016  0.9101000000000001  1.0000
  H   H13       1.0  0.68742  0.12063999999999997  0.61016  1.0000
  H   H14       1.0  0.8339  0.0011300000000000281  0.55137  1.0000
  H   H15       1.0  0.38459999999999994  0.08993999999999996  0.54148  1.0000
  H   H16       1.0  0.3539799999999999  0.38984  0.51058  1.0000
  H   H17       1.0  0.50069  0.4486399999999999  0.44968  1.0000
  H   H18       1.0  0.051209999999999985  0.45852  0.54846  1.0000
  C   C1        1.0  0.3812799999999999  0.6053699999999999  0.22217999999999996  1.0000
  C   C2        1.0  0.82617  0.5946400000000001  0.11307000000000002  1.0000
  C   C3        1.0  0.74311  0.5614399999999999  0.04631  1.0000
  C   C4        1.0  0.51296  0.59156  0.16346  1.0000
  C   C5        1.0  0.7140699999999998  0.61108  0.17354  1.0000
  C   C6        1.0  0.4341599999999999  0.55698  0.09507  1.0000
  C   C7        1.0  0.54435  0.54164  0.03552  1.0000
  C   C8        1.0  0.7146199999999999  0.61695  0.39467  1.0000
  C   C9        1.0  0.15956999999999993  0.51846  0.40528  1.0000
  C   C10       1.0  0.07649  0.48484  0.4385  1.0000
  C   C11       1.0  0.84636  0.5719799999999999  0.40841  1.0000
  C   C12       1.0  0.0475  0.56261  0.38894  1.0000
  C   C13       1.0  0.7675599999999998  0.53807  0.44295  1.0000
  C   C14       1.0  0.8777299999999999  0.4938299999999999  0.45826999999999996  1.0000
  C   C15       1.0  0.04788  0.77792  0.38309  1.0000
  C   C16       1.0  0.49271999999999994  0.88685  0.48150999999999994  1.0000
  C   C17       1.0  0.40965  0.9535999999999999  0.51508  1.0000
  C   C18       1.0  0.17949999999999997  0.8365799999999999  0.42808  1.0000
  C   C19       1.0  0.3806799999999999  0.82645  0.43743  1.0000
  C   C20       1.0  0.10068  0.9049599999999998  0.4619400000000001  1.0000
  C   C21       1.0  0.21088  0.9644499999999999  0.5061  1.0000
  C   C22       1.0  0.6187799999999998  0.38309  0.77795  1.0000
  C   C23       1.0  0.17366999999999994  0.48153  0.88685  1.0000
  C   C24       1.0  0.25692  0.5150799999999999  0.9535799999999999  1.0000
  C   C25       1.0  0.4869699999999999  0.42805999999999994  0.83655  1.0000
  C   C26       1.0  0.28582  0.43747  0.82644  1.0000
  C   C27       1.0  0.5657799999999998  0.46192999999999995  0.9049  1.0000
  C   C28       1.0  0.45572  0.50612  0.96441  1.0000
  C   C29       1.0  0.28537  0.22212  0.60531  1.0000
  C   C30       1.0  0.84027  0.11304999999999998  0.59466  1.0000
  C   C31       1.0  0.9234699999999998  0.04630999999999998  0.56145  1.0000
  C   C32       1.0  0.15354999999999996  0.16345  0.59156  1.0000
  C   C33       1.0  0.9524799999999998  0.17350999999999997  0.61111  1.0000
  C   C34       1.0  0.23229999999999995  0.0951  0.55702  1.0000
  C   C35       1.0  0.12224999999999998  0.03555000000000001  0.54169  1.0000
  C   C36       1.0  0.9519899999999999  0.3947  0.61693  1.0000
  C   C37       1.0  0.50687  0.40529  0.51842  1.0000
  C   C38       1.0  0.5901199999999999  0.43851999999999997  0.48483  1.0000
  C   C39       1.0  0.8201  0.4084099999999999  0.57197  1.0000
  C   C40       1.0  0.6189999999999998  0.38888999999999996  0.56254  1.0000
  C   C41       1.0  0.89894  0.44292999999999993  0.53808  1.0000
  C   C42       1.0  0.7889299999999998  0.45823  0.4938  1.0000
  O   O1        1.0  0.20624999999999996  0.5823299999999999  0.2095  1.0000
  O   O2        1.0  0.44705  0.64137  0.28587  1.0000
  O   O3        1.0  0.7991699999999998  0.6455599999999999  0.23762000000000003  1.0000
  O   O4        1.0  0.53965  0.62724  0.41776  1.0000
  O   O5        1.0  0.7803999999999998  0.64482  0.35876  1.0000
  O   O6        1.0  0.13253  0.5924200000000001  0.35456  1.0000
  O   O7        1.0  0.8728299999999998  0.79064  0.37277  1.0000
  O   O8        1.0  0.11380999999999997  0.7142299999999999  0.35523  1.0000
  O   O9        1.0  0.46583  0.76236  0.4077  1.0000
  O   O10       1.0  0.7938999999999998  0.37287  0.79076  1.0000
  O   O11       1.0  0.55286  0.35516  0.71426  1.0000
  O   O12       1.0  0.20082999999999995  0.40763999999999995  0.76232  1.0000
  O   O13       1.0  0.46045999999999987  0.20935999999999994  0.58228  1.0000
  O   O14       1.0  0.21955999999999998  0.2858  0.64119  1.0000
  O   O15       1.0  0.86755  0.23761  0.64555  1.0000
  O   O16       1.0  0.12698999999999996  0.41778999999999994  0.62718  1.0000
  O   O17       1.0  0.8862199999999998  0.35881  0.64482  1.0000
  O   O18       1.0  0.5341  0.35454  0.5924  1.0000
