data_image0
_chemical_formula_structural       Cu2H14W2C16N8O4
_chemical_formula_sum              "Cu2 H14 W2 C16 N8 O4"
_cell_length_a       10.88069
_cell_length_b       10.67872
_cell_length_c       7.684279999999999
_cell_angle_alpha    73.03404
_cell_angle_beta     71.34515
_cell_angle_gamma    108.06475

_space_group_name_H-M_alt    "P 1"
_space_group_IT_number       1

loop_
  _space_group_symop_operation_xyz
  'x, y, z'

loop_
  _atom_site_type_symbol
  _atom_site_label
  _atom_site_symmetry_multiplicity
  _atom_site_fract_x
  _atom_site_fract_y
  _atom_site_fract_z
  _atom_site_occupancy
  Cu  Cu1       1.0  0.26465000000000005  0.14847  0.51724  1.0000
  Cu  Cu2       1.0  0.65159  0.76216  0.52109  1.0000
  H   H1        1.0  0.39598  0.03213999999999999  0.21659000000000006  1.0000
  H   H2        1.0  0.13708999999999996  0.17909  0.22876000000000005  1.0000
  H   H3        1.0  0.51178  0.42106000000000005  0.21385  1.0000
  H   H4        1.0  0.017639999999999927  0.86338  0.8030400000000002  1.0000
  H   H5        1.0  0.22585999999999998  0.28058  0.8172100000000002  1.0000
  H   H6        1.0  0.09447000000000005  0.44996000000000014  0.74693  1.0000
  H   H7        1.0  0.42791999999999997  0.07558  0.7231400000000002  1.0000
  H   H8        1.0  0.9452700000000002  0.59277  0.7515600000000002  1.0000
  H   H9        1.0  0.58336  0.94122  0.7130300000000003  1.0000
  H   H10       1.0  0.7743000000000001  0.73193  0.8263200000000003  1.0000
  H   H11       1.0  0.36096000000000006  0.52591  0.79669  1.0000
  H   H12       1.0  0.92027  0.013739999999999995  0.22376  1.0000
  H   H13       1.0  0.67908  0.63418  0.22523000000000004  1.0000
  H   H14       1.0  0.54908  0.89682  0.20814000000000005  1.0000
  W   W1        1.0  0.06682000000000005  0.8615600000000001  0.16183000000000006  1.0000
  W   W2        1.0  0.36254000000000003  0.56953  0.15765  1.0000
  C   C1        1.0  0.2693400000000001  0.69129  0.25704000000000005  1.0000
  C   C2        1.0  0.43845  0.012280000000000015  0.32697  1.0000
  C   C3        1.0  0.07176000000000002  0.06669000000000003  0.3458  1.0000
  C   C4        1.0  0.45973  0.45936000000000005  0.3210000000000001  1.0000
  C   C5        1.0  0.99742  0.8943399999999998  0.6714300000000002  1.0000
  C   C6        1.0  0.31453999999999993  0.3687799999999999  0.6733600000000002  1.0000
  C   C7        1.0  0.11898999999999994  0.5418699999999999  0.6117700000000003  1.0000
  C   C8        1.0  0.45668000000000003  0.036229999999999984  0.60783  1.0000
  C   C9        1.0  0.038039999999999984  0.61933  0.6141300000000001  1.0000
  C   C10       1.0  0.54146  0.9625500000000001  0.60237  1.0000
  C   C11       1.0  0.8636400000000001  0.8182499999999999  0.6815700000000002  1.0000
  C   C12       1.0  0.3919  0.50343  0.66487  1.0000
  C   C13       1.0  0.9566599999999997  0.96077  0.3291  1.0000
  C   C14       1.0  0.5663200000000003  0.5724100000000001  0.34039  1.0000
  C   C15       1.0  0.18685  0.77106  0.25976  1.0000
  C   C16       1.0  0.52289  0.9377899999999998  0.32240000000000013  1.0000
  N   N1        1.0  0.23444000000000004  0.58056  0.43395  1.0000
  N   N2        1.0  0.40490000000000004  0.06288999999999999  0.46938  1.0000
  N   N3        1.0  0.09364999999999998  0.02938  0.50963  1.0000
  N   N4        1.0  0.34934  0.33674  0.51423  1.0000
  N   N5        1.0  0.07477999999999997  0.73413  0.43880000000000013  1.0000
  N   N6        1.0  0.57595  0.91265  0.4592900000000001  1.0000
  N   N7        1.0  0.83425  0.85101  0.52287  1.0000
  N   N8        1.0  0.52881  0.59592  0.50531  1.0000
  O   O1        1.0  0.17716999999999994  0.017399999999999936  0.9313100000000002  1.0000
  O   O2        1.0  0.23954000000000006  0.43067  0.14104  1.0000
  O   O3        1.0  0.93194  0.7345800000000001  0.14491000000000004  1.0000
  O   O4        1.0  0.5184300000000001  0.67998  0.9262800000000002  1.0000
