data_image0
_chemical_formula_structural       Zn4H20C44S2N4O20
_chemical_formula_sum              "Zn4 H20 C44 S2 N4 O20"
_cell_length_a       10.42682
_cell_length_b       16.48679
_cell_length_c       19.306719999999995
_cell_angle_alpha    90.0
_cell_angle_beta     100.17406
_cell_angle_gamma    90.0

_space_group_name_H-M_alt    "P 1"
_space_group_IT_number       1

loop_
  _space_group_symop_operation_xyz
  'x, y, z'

loop_
  _atom_site_type_symbol
  _atom_site_label
  _atom_site_symmetry_multiplicity
  _atom_site_fract_x
  _atom_site_fract_y
  _atom_site_fract_z
  _atom_site_occupancy
  Zn  Zn1       1.0  0.77488  0.15105  0.02922  1.0000
  Zn  Zn2       1.0  0.97102  0.22917999999999997  0.13024  1.0000
  Zn  Zn3       1.0  0.22512000000000004  0.6510499999999998  0.97078  1.0000
  Zn  Zn4       1.0  0.02898000000000003  0.72918  0.8697600000000001  1.0000
  H   H1        1.0  0.42718  0.21064  0.09952  1.0000
  H   H2        1.0  0.71855  0.28811  0.27504  1.0000
  H   H3        1.0  0.30944  0.28904  0.29025  1.0000
  H   H4        1.0  0.45835000000000004  0.32344  0.4985  1.0000
  H   H5        1.0  0.53934  0.35633  0.631  1.0000
  H   H6        1.0  0.7649700000000001  0.28374  0.84061  1.0000
  H   H7        1.0  0.032480000000000044  0.4175699999999999  0.9938200000000001  1.0000
  H   H8        1.0  0.92782  0.50946  0.7821100000000002  1.0000
  H   H9        1.0  0.46385  0.31244  0.38729  1.0000
  H   H10       1.0  0.6916999999999999  0.34616  0.7283800000000001  1.0000
  H   H11       1.0  0.5728100000000002  0.71063  0.9004800000000002  1.0000
  H   H12       1.0  0.28145  0.7881099999999998  0.72496  1.0000
  H   H13       1.0  0.69056  0.7890299999999998  0.7097500000000001  1.0000
  H   H14       1.0  0.54165  0.8234399999999997  0.5015  1.0000
  H   H15       1.0  0.46065  0.8563299999999998  0.36900000000000005  1.0000
  H   H16       1.0  0.23502999999999996  0.78374  0.15939  1.0000
  H   H17       1.0  0.96751  0.91756  0.006180000000000001  1.0000
  H   H18       1.0  0.07217  0.009459999999999998  0.21789  1.0000
  H   H19       1.0  0.53615  0.81244  0.61271  1.0000
  H   H20       1.0  0.3083000000000001  0.8461599999999998  0.27163000000000004  1.0000
  C   C1        1.0  0.21635  0.23493999999999995  0.15958  1.0000
  C   C2        1.0  0.35556  0.24935  0.19193  1.0000
  C   C3        1.0  0.4536700000000001  0.23367999999999994  0.15285  1.0000
  C   C4        1.0  0.58383  0.24846  0.18298  1.0000
  C   C5        1.0  0.68943  0.23113  0.14209  1.0000
  C   C6        1.0  0.61736  0.27717  0.25229  1.0000
  C   C7        1.0  0.51867  0.2903199999999999  0.29196  1.0000
  C   C8        1.0  0.38792  0.27763  0.2610100000000001  1.0000
  C   C9        1.0  0.6602800000000001  0.33603  0.40446000000000004  1.0000
  C   C10       1.0  0.65677  0.34847  0.48006000000000004  1.0000
  C   C11       1.0  0.5583  0.3405  0.51972  1.0000
  C   C12       1.0  0.60229  0.3573  0.59173  1.0000
  C   C13       1.0  0.73386  0.3775499999999999  0.60603  1.0000
  C   C14       1.0  0.8202500000000001  0.3995799999999999  0.67249  1.0000
  C   C15       1.0  0.83976  0.3946499999999999  0.8023300000000001  1.0000
  C   C16       1.0  0.8270200000000001  0.3365999999999999  0.8535900000000001  1.0000
  C   C17       1.0  0.8955199999999999  0.3449799999999999  0.9225300000000001  1.0000
  C   C18       1.0  0.9780699999999999  0.41138999999999987  0.9406500000000002  1.0000
  C   C19       1.0  0.98805  0.4703099999999999  0.8896100000000001  1.0000
  C   C20       1.0  0.91908  0.46276  0.8206300000000002  1.0000
  C   C21       1.0  0.06861999999999999  0.5436199999999998  0.90942  1.0000
  C   C22       1.0  0.88076  0.28237  0.9761100000000001  1.0000
  C   C23       1.0  0.78365  0.73494  0.8404200000000001  1.0000
  C   C24       1.0  0.64444  0.74935  0.80808  1.0000
  C   C25       1.0  0.54632  0.73367  0.84715  1.0000
  C   C26       1.0  0.41616  0.74846  0.81702  1.0000
  C   C27       1.0  0.31056000000000006  0.73113  0.8579100000000001  1.0000
  C   C28       1.0  0.38264  0.7771699999999998  0.74771  1.0000
  C   C29       1.0  0.48133  0.79032  0.70804  1.0000
  C   C30       1.0  0.61208  0.7776299999999998  0.7389900000000001  1.0000
  C   C31       1.0  0.33972  0.83602  0.59554  1.0000
  C   C32       1.0  0.34322  0.8484699999999997  0.51994  1.0000
  C   C33       1.0  0.4416999999999999  0.8404999999999998  0.4802800000000001  1.0000
  C   C34       1.0  0.39771  0.8572999999999997  0.40828000000000003  1.0000
  C   C35       1.0  0.26614  0.8775499999999998  0.39397  1.0000
  C   C36       1.0  0.17975  0.8995799999999998  0.32751  1.0000
  C   C37       1.0  0.16024000000000002  0.8946499999999997  0.19768000000000002  1.0000
  C   C38       1.0  0.17297  0.8365999999999998  0.14641  1.0000
  C   C39       1.0  0.10447000000000001  0.84498  0.07747  1.0000
  C   C40       1.0  0.02193000000000001  0.91139  0.059350000000000014  1.0000
  C   C41       1.0  0.011949999999999999  0.9703099999999998  0.1104  1.0000
  C   C42       1.0  0.08092  0.9627599999999997  0.17938  1.0000
  C   C43       1.0  0.9313799999999999  0.04362  0.09058  1.0000
  C   C44       1.0  0.11923999999999998  0.7823699999999998  0.02389  1.0000
  S   S1        1.0  0.80289  0.3767799999999999  0.53113  1.0000
  S   S2        1.0  0.19711  0.8767799999999998  0.46887000000000006  1.0000
  N   N1        1.0  0.54313  0.31379  0.36336000000000007  1.0000
  N   N2        1.0  0.7698300000000001  0.38385  0.7333300000000001  1.0000
  N   N3        1.0  0.45687  0.81379  0.63664  1.0000
  N   N4        1.0  0.23017  0.88385  0.2666700000000001  1.0000
  O   O1        1.0  0.65355  0.1927  0.08329000000000002  1.0000
  O   O2        1.0  0.8048900000000001  0.25373  0.1667  1.0000
  O   O3        1.0  0.12849  0.25907  0.19575  1.0000
  O   O4        1.0  0.18666  0.20159  0.1006  1.0000
  O   O5        1.0  0.93574  0.29412  0.03934  1.0000
  O   O6        1.0  0.8111  0.21958999999999995  0.95423  1.0000
  O   O7        1.0  0.14885000000000004  0.54349  0.9686600000000001  1.0000
  O   O8        1.0  0.057830000000000055  0.60442  0.8679000000000001  1.0000
  O   O9        1.0  0.76309  0.3447  0.38169  1.0000
  O   O10       1.0  0.9289  0.42962  0.67347  1.0000
  O   O11       1.0  0.34644  0.6926899999999998  0.91672  1.0000
  O   O12       1.0  0.19511000000000003  0.75373  0.83331  1.0000
  O   O13       1.0  0.8715099999999999  0.7590699999999998  0.80425  1.0000
  O   O14       1.0  0.81334  0.7015899999999998  0.8994000000000001  1.0000
  O   O15       1.0  0.06426  0.7941199999999998  0.9606600000000001  1.0000
  O   O16       1.0  0.18889  0.71959  0.045770000000000005  1.0000
  O   O17       1.0  0.8511499999999999  0.04349  0.03134000000000001  1.0000
  O   O18       1.0  0.94217  0.10443  0.1321  1.0000
  O   O19       1.0  0.23691000000000004  0.8446999999999998  0.61831  1.0000
  O   O20       1.0  0.0711  0.92962  0.32653000000000004  1.0000
