data_image0
_chemical_formula_structural       Cd6H12C36N8O16
_chemical_formula_sum              "Cd6 H12 C36 N8 O16"
_cell_length_a       8.96966
_cell_length_b       8.955109999999998
_cell_length_c       16.70449
_cell_angle_alpha    75.33326
_cell_angle_beta     75.37097
_cell_angle_gamma    68.26025

_space_group_name_H-M_alt    "P 1"
_space_group_IT_number       1

loop_
  _space_group_symop_operation_xyz
  'x, y, z'

loop_
  _atom_site_type_symbol
  _atom_site_label
  _atom_site_symmetry_multiplicity
  _atom_site_fract_x
  _atom_site_fract_y
  _atom_site_fract_z
  _atom_site_occupancy
  Cd  Cd1       1.0  0.29882999999999993  0.26104999999999995  0.80864  1.0000
  Cd  Cd2       1.0  0.7385699999999995  0.70387  0.6919500000000002  1.0000
  Cd  Cd3       1.0  0.7011699999999998  0.73894  0.19136000000000006  1.0000
  Cd  Cd4       1.0  0.26141999999999993  0.29611999999999994  0.30805  1.0000
  Cd  Cd5       1.0  0.9982899999999999  0.002509999999999965  0.7495500000000003  1.0000
  Cd  Cd6       1.0  0.0017100000000000379  0.99748  0.25045  1.0000
  H   H1        1.0  0.31212999999999996  0.33578  0.01589000000000001  1.0000
  H   H2        1.0  0.15464999999999998  0.61975  0.7326300000000002  1.0000
  H   H3        1.0  0.9357799999999998  0.91797  0.9764000000000003  1.0000
  H   H4        1.0  0.6650400000000001  0.68807  0.48405  1.0000
  H   H5        1.0  0.3807699999999998  0.8468599999999998  0.7671100000000002  1.0000
  H   H6        1.0  0.08243999999999997  0.06167  0.52388  1.0000
  H   H7        1.0  0.6878599999999998  0.66421  0.9841100000000003  1.0000
  H   H8        1.0  0.8453499999999998  0.38023999999999997  0.2673700000000001  1.0000
  H   H9        1.0  0.06422000000000001  0.08202  0.0236  1.0000
  H   H10       1.0  0.3349599999999999  0.31192  0.51595  1.0000
  H   H11       1.0  0.61923  0.15314  0.23289  1.0000
  H   H12       1.0  0.91756  0.93832  0.4761200000000001  1.0000
  C   C1        1.0  0.21529999999999994  0.45999999999999996  0.15597  1.0000
  C   C2        1.0  0.17515999999999998  0.54912  0.07193  1.0000
  C   C3        1.0  0.23315  0.4622  0.0053900000000000016  1.0000
  C   C4        1.0  0.18552999999999994  0.5421199999999997  0.9281800000000002  1.0000
  C   C5        1.0  0.14574  0.62213  0.79837  1.0000
  C   C6        1.0  0.08004999999999991  0.70699  0.91706  1.0000
  C   C7        1.0  0.0180799999999999  0.79265  0.9841600000000003  1.0000
  C   C8        1.0  0.06885000000000002  0.71382  0.06096  1.0000
  C   C9        1.0  0.022009999999999967  0.81419  0.12836  1.0000
  C   C10       1.0  0.54065  0.78459  0.34394  1.0000
  C   C11       1.0  0.45176999999999995  0.82391  0.42814000000000013  1.0000
  C   C12       1.0  0.53864  0.76652  0.4946700000000001  1.0000
  C   C13       1.0  0.45871  0.8144199999999999  0.57182  1.0000
  C   C14       1.0  0.37843  0.8550099999999999  0.7014600000000002  1.0000
  C   C15       1.0  0.29378999999999983  0.9193099999999998  0.5828200000000002  1.0000
  C   C16       1.0  0.20792000000000005  0.9801099999999999  0.51585  1.0000
  C   C17       1.0  0.2868399999999999  0.92887  0.43919  1.0000
  C   C18       1.0  0.18686000000000005  0.97434  0.3718800000000001  1.0000
  C   C19       1.0  0.7846999999999997  0.5399899999999999  0.84404  1.0000
  C   C20       1.0  0.82483  0.4508799999999999  0.9280700000000002  1.0000
  C   C21       1.0  0.76685  0.53779  0.99461  1.0000
  C   C22       1.0  0.8144699999999999  0.45787  0.07182  1.0000
  C   C23       1.0  0.85425  0.3778599999999999  0.20163000000000006  1.0000
  C   C24       1.0  0.91995  0.293  0.08294  1.0000
  C   C25       1.0  0.98192  0.20734  0.01584  1.0000
  C   C26       1.0  0.93115  0.2861699999999999  0.93904  1.0000
  C   C27       1.0  0.97799  0.18579999999999994  0.87164  1.0000
  C   C28       1.0  0.4593500000000001  0.21539999999999992  0.65606  1.0000
  C   C29       1.0  0.54823  0.17608  0.57187  1.0000
  C   C30       1.0  0.46135999999999994  0.23347000000000004  0.50533  1.0000
  C   C31       1.0  0.54129  0.18556999999999998  0.4281900000000001  1.0000
  C   C32       1.0  0.62156  0.14497999999999994  0.29854000000000014  1.0000
  C   C33       1.0  0.7061999999999997  0.08067999999999995  0.4171800000000001  1.0000
  C   C34       1.0  0.79208  0.019880000000000002  0.48415  1.0000
  C   C35       1.0  0.7131599999999999  0.07111999999999997  0.56081  1.0000
  C   C36       1.0  0.81314  0.025650000000000023  0.62812  1.0000
  N   N1        1.0  0.22447999999999993  0.49117999999999984  0.8513200000000002  1.0000
  N   N2        1.0  0.05748999999999995  0.7543800000000002  0.83399  1.0000
  N   N3        1.0  0.5094999999999998  0.7764399999999999  0.6486800000000003  1.0000
  N   N4        1.0  0.2461799999999997  0.94232  0.66578  1.0000
  N   N5        1.0  0.7755099999999999  0.5088099999999999  0.14868000000000006  1.0000
  N   N6        1.0  0.9425099999999997  0.24561  0.16601  1.0000
  N   N7        1.0  0.49049  0.22354999999999994  0.35132000000000013  1.0000
  N   N8        1.0  0.7538099999999996  0.05767  0.33422  1.0000
  O   O1        1.0  0.3397899999999999  0.33191999999999994  0.16162000000000007  1.0000
  O   O2        1.0  0.11698000000000003  0.51188  0.22207  1.0000
  O   O3        1.0  0.86988  0.88219  0.15847  1.0000
  O   O4        1.0  0.13404999999999995  0.84076  0.15007  1.0000
  O   O5        1.0  0.6677999999999998  0.65946  0.33805  1.0000
  O   O6        1.0  0.48905999999999994  0.88451  0.27801  1.0000
  O   O7        1.0  0.11911999999999998  0.12666999999999998  0.3412800000000001  1.0000
  O   O8        1.0  0.15973999999999994  0.86201  0.35066  1.0000
  O   O9        1.0  0.6602099999999997  0.66807  0.83838  1.0000
  O   O10       1.0  0.8830200000000002  0.4881100000000001  0.77793  1.0000
  O   O11       1.0  0.13012000000000007  0.11779999999999996  0.84153  1.0000
  O   O12       1.0  0.8659499999999999  0.15923000000000004  0.84993  1.0000
  O   O13       1.0  0.33220000000000016  0.34053  0.66195  1.0000
  O   O14       1.0  0.5109400000000001  0.11548000000000001  0.72199  1.0000
  O   O15       1.0  0.8808799999999996  0.8733299999999999  0.65872  1.0000
  O   O16       1.0  0.8402599999999999  0.13797999999999988  0.6493400000000003  1.0000
