data_image0
_chemical_formula_structural       Mg4P4H4C4O24
_chemical_formula_sum              "Mg4 P4 H4 C4 O24"
_cell_length_a       5.84885
_cell_length_b       8.92191
_cell_length_c       14.659849999999999
_cell_angle_alpha    89.78286
_cell_angle_beta     89.97952
_cell_angle_gamma    87.13881000000002

_space_group_name_H-M_alt    "P 1"
_space_group_IT_number       1

loop_
  _space_group_symop_operation_xyz
  'x, y, z'

loop_
  _atom_site_type_symbol
  _atom_site_label
  _atom_site_symmetry_multiplicity
  _atom_site_fract_x
  _atom_site_fract_y
  _atom_site_fract_z
  _atom_site_occupancy
  Mg  Mg1       1.0  0.85592  0.53975  0.31592  1.0000
  Mg  Mg2       1.0  0.6459099999999998  0.96058  0.81589  1.0000
  Mg  Mg3       1.0  0.14477  0.45764000000000005  0.68583  1.0000
  Mg  Mg4       1.0  0.35923  0.03963  0.18603  1.0000
  P   P1        1.0  0.8441199999999998  0.22507000000000002  0.18498  1.0000
  P   P2        1.0  0.65906  0.27357  0.68481  1.0000
  P   P3        1.0  0.15829  0.77407  0.81649  1.0000
  P   P4        1.0  0.3411499999999999  0.72306  0.31696  1.0000
  H   H1        1.0  0.001970000000000001  0.20374  0.05184  1.0000
  H   H2        1.0  0.50367  0.2943  0.55034  1.0000
  H   H3        1.0  0.99468  0.79066  0.94962  1.0000
  H   H4        1.0  0.49573999999999996  0.705  0.45121  1.0000
  C   C1        1.0  0.9019599999999999  0.56464  0.51739  1.0000
  C   C2        1.0  0.60158  0.93712  0.01645  1.0000
  C   C3        1.0  0.0994  0.43459  0.48502000000000006  1.0000
  C   C4        1.0  0.4002299999999999  0.06158  0.98507  1.0000
  O   O1        1.0  0.8636299999999998  0.38535  0.22104  1.0000
  O   O2        1.0  0.04826  0.12596  0.21899  1.0000
  O   O3        1.0  0.61226  0.17049  0.21415  1.0000
  O   O4        1.0  0.84526  0.22853  0.07543  1.0000
  O   O5        1.0  0.7712099999999997  0.60815  0.45328  1.0000
  O   O6        1.0  0.91211  0.59881  0.59885  1.0000
  O   O7        1.0  0.63585  0.11198000000000001  0.7189  1.0000
  O   O8        1.0  0.45515  0.3716  0.71981  1.0000
  O   O9        1.0  0.8911199999999998  0.3265  0.71441  1.0000
  O   O10       1.0  0.6599199999999998  0.27397  0.5751  1.0000
  O   O11       1.0  0.7319199999999999  0.89592  0.95196  1.0000
  O   O12       1.0  0.59907  0.9028800000000001  0.09847  1.0000
  O   O13       1.0  0.14696999999999996  0.61426  0.77877  1.0000
  O   O14       1.0  0.9551299999999999  0.87346  0.78211  1.0000
  O   O15       1.0  0.3910299999999999  0.83024  0.79018  1.0000
  O   O16       1.0  0.15115999999999996  0.7657900000000001  0.9258  1.0000
  O   O17       1.0  0.23039  0.39198  0.54866  1.0000
  O   O18       1.0  0.08923999999999999  0.40020000000000006  0.4032  1.0000
  O   O19       1.0  0.3607799999999999  0.88354  0.28072  1.0000
  O   O20       1.0  0.54436  0.62266  0.28402  1.0000
  O   O21       1.0  0.10936999999999997  0.66919  0.28788  1.0000
  O   O22       1.0  0.3396  0.72578  0.42669999999999997  1.0000
  O   O23       1.0  0.26986999999999994  0.10385  0.04917  1.0000
  O   O24       1.0  0.4060899999999999  0.09647  0.90293  1.0000
