data_image0
_chemical_formula_structural       Ag4H24C32S4N16O8
_chemical_formula_sum              "Ag4 H24 C32 S4 N16 O8"
_cell_length_a       8.20806
_cell_length_b       12.356369999999998
_cell_length_c       13.86479
_cell_angle_alpha    90.0
_cell_angle_beta     90.0
_cell_angle_gamma    89.31501

_space_group_name_H-M_alt    "P 1"
_space_group_IT_number       1

loop_
  _space_group_symop_operation_xyz
  'x, y, z'

loop_
  _atom_site_type_symbol
  _atom_site_label
  _atom_site_symmetry_multiplicity
  _atom_site_fract_x
  _atom_site_fract_y
  _atom_site_fract_z
  _atom_site_occupancy
  Ag  Ag1       1.0  0.95405  0.56202  0.67447  1.0000
  Ag  Ag2       1.0  0.04595  0.43797  0.17447  1.0000
  Ag  Ag3       1.0  0.54604  0.05842  0.67449  1.0000
  Ag  Ag4       1.0  0.45395  0.94158  0.17448999999999995  1.0000
  H   H1        1.0  0.007149999999999999  0.29514  0.37554  1.0000
  H   H2        1.0  0.95294  0.67157  0.47639  1.0000
  H   H3        1.0  0.03352  0.62416  0.30679  1.0000
  H   H4        1.0  0.23897  0.16156  0.55418  1.0000
  H   H5        1.0  0.59144  0.3332  0.70457  1.0000
  H   H6        1.0  0.3764300000000001  0.46947  0.75676  1.0000
  H   H7        1.0  0.99285  0.70486  0.87554  1.0000
  H   H8        1.0  0.04705  0.32842000000000005  0.97639  1.0000
  H   H9        1.0  0.96647  0.37584  0.8067899999999998  1.0000
  H   H10       1.0  0.76103  0.83844  0.054179999999999985  1.0000
  H   H11       1.0  0.40855  0.6668  0.20457  1.0000
  H   H12       1.0  0.62356  0.53053  0.25675  1.0000
  H   H13       1.0  0.48743  0.79535  0.3740799999999999  1.0000
  H   H14       1.0  0.55164  0.16928  0.4773999999999999  1.0000
  H   H15       1.0  0.47267  0.1253  0.30718  1.0000
  H   H16       1.0  0.25516  0.66524  0.55149  1.0000
  H   H17       1.0  0.9022  0.8376999999999999  0.7055799999999999  1.0000
  H   H18       1.0  0.11557000000000005  0.9723  0.7566799999999998  1.0000
  H   H19       1.0  0.51256  0.20464999999999997  0.8740799999999997  1.0000
  H   H20       1.0  0.44835  0.83072  0.9774  1.0000
  H   H21       1.0  0.52732  0.8747  0.80718  1.0000
  H   H22       1.0  0.74484  0.33476  0.05148  1.0000
  H   H23       1.0  0.0978  0.1623  0.20558  1.0000
  H   H24       1.0  0.88443  0.027700000000000002  0.25668  1.0000
  C   C1        1.0  0.99766  0.37972  0.39702  1.0000
  C   C2        1.0  0.95841  0.40645  0.4921699999999999  1.0000
  C   C3        1.0  0.9665400000000001  0.58773  0.45341  1.0000
  C   C4        1.0  0.009529999999999999  0.56221  0.36011  1.0000
  C   C5        1.0  0.15459  0.30837  0.62552  1.0000
  C   C6        1.0  0.27125  0.23052  0.5990099999999998  1.0000
  C   C7        1.0  0.4640900000000001  0.32524  0.68417  1.0000
  C   C8        1.0  0.34602  0.40076  0.71112  1.0000
  C   C9        1.0  0.002329999999999999  0.62028  0.8970199999999998  1.0000
  C   C10       1.0  0.04159  0.59354  0.9921699999999998  1.0000
  C   C11       1.0  0.03346  0.41225999999999996  0.95341  1.0000
  C   C12       1.0  0.99046  0.43778999999999996  0.86011  1.0000
  C   C13       1.0  0.84541  0.69162  0.12551  1.0000
  C   C14       1.0  0.72875  0.76948  0.09900999999999997  1.0000
  C   C15       1.0  0.53591  0.67475  0.18417  1.0000
  C   C16       1.0  0.65397  0.59924  0.21112  1.0000
  C   C17       1.0  0.49944  0.8793400000000001  0.39628  1.0000
  C   C18       1.0  0.53887  0.9041  0.4916799999999999  1.0000
  C   C19       1.0  0.53608  0.08599  0.4539899999999999  1.0000
  C   C20       1.0  0.4935800000000001  0.062419999999999996  0.36042999999999986  1.0000
  C   C21       1.0  0.33852  0.80971  0.62399  1.0000
  C   C22       1.0  0.22222  0.7337  0.5973  1.0000
  C   C23       1.0  0.029400000000000006  0.82937  0.6841599999999999  1.0000
  C   C24       1.0  0.14689  0.9037  0.7105899999999998  1.0000
  C   C25       1.0  0.50055  0.12066  0.8962799999999999  1.0000
  C   C26       1.0  0.46113  0.0959  0.9916799999999998  1.0000
  C   C27       1.0  0.46391000000000004  0.914  0.9539999999999997  1.0000
  C   C28       1.0  0.50642  0.93757  0.86043  1.0000
  C   C29       1.0  0.66147  0.19029  0.12398999999999998  1.0000
  C   C30       1.0  0.77777  0.2663  0.0973  1.0000
  C   C31       1.0  0.9706  0.17063  0.18414999999999995  1.0000
  C   C32       1.0  0.8531  0.09629  0.21059  1.0000
  S   S1        1.0  0.95343  0.30223  0.57907  1.0000
  S   S2        1.0  0.04656999999999999  0.69777  0.07907  1.0000
  S   S3        1.0  0.53993  0.79887  0.57807  1.0000
  S   S4        1.0  0.46007  0.20113  0.07807  1.0000
  N   N1        1.0  0.0245  0.45579  0.32979  1.0000
  N   N2        1.0  0.94128  0.51199  0.52275  1.0000
  N   N3        1.0  0.42605  0.23765  0.6291099999999997  1.0000
  N   N4        1.0  0.1887  0.39280999999999994  0.68424  1.0000
  N   N5        1.0  0.9754999999999999  0.54421  0.82979  1.0000
  N   N6        1.0  0.05871  0.488  0.02275  1.0000
  N   N7        1.0  0.57395  0.76235  0.12911  1.0000
  N   N8        1.0  0.8113000000000002  0.60719  0.18423999999999993  1.0000
  N   N9        1.0  0.47555000000000003  0.95676  0.32945  1.0000
  N   N10       1.0  0.55848  0.00892  0.52296  1.0000
  N   N11       1.0  0.06782  0.74193  0.62826  1.0000
  N   N12       1.0  0.30417  0.8942599999999999  0.6831  1.0000
  N   N13       1.0  0.52444  0.04324  0.82945  1.0000
  N   N14       1.0  0.44152  0.9910799999999998  0.02295  1.0000
  N   N15       1.0  0.93218  0.25807  0.12826  1.0000
  N   N16       1.0  0.69583  0.10574  0.1831  1.0000
  O   O1        1.0  0.84142  0.33316999999999997  0.65703  1.0000
  O   O2        1.0  0.93653  0.19926  0.52838  1.0000
  O   O3        1.0  0.15857000000000004  0.66682  0.15702999999999998  1.0000
  O   O4        1.0  0.06346000000000002  0.80074  0.028379999999999992  1.0000
  O   O5        1.0  0.65137  0.82535  0.6570399999999997  1.0000
  O   O6        1.0  0.55467  0.69586  0.52687  1.0000
  O   O7        1.0  0.34863  0.17464  0.15705  1.0000
  O   O8        1.0  0.44533  0.30413  0.02688  1.0000
