data_image0
_chemical_formula_structural       Cd2Ni2H24C16N12
_chemical_formula_sum              "Cd2 Ni2 H24 C16 N12"
_cell_length_a       7.46479
_cell_length_b       9.86639
_cell_length_c       11.657610000000002
_cell_angle_alpha    83.93341000000001
_cell_angle_beta     86.59530999999998
_cell_angle_gamma    96.17211

_space_group_name_H-M_alt    "P 1"
_space_group_IT_number       1

loop_
  _space_group_symop_operation_xyz
  'x, y, z'

loop_
  _atom_site_type_symbol
  _atom_site_label
  _atom_site_symmetry_multiplicity
  _atom_site_fract_x
  _atom_site_fract_y
  _atom_site_fract_z
  _atom_site_occupancy
  Cd  Cd1       1.0  0.47501  0.12260999999999998  0.26501  1.0000
  Cd  Cd2       1.0  0.41936  0.8546300000000001  0.7700999999999999  1.0000
  Ni  Ni1       1.0  0.89604  0.01761  0.025539999999999997  1.0000
  Ni  Ni2       1.0  0.0038300000000000543  0.95634  0.48851  1.0000
  H   H1        1.0  0.40683000000000014  0.36841  0.15345  1.0000
  H   H2        1.0  0.6176200000000002  0.35184  0.10774  1.0000
  H   H3        1.0  0.74328  0.44988  0.2554  1.0000
  H   H4        1.0  0.5529800000000001  0.39192  0.3517  1.0000
  H   H5        1.0  0.3757200000000002  0.56428  0.25046  1.0000
  H   H6        1.0  0.56974  0.63267  0.16002  1.0000
  H   H7        1.0  0.73152  0.6949  0.33279  1.0000
  H   H8        1.0  0.5527300000000003  0.60809  0.42654  1.0000
  H   H9        1.0  0.53381  0.8502699999999999  0.42017  1.0000
  H   H10       1.0  0.3456300000000001  0.7766  0.35569  1.0000
  H   H11       1.0  0.4770300000000001  0.8678199999999999  0.16977  1.0000
  H   H12       1.0  0.6726  0.9118700000000001  0.21929  1.0000
  H   H13       1.0  0.53015  0.6180099999999998  0.88381  1.0000
  H   H14       1.0  0.3185899999999999  0.57315  0.85878  1.0000
  H   H15       1.0  0.40407  0.5643099999999999  0.65641  1.0000
  H   H16       1.0  0.6301800000000002  0.60574  0.68669  1.0000
  H   H17       1.0  0.6177700000000002  0.38544000000000006  0.81934  1.0000
  H   H18       1.0  0.3878300000000001  0.34704  0.79441  1.0000
  H   H19       1.0  0.4736300000000001  0.34396000000000004  0.58158  1.0000
  H   H20       1.0  0.70264  0.38494  0.60633  1.0000
  H   H21       1.0  0.64195  0.13948000000000002  0.59142  1.0000
  H   H22       1.0  0.6997700000000002  0.16386  0.73305  1.0000
  H   H23       1.0  0.38049  0.12466000000000002  0.79374  1.0000
  H   H24       1.0  0.33018  0.10271999999999999  0.66149  1.0000
  C   C1        1.0  0.08185000000000002  0.052559999999999996  0.1267  1.0000
  C   C2        1.0  0.18995  0.10656000000000003  0.47406999999999994  1.0000
  C   C3        1.0  0.84498  0.049389999999999996  0.39523  1.0000
  C   C4        1.0  0.8454200000000003  0.20291000000000003  0.98889  1.0000
  C   C5        1.0  0.59511  0.44011000000000006  0.26361  1.0000
  C   C6        1.0  0.52456  0.58026  0.24657  1.0000
  C   C7        1.0  0.5837200000000002  0.66857  0.3413  1.0000
  C   C8        1.0  0.493  0.8001999999999998  0.34461  1.0000
  C   C9        1.0  0.67466  0.92798  0.98578  1.0000
  C   C10       1.0  0.83828  0.92229  0.62209  1.0000
  C   C11       1.0  0.16427  0.8343399999999999  0.54967  1.0000
  C   C12       1.0  0.047810000000000005  0.95567  0.91025  1.0000
  C   C13       1.0  0.50047  0.55014  0.7229099999999999  1.0000
  C   C14       1.0  0.51833  0.3982800000000001  0.75414  1.0000
  C   C15       1.0  0.5734200000000002  0.33145  0.64658  1.0000
  C   C16       1.0  0.59646  0.17901000000000003  0.67123  1.0000
  N   N1        1.0  0.2062  0.07719  0.18148999999999998  1.0000
  N   N2        1.0  0.32081  0.17773  0.43378  1.0000
  N   N3        1.0  0.74741  0.12210999999999998  0.35128  1.0000
  N   N4        1.0  0.7959100000000002  0.3128  0.9856099999999999  1.0000
  N   N5        1.0  0.5288600000000001  0.34478  0.1805  1.0000
  N   N6        1.0  0.5360000000000003  0.9010500000000001  0.24056  1.0000
  N   N7        1.0  0.53738  0.87376  0.9588799999999998  1.0000
  N   N8        1.0  0.71892  0.8733399999999999  0.68911  1.0000
  N   N9        1.0  0.27307000000000003  0.7835700000000001  0.6037  1.0000
  N   N10       1.0  0.13943000000000003  0.89496  0.8535099999999999  1.0000
  N   N11       1.0  0.43944999999999995  0.62136  0.82133  1.0000
  N   N12       1.0  0.4286300000000001  0.09231  0.71851  1.0000
