data_image0
_chemical_formula_structural       MnH12C18N6
_chemical_formula_sum              "Mn1 H12 C18 N6"
_cell_length_a       4.49806
_cell_length_b       9.73845
_cell_length_c       12.08526
_cell_angle_alpha    106.51993
_cell_angle_beta     107.25272
_cell_angle_gamma    88.10816

_symmetry_space_group_name_H-M    'P 1'
_symmetry_Int_Tables_number       1

loop_
  _symmetry_equiv_pos_as_xyz
  'x,y,z'

loop_
  _atom_site_type_symbol
  _atom_site_label
  _atom_site_symmetry_multiplicity
  _atom_site_fract_x
  _atom_site_fract_y
  _atom_site_fract_z
  _atom_site_occupancy
  Mn  Mn1       1.0  0.0009900000000000009  0.9971199999999999  0.003  1.0000
  H   H1        1.0  0.0881299999999998  0.27615  0.8571  1.0000
  H   H2        1.0  0.34714  0.50789  0.8790400000000002  1.0000
  H   H3        1.0  0.31901  0.8431000000000001  0.7892900000000002  1.0000
  H   H4        1.0  0.35454  0.84114  0.5897  1.0000
  H   H5        1.0  0.59323  0.11407000000000002  0.76765  1.0000
  H   H6        1.0  0.6016799999999999  0.12855  0.56702  1.0000
  H   H7        1.0  0.9142099999999999  0.71956  0.14976  1.0000
  H   H8        1.0  0.6552599999999997  0.48784000000000005  0.12787  1.0000
  H   H9        1.0  0.68161  0.15194  0.21612000000000006  1.0000
  H   H10       1.0  0.6480599999999999  0.1555  0.41625  1.0000
  H   H11       1.0  0.4095799999999999  0.8822299999999998  0.23864000000000002  1.0000
  H   H12       1.0  0.4026200000000001  0.86901  0.4397200000000001  1.0000
  C   C1        1.0  0.05598000000000008  0.37261  0.9233100000000001  1.0000
  C   C2        1.0  0.50563  0.20457  0.016890000000000002  1.0000
  C   C3        1.0  0.21508000000000013  0.5015  0.9395400000000002  1.0000
  C   C4        1.0  0.9905299999999999  0.9933700000000001  0.5611800000000001  1.0000
  C   C5        1.0  0.85139  0.36608  0.98891  1.0000
  C   C6        1.0  0.15612000000000012  0.9019099999999999  0.7358200000000003  1.0000
  C   C7        1.0  0.19606  0.9117300000000002  0.62771  1.0000
  C   C8        1.0  0.73886  0.046050000000000056  0.7201700000000001  1.0000
  C   C9        1.0  0.7648100000000001  0.06206000000000007  0.6111900000000001  1.0000
  C   C10       1.0  0.94689  0.62305  0.0837  1.0000
  C   C11       1.0  0.4961999999999998  0.79036  0.98904  1.0000
  C   C12       1.0  0.7877899999999998  0.4941400000000001  0.0675  1.0000
  C   C13       1.0  0.012860000000000017  0.003660000000000003  0.44523  1.0000
  C   C14       1.0  0.15115  0.62957  0.01798  1.0000
  C   C15       1.0  0.8456199999999999  0.09389  0.26996  1.0000
  C   C16       1.0  0.8067700000000001  0.08485000000000002  0.37843000000000004  1.0000
  C   C17       1.0  0.26382000000000005  0.9503499999999999  0.28598  1.0000
  C   C18       1.0  0.23868  0.935  0.39527  1.0000
  N   N1        1.0  0.9401199999999998  0.9691399999999999  0.78425  1.0000
  N   N2        1.0  0.34360999999999997  0.14659  0.05551  1.0000
  N   N3        1.0  0.71594  0.23315  0.9744  1.0000
  N   N4        1.0  0.061459999999999994  0.02651  0.22151  1.0000
  N   N5        1.0  0.65826  0.8475499999999999  0.9499  1.0000
  N   N6        1.0  0.28582  0.76251  0.03183  1.0000
