data_image0
_chemical_formula_structural       La2Eu2H24C24O30
_chemical_formula_sum              "La2 Eu2 H24 C24 O30"
_cell_length_a       9.41951
_cell_length_b       9.398
_cell_length_c       17.33507
_cell_angle_alpha    89.97374999999998
_cell_angle_beta     90.00984999999999
_cell_angle_gamma    120.00298

_symmetry_space_group_name_H-M    'P 1'
_symmetry_Int_Tables_number       1

loop_
  _symmetry_equiv_pos_as_xyz
  'x,y,z'

loop_
  _atom_site_type_symbol
  _atom_site_label
  _atom_site_symmetry_multiplicity
  _atom_site_fract_x
  _atom_site_fract_y
  _atom_site_fract_z
  _atom_site_occupancy
  La  La1       1.0  0.6667599999999999  0.33256  0.24992000000000003  1.0000
  La  La2       1.0  0.3335300000000001  0.6667400000000002  0.75001  1.0000
  Eu  Eu1       1.0  0.99965  0.99979  0.9999  1.0000
  Eu  Eu2       1.0  0.00059  0.00032  0.49995  1.0000
  H   H1        1.0  0.43089  0.01081  0.0887  1.0000
  H   H2        1.0  0.51522  0.18128  0.02406  1.0000
  H   H3        1.0  0.98868  0.41736  0.08934  1.0000
  H   H4        1.0  0.82087  0.33507  0.0237  1.0000
  H   H5        1.0  0.58102  0.57023  0.08872  1.0000
  H   H6        1.0  0.66736  0.48569  0.02481  1.0000
  H   H7        1.0  0.42843999999999993  0.010870000000000003  0.41077  1.0000
  H   H8        1.0  0.51434  0.17924  0.47632  1.0000
  H   H9        1.0  0.9895000000000002  0.41937  0.4114300000000001  1.0000
  H   H10       1.0  0.8189  0.33241  0.4754399999999999  1.0000
  H   H11       1.0  0.57988  0.56853  0.4112  1.0000
  H   H12       1.0  0.66524  0.48389  0.47583  1.0000
  H   H13       1.0  0.010630000000000056  0.42972  0.9113  1.0000
  H   H14       1.0  0.18147  0.51398  0.9753  1.0000
  H   H15       1.0  0.41997  0.9889699999999999  0.91126  1.0000
  H   H16       1.0  0.33429  0.81869  0.9759400000000001  1.0000
  H   H17       1.0  0.57113  0.5822  0.91078  1.0000
  H   H18       1.0  0.48578  0.66482  0.9763400000000001  1.0000
  H   H19       1.0  0.011240000000000016  0.42881  0.58934  1.0000
  H   H20       1.0  0.17929000000000006  0.51489  0.52375  1.0000
  H   H21       1.0  0.41884  0.98948  0.58865  1.0000
  H   H22       1.0  0.33224  0.81838  0.5247  1.0000
  H   H23       1.0  0.56859  0.57952  0.58865  1.0000
  H   H24       1.0  0.48481  0.66577  0.52399  1.0000
  C   C1        1.0  0.34855  0.18644  0.10687  1.0000
  C   C2        1.0  0.40208  0.09153  0.05413  1.0000
  C   C3        1.0  0.81316  0.16047  0.10633  1.0000
  C   C4        1.0  0.9084700000000001  0.30902  0.05401  1.0000
  C   C5        1.0  0.83768  0.65427  0.10804  1.0000
  C   C6        1.0  0.69084  0.59934  0.05448  1.0000
  C   C7        1.0  0.34831  0.18734  0.39359  1.0000
  C   C8        1.0  0.40072  0.09152  0.44602  1.0000
  C   C9        1.0  0.81681  0.16197  0.39198  1.0000
  C   C10       1.0  0.90878  0.30909  0.44558  1.0000
  C   C11       1.0  0.8375700000000001  0.65105  0.39311  1.0000
  C   C12       1.0  0.68919  0.59743  0.44578  1.0000
  C   C13       1.0  0.18324  0.34542  0.8920300000000001  1.0000
  C   C14       1.0  0.09133000000000005  0.40050000000000013  0.94557  1.0000
  C   C15       1.0  0.16231  0.81355  0.8931  1.0000
  C   C16       1.0  0.31062000000000006  0.9083600000000001  0.9458200000000001  1.0000
  C   C17       1.0  0.65215  0.83915  0.89364  1.0000
  C   C18       1.0  0.59929  0.69071  0.9460300000000001  1.0000
  C   C19       1.0  0.18695  0.34809  0.60635  1.0000
  C   C20       1.0  0.09157999999999998  0.401  0.55401  1.0000
  C   C21       1.0  0.16214  0.81658  0.60812  1.0000
  C   C22       1.0  0.30892  0.90853  0.55447  1.0000
  C   C23       1.0  0.65157  0.83783  0.60682  1.0000
  C   C24       1.0  0.59784  0.68921  0.55408  1.0000
  O   O1        1.0  0.4499699999999999  0.27159  0.15982  1.0000
  O   O2        1.0  0.2137  0.17863  0.09384  1.0000
  O   O3        1.0  0.72928  0.17713  0.15982  1.0000
  O   O4        1.0  0.81846  0.03138  0.09377  1.0000
  O   O5        1.0  0.8221800000000001  0.5509  0.16001  1.0000
  O   O6        1.0  0.96355  0.79212  0.09763  1.0000
  O   O7        1.0  0.44899000000000006  0.27097  0.34008  1.0000
  O   O8        1.0  0.21450999999999998  0.18272  0.40621  1.0000
  O   O9        1.0  0.72898  0.17741  0.34007  1.0000
  O   O10       1.0  0.82861  0.03587  0.40229  1.0000
  O   O11       1.0  0.82144  0.54977  0.34011  1.0000
  O   O12       1.0  0.9648400000000001  0.78611  0.40622  1.0000
  O   O13       1.0  0.27113  0.44869  0.8400800000000003  1.0000
  O   O14       1.0  0.17129  0.20744  0.90241  1.0000
  O   O15       1.0  0.1785  0.72851  0.84005  1.0000
  O   O16       1.0  0.03514999999999997  0.82119  0.90619  1.0000
  O   O17       1.0  0.55146  0.82228  0.84018  1.0000
  O   O18       1.0  0.78631  0.9682  0.90618  1.0000
  O   O19       1.0  0.2709  0.44873  0.65984  1.0000
  O   O20       1.0  0.18169  0.21371  0.59376  1.0000
  O   O21       1.0  0.17764  0.72879  0.66011  1.0000
  O   O22       1.0  0.03640999999999998  0.82854  0.59772  1.0000
  O   O23       1.0  0.55013  0.82156  0.65974  1.0000
  O   O24       1.0  0.7865500000000001  0.96504  0.59384  1.0000
  O   O25       1.0  0.27424  1.999999999999999e-05  0.99996  1.0000
  O   O26       1.0  0.0002599999999999931  0.27285  0.0  1.0000
  O   O27       1.0  0.72728  0.72696  1e-05  1.0000
  O   O28       1.0  0.2727200000000001  0.99988  0.50005  1.0000
  O   O29       1.0  4.9999999999985074e-05  0.27282  0.49994  1.0000
  O   O30       1.0  0.72572  0.72552  0.49997  1.0000
