data_image0
_chemical_formula_structural       Cu2H24C24N36
_chemical_formula_sum              "Cu2 H24 C24 N36"
_cell_length_a       10.45874
_cell_length_b       11.13869
_cell_length_c       11.105170000000001
_cell_angle_alpha    71.66403
_cell_angle_beta     68.27658
_cell_angle_gamma    73.41514

_space_group_name_H-M_alt    "P 1"
_space_group_IT_number       1

loop_
  _space_group_symop_operation_xyz
  'x, y, z'

loop_
  _atom_site_type_symbol
  _atom_site_label
  _atom_site_symmetry_multiplicity
  _atom_site_fract_x
  _atom_site_fract_y
  _atom_site_fract_z
  _atom_site_occupancy
  Cu  Cu1       1.0  0.51298  0.02904  0.01202  1.0000
  Cu  Cu2       1.0  0.98059  0.49134  0.50104  1.0000
  H   H1        1.0  0.20854999999999999  0.12739999999999999  0.9395100000000001  1.0000
  H   H2        1.0  0.27828999999999987  0.49834000000000006  0.89712  1.0000
  H   H3        1.0  0.60664  0.275  0.9288900000000001  1.0000
  H   H4        1.0  0.03728  0.10924000000000003  0.77508  1.0000
  H   H5        1.0  0.9303  0.46125  0.99132  1.0000
  H   H6        1.0  0.22489999999999993  0.3543200000000001  0.6423  1.0000
  H   H7        1.0  0.86459  0.7655600000000001  0.60266  1.0000
  H   H8        1.0  0.46580999999999995  0.73375  0.61129  1.0000
  H   H9        1.0  0.69066  0.3961  0.62979  1.0000
  H   H10       1.0  0.90032  0.00250999999999999  0.66643  1.0000
  H   H11       1.0  0.4917500000000001  0.048219999999999985  0.54371  1.0000
  H   H12       1.0  0.6460799999999999  0.7989700000000001  0.86069  1.0000
  H   H13       1.0  0.8724499999999998  0.91552  0.9031500000000001  1.0000
  H   H14       1.0  0.7176200000000001  0.57345  0.08643  1.0000
  H   H15       1.0  0.39513999999999994  0.7845300000000001  0.12505  1.0000
  H   H16       1.0  0.969  0.93785  0.13778  1.0000
  H   H17       1.0  0.09874999999999999  0.67004  0.02696  1.0000
  H   H18       1.0  0.9452000000000003  0.3467000000000001  0.29831  1.0000
  H   H19       1.0  0.14731000000000005  0.18588  0.49145  1.0000
  H   H20       1.0  0.49678  0.34785  0.39998  1.0000
  H   H21       1.0  0.23187  0.63069  0.3729  1.0000
  H   H22       1.0  0.99827  0.016779999999999993  0.3519  1.0000
  H   H23       1.0  0.25577000000000005  0.93242  0.48946000000000006  1.0000
  H   H24       1.0  0.6607200000000001  0.9754700000000001  0.24038  1.0000
  C   C1        1.0  0.25544  0.20219  0.9404300000000001  1.0000
  C   C2        1.0  0.29333  0.39455  0.91792  1.0000
  C   C3        1.0  0.7162099999999999  0.23320000000000002  0.92179  1.0000
  C   C4        1.0  0.9399699999999999  0.15016000000000002  0.8412200000000001  1.0000
  C   C5        1.0  0.9682099999999999  0.44646000000000013  0.89099  1.0000
  C   C6        1.0  0.12540000000000004  0.39057000000000003  0.70918  1.0000
  C   C7        1.0  0.7839199999999998  0.7280100000000003  0.59436  1.0000
  C   C8        1.0  0.5765599999999999  0.71033  0.60022  1.0000
  C   C9        1.0  0.7363300000000002  0.30081  0.61018  1.0000
  C   C10       1.0  0.8437200000000001  0.09707999999999999  0.6299  1.0000
  C   C11       1.0  0.52038  0.014750000000000001  0.63565  1.0000
  C   C12       1.0  0.60068  0.8858  0.8005299999999999  1.0000
  C   C13       1.0  0.8040599999999994  0.84636  0.95826  1.0000
  C   C14       1.0  0.72581  0.67435  0.051960000000000006  1.0000
  C   C15       1.0  0.30099000000000004  0.82466  0.09367  1.0000
  C   C16       1.0  0.08089999999999994  0.9053600000000002  0.09944  1.0000
  C   C17       1.0  0.05726000000000001  0.60191  0.11844  1.0000
  C   C18       1.0  0.9791300000000001  0.43839000000000006  0.25335  1.0000
  C   C19       1.0  0.21506999999999996  0.2531  0.46802  1.0000
  C   C20       1.0  0.39073999999999987  0.33653  0.4192000000000001  1.0000
  C   C21       1.0  0.16846999999999998  0.7206000000000002  0.40073000000000003  1.0000
  C   C22       1.0  0.047339999999999945  0.91947  0.3902  1.0000
  C   C23       1.0  0.34439999999999993  0.9549200000000001  0.40233  1.0000
  C   C24       1.0  0.54921  0.9759400000000001  0.27904  1.0000
  N   N1        1.0  0.20766999999999997  0.33183  0.90051  1.0000
  N   N2        1.0  0.36525  0.18855999999999998  0.9781800000000002  1.0000
  N   N3        1.0  0.38968  0.30892  0.96438  1.0000
  N   N4        1.0  0.77675  0.21435  0.01291  1.0000
  N   N5        1.0  0.91799  0.16124  0.96226  1.0000
  N   N6        1.0  0.8158  0.19476000000000016  0.81066  1.0000
  N   N7        1.0  0.005419999999999962  0.44763000000000003  0.68455  1.0000
  N   N8        1.0  0.90647  0.48346  0.7981600000000001  1.0000
  N   N9        1.0  0.10564999999999991  0.3877300000000003  0.83861  1.0000
  N   N10       1.0  0.6454700000000003  0.78724  0.62135  1.0000
  N   N11       1.0  0.7977900000000001  0.62221  0.55799  1.0000
  N   N12       1.0  0.66769  0.61047  0.56123  1.0000
  N   N13       1.0  0.7440100000000002  0.26456  0.50537  1.0000
  N   N14       1.0  0.81311  0.13629  0.51712  1.0000
  N   N15       1.0  0.79721  0.19752000000000003  0.69264  1.0000
  N   N16       1.0  0.54421  0.00016999999999996578  0.8272700000000001  1.0000
  N   N17       1.0  0.49150000000000005  0.08073  0.72528  1.0000
  N   N18       1.0  0.5888899999999998  0.8909300000000001  0.68059  1.0000
  N   N19       1.0  0.84506  0.71858  0.96977  1.0000
  N   N20       1.0  0.6677200000000001  0.87893  0.02838  1.0000
  N   N21       1.0  0.61604  0.76684  0.08966  1.0000
  N   N22       1.0  0.29553999999999997  0.8565  0.97042  1.0000
  N   N23       1.0  0.15621999999999997  0.9096400000000001  0.97377  1.0000
  N   N24       1.0  0.16760999999999998  0.8543500000000003  0.17794  1.0000
  N   N25       1.0  0.96466  0.52203  0.3248  1.0000
  N   N26       1.0  0.01795  0.62796  0.23780000000000004  1.0000
  N   N27       1.0  0.03511999999999999  0.48547000000000007  0.12203  1.0000
  N   N28       1.0  0.35303999999999996  0.21997000000000003  0.45456  1.0000
  N   N29       1.0  0.17033999999999994  0.38213000000000014  0.44388  1.0000
  N   N30       1.0  0.28434  0.43716999999999995  0.41148  1.0000
  N   N31       1.0  0.1146299999999999  0.7381600000000003  0.52307  1.0000
  N   N32       1.0  0.036479999999999964  0.8638600000000001  0.51649  1.0000
  N   N33       1.0  0.12824999999999998  0.83241  0.31443  1.0000
  N   N34       1.0  0.46476  0.021369999999999997  0.20102  1.0000
  N   N35       1.0  0.33085  0.006829999999999995  0.28054  1.0000
  N   N36       1.0  0.4777299999999998  0.9336600000000002  0.40729000000000004  1.0000
