data_image0
_chemical_formula_structural       Bi2H16C32O16
_chemical_formula_sum              "Bi2 H16 C32 O16"
_cell_length_a       10.31501
_cell_length_b       10.31573
_cell_length_c       13.81219
_cell_angle_alpha    97.54183
_cell_angle_beta     97.43337
_cell_angle_gamma    116.86807999999999

_space_group_name_H-M_alt    "P 1"
_space_group_IT_number       1

loop_
  _space_group_symop_operation_xyz
  'x, y, z'

loop_
  _atom_site_type_symbol
  _atom_site_label
  _atom_site_symmetry_multiplicity
  _atom_site_fract_x
  _atom_site_fract_y
  _atom_site_fract_z
  _atom_site_occupancy
  Bi  Bi1       1.0  0.4169399999999999  0.5833  0.7499199999999998  1.0000
  Bi  Bi2       1.0  0.58306  0.41669  0.25007999999999997  1.0000
  H   H1        1.0  0.9721500000000001  0.10838999999999993  0.6635699999999998  1.0000
  H   H2        1.0  0.21076  0.15555999999999998  0.4250099999999999  1.0000
  H   H3        1.0  0.02139999999999994  0.6174399999999999  0.8520099999999998  1.0000
  H   H4        1.0  0.18443000000000007  0.41709  0.05674  1.0000
  H   H5        1.0  0.8918100000000001  0.027869999999999923  0.8365599999999997  1.0000
  H   H6        1.0  0.84427  0.78926  0.0749  1.0000
  H   H7        1.0  0.38245000000000007  0.9788100000000001  0.6480599999999997  1.0000
  H   H8        1.0  0.5831300000000001  0.8156100000000001  0.44322  1.0000
  H   H9        1.0  0.027850000000000007  0.8916  0.33643  1.0000
  H   H10       1.0  0.7892400000000002  0.84444  0.5749899999999998  1.0000
  H   H11       1.0  0.9785900000000001  0.38255  0.14799  1.0000
  H   H12       1.0  0.81557  0.5829  0.9432599999999998  1.0000
  H   H13       1.0  0.10819000000000008  0.97212  0.16343  1.0000
  H   H14       1.0  0.15572  0.21073999999999998  0.9251  1.0000
  H   H15       1.0  0.6175500000000002  0.02118  0.35194  1.0000
  H   H16       1.0  0.4168700000000001  0.18437999999999993  0.5567799999999999  1.0000
  C   C1        1.0  0.21155  0.29962999999999995  0.6039099999999997  1.0000
  C   C2        1.0  0.09994999999999997  0.14614999999999997  0.54897  1.0000
  C   C3        1.0  0.9829800000000001  0.05893  0.59252  1.0000
  C   C4        1.0  0.11739  0.08662999999999997  0.45628  1.0000
  C   C5        1.0  0.23207999999999995  0.5367699999999999  0.8926399999999999  1.0000
  C   C6        1.0  0.11467999999999996  0.5208  0.9498599999999998  1.0000
  C   C7        1.0  0.010420000000000023  0.56596  0.91644  1.0000
  C   C8        1.0  0.10353999999999991  0.4536099999999999  0.033179999999999994  1.0000
  C   C9        1.0  0.7004600000000002  0.7884299999999999  0.8961199999999998  1.0000
  C   C10       1.0  0.85389  0.90005  0.9510499999999997  1.0000
  C   C11       1.0  0.9411700000000002  0.017029999999999944  0.9075499999999997  1.0000
  C   C12       1.0  0.9132900000000003  0.88261  0.04366999999999999  1.0000
  C   C13       1.0  0.4634500000000001  0.76819  0.6074  1.0000
  C   C14       1.0  0.47935000000000005  0.88548  0.5502  1.0000
  C   C15       1.0  0.43400000000000005  0.9897  0.5836  1.0000
  C   C16       1.0  0.54656  0.89652  0.46683  1.0000
  C   C17       1.0  0.78845  0.70037  0.39609  1.0000
  C   C18       1.0  0.90005  0.85384  0.4510299999999999  1.0000
  C   C19       1.0  0.017019999999999993  0.9410599999999999  0.40747  1.0000
  C   C20       1.0  0.8826  0.9133600000000001  0.5437199999999999  1.0000
  C   C21       1.0  0.76791  0.46322  0.10735999999999997  1.0000
  C   C22       1.0  0.8853100000000002  0.47918999999999995  0.05012999999999999  1.0000
  C   C23       1.0  0.98958  0.43403  0.08356  1.0000
  C   C24       1.0  0.8964600000000001  0.54639  0.9668199999999998  1.0000
  C   C25       1.0  0.29953  0.21155999999999994  0.10387999999999997  1.0000
  C   C26       1.0  0.14611000000000002  0.09994  0.048939999999999984  1.0000
  C   C27       1.0  0.05882999999999987  0.98296  0.09244999999999998  1.0000
  C   C28       1.0  0.08669999999999996  0.11738999999999995  0.9563299999999999  1.0000
  C   C29       1.0  0.53655  0.23180000000000003  0.39259999999999995  1.0000
  C   C30       1.0  0.5206500000000001  0.11450999999999999  0.44978999999999997  1.0000
  C   C31       1.0  0.566  0.010289999999999976  0.4163899999999999  1.0000
  C   C32       1.0  0.45343999999999995  0.10346999999999996  0.5331699999999999  1.0000
  O   O1        1.0  0.17076999999999998  0.37746999999999997  0.6599399999999997  1.0000
  O   O2        1.0  0.34593  0.3460999999999999  0.5962599999999998  1.0000
  O   O3        1.0  0.27230999999999994  0.64137  0.8422099999999998  1.0000
  O   O4        1.0  0.28494  0.44765  0.89062  1.0000
  O   O5        1.0  0.6227400000000001  0.82924  0.84016  1.0000
  O   O6        1.0  0.6539100000000001  0.65405  0.9037  1.0000
  O   O7        1.0  0.35876  0.72787  0.6578299999999998  1.0000
  O   O8        1.0  0.5526300000000001  0.71543  0.6093499999999997  1.0000
  O   O9        1.0  0.8292300000000001  0.62252  0.34006  1.0000
  O   O10       1.0  0.6540600000000001  0.6538899999999999  0.40374  1.0000
  O   O11       1.0  0.72768  0.35861999999999994  0.15779  1.0000
  O   O12       1.0  0.71505  0.55235  0.10937999999999998  1.0000
  O   O13       1.0  0.37725  0.17075  0.15984  1.0000
  O   O14       1.0  0.34609000000000006  0.34595  0.09629999999999998  1.0000
  O   O15       1.0  0.6412300000000001  0.27212  0.34217  1.0000
  O   O16       1.0  0.44737000000000005  0.28456999999999993  0.3906399999999999  1.0000
