data_image0
_chemical_formula_structural       Zn4H8C12N12O8
_chemical_formula_sum              "Zn4 H8 C12 N12 O8"
_cell_length_a       9.00481
_cell_length_b       9.60636
_cell_length_c       9.77323
_cell_angle_alpha    90.0
_cell_angle_beta     90.0
_cell_angle_gamma    115.93007000000001

_symmetry_space_group_name_H-M    'P 1'
_symmetry_Int_Tables_number       1

loop_
  _symmetry_equiv_pos_as_xyz
  'x,y,z'

loop_
  _atom_site_type_symbol
  _atom_site_label
  _atom_site_symmetry_multiplicity
  _atom_site_fract_x
  _atom_site_fract_y
  _atom_site_fract_z
  _atom_site_occupancy
  Zn  Zn1       1.0  0.17673000000000008  0.9374200000000001  0.94094  1.0000
  Zn  Zn2       1.0  0.82328  0.56258  0.44095  1.0000
  Zn  Zn3       1.0  0.82328  0.06258  0.05904999999999999  1.0000
  Zn  Zn4       1.0  0.17672  0.43742  0.55905  1.0000
  H   H1        1.0  0.89993  0.80268  0.68847  1.0000
  H   H2        1.0  0.26813000000000003  0.6704300000000001  0.80977  1.0000
  H   H3        1.0  0.10007  0.69731  0.18847  1.0000
  H   H4        1.0  0.73187  0.82957  0.30977  1.0000
  H   H5        1.0  0.10007  0.19731  0.31153  1.0000
  H   H6        1.0  0.73187  0.32957  0.19023  1.0000
  H   H7        1.0  0.89993  0.30268  0.81153  1.0000
  H   H8        1.0  0.26813  0.17043  0.69023  1.0000
  C   C1        1.0  0.4752799999999999  0.9180200000000002  0.03019  1.0000
  C   C2        1.0  0.9805300000000001  0.74601  0.6948  1.0000
  C   C3        1.0  0.167  0.67764  0.75541  1.0000
  C   C4        1.0  0.52472  0.58198  0.53019  1.0000
  C   C5        1.0  0.019470000000000022  0.75399  0.1948  1.0000
  C   C6        1.0  0.833  0.82236  0.25541  1.0000
  C   C7        1.0  0.52472  0.08198  0.96981  1.0000
  C   C8        1.0  0.019470000000000022  0.25399  0.3052  1.0000
  C   C9        1.0  0.833  0.32236  0.24458999999999997  1.0000
  C   C10       1.0  0.4752799999999999  0.41802  0.46981  1.0000
  C   C11       1.0  0.9805300000000001  0.24601000000000003  0.8052  1.0000
  C   C12       1.0  0.167  0.17764  0.74459  1.0000
  N   N1        1.0  0.1018  0.77675  0.78836  1.0000
  N   N2        1.0  0.9704800000000001  0.63407  0.60884  1.0000
  N   N3        1.0  0.09142999999999996  0.59046  0.64761  1.0000
  N   N4        1.0  0.8982000000000001  0.72325  0.28836  1.0000
  N   N5        1.0  0.02953000000000003  0.86593  0.10884  1.0000
  N   N6        1.0  0.90857  0.90954  0.14761  1.0000
  N   N7        1.0  0.8982000000000001  0.22325  0.21164  1.0000
  N   N8        1.0  0.029520000000000015  0.36593  0.39116  1.0000
  N   N9        1.0  0.90857  0.4095400000000001  0.35239  1.0000
  N   N10       1.0  0.1018  0.27675  0.71164  1.0000
  N   N11       1.0  0.9704800000000003  0.13407  0.89116  1.0000
  N   N12       1.0  0.09143  0.09046  0.8523900000000001  1.0000
  O   O1        1.0  0.32383  0.82468  0.02938  1.0000
  O   O2        1.0  0.59119  0.8885600000000001  0.07611  1.0000
  O   O3        1.0  0.67617  0.67532  0.52938  1.0000
  O   O4        1.0  0.40881  0.61144  0.57611  1.0000
  O   O5        1.0  0.67617  0.17532  0.97062  1.0000
  O   O6        1.0  0.40881  0.11144  0.92389  1.0000
  O   O7        1.0  0.32383  0.3246800000000001  0.47062000000000004  1.0000
  O   O8        1.0  0.59119  0.38856  0.42389  1.0000
