data_image0
_chemical_formula_structural       Pr4H12C24O24
_chemical_formula_sum              "Pr4 H12 C24 O24"
_cell_length_a       8.41415
_cell_length_b       9.21352
_cell_length_c       15.89595
_cell_angle_alpha    90.13325
_cell_angle_beta     90.00687
_cell_angle_gamma    114.94642000000002

_space_group_name_H-M_alt    "P 1"
_space_group_IT_number       1

loop_
  _space_group_symop_operation_xyz
  'x, y, z'

loop_
  _atom_site_type_symbol
  _atom_site_label
  _atom_site_symmetry_multiplicity
  _atom_site_fract_x
  _atom_site_fract_y
  _atom_site_fract_z
  _atom_site_occupancy
  Pr  Pr1       1.0  0.72907  0.73196  0.7305  1.0000
  Pr  Pr2       1.0  0.7719200000000002  0.26628  0.22973000000000005  1.0000
  Pr  Pr3       1.0  0.2736  0.26660000000000006  0.2709000000000001  1.0000
  Pr  Pr4       1.0  0.23089999999999997  0.73616  0.77122  1.0000
  H   H1        1.0  0.33051  0.51141  0.02747  1.0000
  H   H2        1.0  0.11074  0.33285  0.67169  1.0000
  H   H3        1.0  0.34270999999999996  0.15959  0.71855  1.0000
  H   H4        1.0  0.17171000000000003  0.48789000000000005  0.52688  1.0000
  H   H5        1.0  0.3887599999999999  0.66493  0.17133  1.0000
  H   H6        1.0  0.15697  0.8390400000000002  0.21709  1.0000
  H   H7        1.0  0.67326  0.49097  0.9738100000000002  1.0000
  H   H8        1.0  0.89068  0.66659  0.32818  1.0000
  H   H9        1.0  0.6577599999999999  0.83995  0.2832  1.0000
  H   H10       1.0  0.8285099999999999  0.51036  0.47568  1.0000
  H   H11       1.0  0.61452  0.33273  0.83152  1.0000
  H   H12       1.0  0.8459  0.15984  0.7828900000000002  1.0000
  C   C1        1.0  0.22279  0.17053  0.70199  1.0000
  C   C2        1.0  0.4717700000000001  0.6303200000000002  0.9123100000000002  1.0000
  C   C3        1.0  0.05828  0.023320000000000007  0.70773  1.0000
  C   C4        1.0  0.3977200000000001  0.4587500000000001  0.69055  1.0000
  C   C5        1.0  0.22832999999999998  0.31526  0.6848900000000002  1.0000
  C   C6        1.0  0.44629  0.5327  0.9897600000000002  1.0000
  C   C7        1.0  0.27676999999999996  0.8277000000000001  0.2009  1.0000
  C   C8        1.0  0.02869  0.36887  0.41228  1.0000
  C   C9        1.0  0.44162  0.97479  0.20687  1.0000
  C   C10       1.0  0.1025  0.53881  0.19006  1.0000
  C   C11       1.0  0.2712  0.68265  0.18426  1.0000
  C   C12       1.0  0.05525  0.46727  0.48981  1.0000
  C   C13       1.0  0.77791  0.8289700000000002  0.2990700000000001  1.0000
  C   C14       1.0  0.53516  0.3737  0.08968000000000002  1.0000
  C   C15       1.0  0.9423299999999999  0.97638  0.29288  1.0000
  C   C16       1.0  0.60392  0.54028  0.31002000000000013  1.0000
  C   C17       1.0  0.7729  0.68412  0.3154700000000001  1.0000
  C   C18       1.0  0.55824  0.46988  0.012000000000000004  1.0000
  C   C19       1.0  0.7265  0.17118000000000005  0.8  1.0000
  C   C20       1.0  0.9711  0.62889  0.5905500000000002  1.0000
  C   C21       1.0  0.56129  0.02408  0.79474  1.0000
  C   C22       1.0  0.90068  0.46082  0.81181  1.0000
  C   C23       1.0  0.73234  0.31605  0.8175700000000002  1.0000
  C   C24       1.0  0.94495  0.53145  0.51286  1.0000
  O   O1        1.0  0.35678  0.6822400000000002  0.89587  1.0000
  O   O2        1.0  0.6059499999999998  0.65508  0.8666  1.0000
  O   O3        1.0  0.9142799999999998  0.014550000000000002  0.6788600000000002  1.0000
  O   O4        1.0  0.54206  0.4464  0.68818  1.0000
  O   O5        1.0  0.06367999999999999  0.90174  0.74691  1.0000
  O   O6        1.0  0.39723999999999987  0.59863  0.7001  1.0000
  O   O7        1.0  0.14487000000000003  0.31811000000000006  0.3957500000000001  1.0000
  O   O8        1.0  0.8938199999999998  0.34247000000000005  0.36681  1.0000
  O   O9        1.0  0.58563  0.98282  0.17858  1.0000
  O   O10       1.0  0.9570399999999999  0.54904  0.18738  1.0000
  O   O11       1.0  0.43640999999999996  0.09702  0.24583  1.0000
  O   O12       1.0  0.10459  0.39987  0.20021000000000005  1.0000
  O   O13       1.0  0.64831  0.3184  0.10435000000000003  1.0000
  O   O14       1.0  0.4053699999999999  0.35415  0.13749  1.0000
  O   O15       1.0  0.08666000000000007  0.9851100000000002  0.3214  1.0000
  O   O16       1.0  0.45877  0.55081  0.31287  1.0000
  O   O17       1.0  0.9367999999999997  0.09791  0.25391  1.0000
  O   O18       1.0  0.6054099999999999  0.40076  0.3000200000000001  1.0000
  O   O19       1.0  0.8562499999999998  0.68138  0.60694  1.0000
  O   O20       1.0  0.10406  0.65276  0.6368700000000003  1.0000
  O   O21       1.0  0.41898  0.015260000000000001  0.8257500000000002  1.0000
  O   O22       1.0  0.04634000000000001  0.45098  0.8126  1.0000
  O   O23       1.0  0.5636  0.90258  0.75382  1.0000
  O   O24       1.0  0.8976999999999999  0.59992  0.8037600000000003  1.0000
