data_image0
_chemical_formula_structural       Cd2H8C16N12O4
_chemical_formula_sum              "Cd2 H8 C16 N12 O4"
_cell_length_a       7.85879
_cell_length_b       8.87742
_cell_length_c       11.80297
_cell_angle_alpha    76.87025
_cell_angle_beta     70.34546
_cell_angle_gamma    64.08592999999999

_symmetry_space_group_name_H-M    'P 1'
_symmetry_Int_Tables_number       1

loop_
  _symmetry_equiv_pos_as_xyz
  'x,y,z'

loop_
  _atom_site_type_symbol
  _atom_site_label
  _atom_site_symmetry_multiplicity
  _atom_site_fract_x
  _atom_site_fract_y
  _atom_site_fract_z
  _atom_site_occupancy
  Cd  Cd1       1.0  0.4337100000000001  0.24842000000000003  0.7500199999999999  1.0000
  Cd  Cd2       1.0  0.5662899999999998  0.7515800000000002  0.24997999999999995  1.0000
  H   H1        1.0  0.55343  0.51297  0.08655  1.0000
  H   H2        1.0  0.6227700000000003  0.29685  0.09617  1.0000
  H   H3        1.0  0.15450999999999984  0.9945700000000004  0.41598  1.0000
  H   H4        1.0  0.017230000000000037  0.2097900000000001  0.4052399999999999  1.0000
  H   H5        1.0  0.4465700000000001  0.4870400000000002  0.91345  1.0000
  H   H6        1.0  0.37723000000000007  0.7031600000000001  0.9038299999999998  1.0000
  H   H7        1.0  0.8454800000000003  0.005440000000000001  0.58402  1.0000
  H   H8        1.0  0.9827700000000005  0.79022  0.59476  1.0000
  C   C1        1.0  0.5228699999999998  0.39977000000000024  0.25795  1.0000
  C   C2        1.0  0.5699700000000002  0.2356800000000001  0.32752  1.0000
  C   C3        1.0  0.5714999999999998  0.22476000000000002  0.44670999999999994  1.0000
  C   C4        1.0  0.6277000000000001  0.08635000000000001  0.27862999999999993  1.0000
  C   C5        1.0  0.17999999999999997  0.10384000000000004  0.24416999999999997  1.0000
  C   C6        1.0  0.13273000000000001  0.26581  0.17188999999999996  1.0000
  C   C7        1.0  0.24639000000000003  0.2743000000000001  0.05312999999999999  1.0000
  C   C8        1.0  0.99047  0.4157800000000001  0.21837  1.0000
  C   C9        1.0  0.47712000000000004  0.60024  0.7420499999999999  1.0000
  C   C10       1.0  0.4300200000000002  0.7643200000000002  0.6724699999999999  1.0000
  C   C11       1.0  0.4284999999999998  0.7752500000000002  0.55329  1.0000
  C   C12       1.0  0.3723000000000001  0.91366  0.72137  1.0000
  C   C13       1.0  0.8199900000000002  0.8961700000000002  0.75582  1.0000
  C   C14       1.0  0.86727  0.7342  0.82811  1.0000
  C   C15       1.0  0.7536099999999999  0.72571  0.9468599999999999  1.0000
  C   C16       1.0  0.009519999999999832  0.5842300000000004  0.78163  1.0000
  N   N1        1.0  0.54637  0.4051900000000001  0.13738  1.0000
  N   N2        1.0  0.5830300000000003  0.20963000000000004  0.5457599999999999  1.0000
  N   N3        1.0  0.6789599999999998  0.9608600000000003  0.23591  1.0000
  N   N4        1.0  0.08899000000000006  0.10067000000000002  0.3650699999999999  1.0000
  N   N5        1.0  0.34567999999999977  0.2873000000000001  0.95448  1.0000
  N   N6        1.0  0.87194  0.54169  0.25934  1.0000
  N   N7        1.0  0.4536299999999998  0.5948100000000002  0.86262  1.0000
  N   N8        1.0  0.41695999999999994  0.7903800000000002  0.45424  1.0000
  N   N9        1.0  0.3210300000000001  0.039140000000000036  0.7640899999999998  1.0000
  N   N10       1.0  0.91101  0.8993400000000003  0.63493  1.0000
  N   N11       1.0  0.6543199999999998  0.7127100000000002  0.04552  1.0000
  N   N12       1.0  0.12805000000000005  0.45832  0.7406599999999999  1.0000
  O   O1        1.0  0.4608200000000001  0.5305700000000002  0.30986  1.0000
  O   O2        1.0  0.30068999999999985  0.9719000000000002  0.19416999999999995  1.0000
  O   O3        1.0  0.5391800000000001  0.46944  0.69013  1.0000
  O   O4        1.0  0.69931  0.028110000000000007  0.80583  1.0000
