data_image0
_chemical_formula_structural       Dy2H22C42O12
_chemical_formula_sum              "Dy2 H22 C42 O12"
_cell_length_a       8.94335
_cell_length_b       11.14676
_cell_length_c       12.41735
_cell_angle_alpha    68.44789999999999
_cell_angle_beta     86.20059
_cell_angle_gamma    79.59934

_symmetry_space_group_name_H-M    'P 1'
_symmetry_Int_Tables_number       1

loop_
  _symmetry_equiv_pos_as_xyz
  'x,y,z'

loop_
  _atom_site_type_symbol
  _atom_site_label
  _atom_site_symmetry_multiplicity
  _atom_site_fract_x
  _atom_site_fract_y
  _atom_site_fract_z
  _atom_site_occupancy
  Dy  Dy1       1.0  0.7020199999999998  0.9791400000000001  0.45014  1.0000
  Dy  Dy2       1.0  0.28602  0.024290000000000006  0.54842  1.0000
  H   H1        1.0  0.22118999999999991  0.6333300000000002  0.7648199999999999  1.0000
  H   H2        1.0  0.9988199999999999  0.30249  0.8496500000000001  1.0000
  H   H3        1.0  0.85873  0.64646  0.55307  1.0000
  H   H4        1.0  0.96222  0.22245  0.68561  1.0000
  H   H5        1.0  0.78527  0.10856999999999996  0.63998  1.0000
  H   H6        1.0  0.42729  0.42439  0.614  1.0000
  H   H7        1.0  0.60504  0.54451  0.6545  1.0000
  H   H8        1.0  0.9977599999999998  0.3326  0.02369  1.0000
  H   H9        1.0  0.11863999999999998  0.21186  0.21321  1.0000
  H   H10       1.0  0.54156  0.31265  0.07189  1.0000
  H   H11       1.0  0.42391  0.4370800000000001  0.8806  1.0000
  H   H12       1.0  0.7792099999999997  0.36628  0.23572  1.0000
  H   H13       1.0  0.0008199999999999746  0.6972900000000001  0.15037  1.0000
  H   H14       1.0  0.14166  0.35442000000000007  0.44704  1.0000
  H   H15       1.0  0.037640000000000014  0.77691  0.31487  1.0000
  H   H16       1.0  0.2142499999999998  0.8912200000000001  0.36024000000000006  1.0000
  H   H17       1.0  0.57252  0.57487  0.38582  1.0000
  H   H18       1.0  0.39469  0.4552  0.34527  1.0000
  H   H19       1.0  0.002109999999999983  0.6679  0.9758  1.0000
  H   H20       1.0  0.88223  0.78805  0.7865499999999999  1.0000
  H   H21       1.0  0.4585000000000001  0.68752  0.92787  1.0000
  H   H22       1.0  0.57599  0.5637  0.11838000000000001  1.0000
  C   C1        1.0  0.05603999999999998  0.7904  0.57828  1.0000
  C   C2        1.0  0.04294999999999993  0.6513900000000001  0.65112  1.0000
  C   C3        1.0  0.13849  0.58374  0.74679  1.0000
  C   C4        1.0  0.12004000000000002  0.45904  0.82239  1.0000
  C   C5        1.0  0.010509999999999983  0.4005100000000001  0.79325  1.0000
  C   C6        1.0  0.91373  0.46435000000000004  0.69772  1.0000
  C   C7        1.0  0.93106  0.5918399999999999  0.62719  1.0000
  C   C8        1.0  0.80089  0.3948400000000001  0.67281  1.0000
  C   C9        1.0  0.8454499999999997  0.26883999999999997  0.67113  1.0000
  C   C10       1.0  0.74523  0.20380999999999996  0.64359  1.0000
  C   C11       1.0  0.59309  0.25935  0.62079  1.0000
  C   C12       1.0  0.5451800000000001  0.3818199999999999  0.62857  1.0000
  C   C13       1.0  0.64693  0.4488500000000001  0.65204  1.0000
  C   C14       1.0  0.48673999999999995  0.1905  0.58751  1.0000
  C   C15       1.0  0.20061999999999988  0.39132  0.93485  1.0000
  C   C16       1.0  0.11795999999999998  0.32680000000000003  0.03206  1.0000
  C   C17       1.0  0.1842  0.2596900000000001  0.1391  1.0000
  C   C18       1.0  0.33872999999999986  0.25305999999999995  0.15402  1.0000
  C   C19       1.0  0.42242  0.31818  0.059050000000000005  1.0000
  C   C20       1.0  0.35483999999999993  0.38800000000000007  0.95194  1.0000
  C   C21       1.0  0.40668  0.17699000000000004  0.27098  1.0000
  C   C22       1.0  0.9446799999999997  0.20959000000000005  0.42144000000000004  1.0000
  C   C23       1.0  0.95745  0.34890000000000004  0.3489  1.0000
  C   C24       1.0  0.86192  0.41617  0.25311  1.0000
  C   C25       1.0  0.87989  0.54082  0.17733  1.0000
  C   C26       1.0  0.9892899999999999  0.59931  0.20658000000000004  1.0000
  C   C27       1.0  0.08627999999999997  0.53583  0.30199  1.0000
  C   C28       1.0  0.06947  0.40843000000000007  0.37268000000000007  1.0000
  C   C29       1.0  0.19903999999999994  0.6052500000000002  0.3268  1.0000
  C   C30       1.0  0.15454999999999997  0.7309700000000001  0.32898  1.0000
  C   C31       1.0  0.25462  0.79607  0.35658  1.0000
  C   C32       1.0  0.40687999999999996  0.7402700000000001  0.37902  1.0000
  C   C33       1.0  0.45469999999999994  0.6178200000000001  0.37107  1.0000
  C   C34       1.0  0.35292  0.55089  0.3476  1.0000
  C   C35       1.0  0.51397  0.80834  0.41286  1.0000
  C   C36       1.0  0.7994699999999997  0.60867  0.06477  1.0000
  C   C37       1.0  0.88195  0.67352  0.96765  1.0000
  C   C38       1.0  0.81597  0.74035  0.86028  1.0000
  C   C39       1.0  0.66176  0.74737  0.84421  1.0000
  C   C40       1.0  0.57793  0.6823  0.9395500000000001  1.0000
  C   C41       1.0  0.64527  0.61259  0.04704  1.0000
  C   C42       1.0  0.59335  0.82519  0.72707  1.0000
  O   O1        1.0  0.95861  0.85708  0.49764  1.0000
  O   O2        1.0  0.16656000000000004  0.8365399999999998  0.6018  1.0000
  O   O3        1.0  0.3436  0.21693999999999997  0.59765  1.0000
  O   O4        1.0  0.54251  0.09977  0.54498  1.0000
  O   O5        1.0  0.31115  0.15651000000000007  0.35599000000000003  1.0000
  O   O6        1.0  0.55071  0.13798  0.28184  1.0000
  O   O7        1.0  0.04451999999999999  0.14329  0.50148  1.0000
  O   O8        1.0  0.83436  0.16284000000000004  0.40038  1.0000
  O   O9        1.0  0.65704  0.7826000000000001  0.40189  1.0000
  O   O10       1.0  0.45718999999999993  0.90153  0.45455  1.0000
  O   O11       1.0  0.68913  0.84709  0.64154  1.0000
  O   O12       1.0  0.44967  0.8630100000000003  0.71746  1.0000
