data_image0
_chemical_formula_structural       Zn2H20C32N6O8
_chemical_formula_sum              "Zn2 H20 C32 N6 O8"
_cell_length_a       7.49607
_cell_length_b       9.72428
_cell_length_c       13.54514
_cell_angle_alpha    70.74163
_cell_angle_beta     75.5344
_cell_angle_gamma    87.64622

_symmetry_space_group_name_H-M    'P 1'
_symmetry_Int_Tables_number       1

loop_
  _symmetry_equiv_pos_as_xyz
  'x,y,z'

loop_
  _atom_site_type_symbol
  _atom_site_label
  _atom_site_symmetry_multiplicity
  _atom_site_fract_x
  _atom_site_fract_y
  _atom_site_fract_z
  _atom_site_occupancy
  Zn  Zn1       1.0  0.99989  0.50057  0.9997199999999999  1.0000
  Zn  Zn2       1.0  0.49865000000000004  0.99986  0.9998699999999999  1.0000
  H   H1        1.0  0.86391  0.27109  0.22330999999999998  1.0000
  H   H2        1.0  0.011720000000000022  0.7116  0.12037999999999997  1.0000
  H   H3        1.0  0.87383  0.24009000000000003  0.4131299999999999  1.0000
  H   H4        1.0  0.026000000000000023  0.70026  0.30344999999999994  1.0000
  H   H5        1.0  0.9309999999999996  0.33893000000000006  0.54216  1.0000
  H   H6        1.0  0.33680000000000004  0.69457  0.15332999999999997  1.0000
  H   H7        1.0  0.71575  0.97749  0.17021999999999995  1.0000
  H   H8        1.0  0.34004999999999996  0.51962  0.33418  1.0000
  H   H9        1.0  0.71834  0.82543  0.35643  1.0000
  H   H10       1.0  0.61594  0.61847  0.51069  1.0000
  H   H11       1.0  0.13568999999999995  0.7296  0.7760099999999999  1.0000
  H   H12       1.0  0.9864000000000003  0.2893700000000002  0.8797599999999998  1.0000
  H   H13       1.0  0.12704  0.7598399999999998  0.58609  1.0000
  H   H14       1.0  0.97256  0.2999300000000001  0.69676  1.0000
  H   H15       1.0  0.06929000000000002  0.66081  0.45751  1.0000
  H   H16       1.0  0.6610699999999998  0.3044800000000001  0.84706  1.0000
  H   H17       1.0  0.2809800000000001  0.02334000000000014  0.8292499999999998  1.0000
  H   H18       1.0  0.66006  0.4795900000000001  0.66587  1.0000
  H   H19       1.0  0.28041  0.17565000000000008  0.6426099999999999  1.0000
  H   H20       1.0  0.3845100000000001  0.38184000000000007  0.4886899999999999  1.0000
  C   C1        1.0  0.7538300000000001  0.7458500000000001  0.9480299999999999  1.0000
  C   C2        1.0  0.5661099999999999  0.36568  0.03262  1.0000
  C   C3        1.0  0.61721  0.6176400000000001  0.9744499999999998  1.0000
  C   C4        1.0  0.9014499999999998  0.36189  0.24549  1.0000
  C   C5        1.0  0.98245  0.6093  0.18775  1.0000
  C   C6        1.0  0.64467  0.21874  0.07532  1.0000
  C   C7        1.0  0.9063799999999996  0.34634000000000004  0.3505199999999999  1.0000
  C   C8        1.0  0.9904  0.6015  0.29063  1.0000
  C   C9        1.0  0.9557199999999999  0.46696  0.37516999999999995  1.0000
  C   C10       1.0  0.9708899999999996  0.4477  0.48382  1.0000
  C   C11       1.0  0.42223  0.71666  0.20087  1.0000
  C   C12       1.0  0.63206  0.8767100000000001  0.20976  1.0000
  C   C13       1.0  0.4235799999999998  0.62071  0.30273  1.0000
  C   C14       1.0  0.63309  0.7899900000000001  0.31421999999999994  1.0000
  C   C15       1.0  0.5285699999999998  0.6576100000000001  0.36411999999999994  1.0000
  C   C16       1.0  0.53795  0.56818  0.47251  1.0000
  C   C17       1.0  0.24493999999999996  0.25506  0.05167  1.0000
  C   C18       1.0  0.43233999999999995  0.6353900000000001  0.96762  1.0000
  C   C19       1.0  0.3813299999999999  0.38336  0.02565  1.0000
  C   C20       1.0  0.09816999999999992  0.63869  0.75395  1.0000
  C   C21       1.0  0.016130000000000082  0.3914100000000001  0.8121799999999998  1.0000
  C   C22       1.0  0.35290000000000005  0.78206  0.9247899999999999  1.0000
  C   C23       1.0  0.09376000000000011  0.6538200000000001  0.6489199999999998  1.0000
  C   C24       1.0  0.008520000000000106  0.39879000000000014  0.7093299999999998  1.0000
  C   C25       1.0  0.044100000000000035  0.53305  0.6245499999999999  1.0000
  C   C26       1.0  0.029280000000000014  0.55207  0.51588  1.0000
  C   C27       1.0  0.5759199999999998  0.2828700000000001  0.79918  1.0000
  C   C28       1.0  0.36536999999999986  0.12377000000000014  0.7897899999999998  1.0000
  C   C29       1.0  0.57576  0.3789000000000001  0.6971599999999999  1.0000
  C   C30       1.0  0.36550999999999995  0.21055  0.68516  1.0000
  C   C31       1.0  0.47101  0.34251000000000004  0.63546  1.0000
  C   C32       1.0  0.4623999999999998  0.43204000000000004  0.52697  1.0000
  N   N1        1.0  0.68104  0.48291999999999996  0.0063  1.0000
  N   N2        1.0  0.9418199999999999  0.49103000000000013  0.16475999999999993  1.0000
  N   N3        1.0  0.5233099999999998  0.84408  0.1541  1.0000
  N   N4        1.0  0.31754000000000004  0.51805  0.9939  1.0000
  N   N5        1.0  0.05715999999999998  0.5098100000000001  0.8348699999999999  1.0000
  N   N6        1.0  0.47386999999999985  0.15589000000000003  0.8457899999999999  1.0000
  O   O1        1.0  0.91754  0.7145500000000001  0.9556099999999998  1.0000
  O   O2        1.0  0.6984300000000001  0.8738200000000003  0.9194599999999998  1.0000
  O   O3        1.0  0.69378  0.14525  0.01029  1.0000
  O   O4        1.0  0.65856  0.18763  0.17005  1.0000
  O   O5        1.0  0.08218999999999997  0.2864900000000001  0.04195999999999998  1.0000
  O   O6        1.0  0.3002099999999999  0.12724000000000002  0.08131999999999999  1.0000
  O   O7        1.0  0.3013100000000001  0.8553200000000001  0.9898099999999997  1.0000
  O   O8        1.0  0.3408900000000001  0.8128300000000003  0.8297699999999998  1.0000
