data_image0
_chemical_formula_structural       Cd3H12C24N24
_chemical_formula_sum              "Cd3 H12 C24 N24"
_cell_length_a       11.25559
_cell_length_b       10.347800000000001
_cell_length_c       14.51589
_cell_angle_alpha    91.17208
_cell_angle_beta     119.13073999999999
_cell_angle_gamma    100.46798

_symmetry_space_group_name_H-M    'P 1'
_symmetry_Int_Tables_number       1

loop_
  _symmetry_equiv_pos_as_xyz
  'x,y,z'

loop_
  _atom_site_type_symbol
  _atom_site_label
  _atom_site_symmetry_multiplicity
  _atom_site_fract_x
  _atom_site_fract_y
  _atom_site_fract_z
  _atom_site_occupancy
  Cd  Cd1       1.0  0.11067  0.20720000000000002  0.46156  1.0000
  Cd  Cd2       1.0  0.88932  0.7928000000000001  0.53844  1.0000
  Cd  Cd3       1.0  0.0  0.5  0.5  1.0000
  H   H1        1.0  0.5494700000000002  0.3250800000000001  0.9097300000000003  1.0000
  H   H2        1.0  0.32622  0.6288100000000001  0.89082  1.0000
  H   H3        1.0  0.9098599999999999  0.63068  0.08695  1.0000
  H   H4        1.0  0.14522  0.34938  0.1004  1.0000
  H   H5        1.0  0.36867999999999995  0.13730000000000003  0.54744  1.0000
  H   H6        1.0  0.43838999999999995  0.7515100000000001  0.47922000000000003  1.0000
  H   H7        1.0  0.45052  0.67492  0.09027000000000003  1.0000
  H   H8        1.0  0.67377  0.37119000000000013  0.10918000000000001  1.0000
  H   H9        1.0  0.09013000000000004  0.36932  0.9130500000000001  1.0000
  H   H10       1.0  0.8547800000000002  0.65062  0.8996000000000001  1.0000
  H   H11       1.0  0.63132  0.8627000000000001  0.45256  1.0000
  H   H12       1.0  0.5616099999999999  0.24849000000000002  0.52078  1.0000
  C   C1        1.0  0.35432000000000013  0.44194000000000006  0.7691400000000002  1.0000
  C   C2        1.0  0.43018999999999996  0.47416  0.88615  1.0000
  C   C3        1.0  0.52892  0.40139  0.95069  1.0000
  C   C4        1.0  0.40391999999999995  0.5727400000000001  0.93897  1.0000
  C   C5        1.0  0.05937000000000004  0.45565000000000005  0.21268000000000006  1.0000
  C   C6        1.0  0.030150000000000007  0.48391  0.10648  1.0000
  C   C7        1.0  0.9492399999999999  0.57259  0.048830000000000005  1.0000
  C   C8        1.0  0.07971000000000002  0.41397000000000006  0.05318  1.0000
  C   C9        1.0  0.2709  0.8790400000000002  0.52828  1.0000
  C   C10       1.0  0.39016  0.93872  0.51567  1.0000
  C   C11       1.0  0.42526  0.07682  0.52467  1.0000
  C   C12       1.0  0.46401  0.85958  0.48829  1.0000
  C   C13       1.0  0.64567  0.55806  0.23086  1.0000
  C   C14       1.0  0.56981  0.52584  0.11385000000000002  1.0000
  C   C15       1.0  0.4710799999999999  0.59861  0.04931  1.0000
  C   C16       1.0  0.59607  0.42726  0.06103  1.0000
  C   C17       1.0  0.9406199999999998  0.5443500000000001  0.78732  1.0000
  C   C18       1.0  0.96984  0.5160900000000002  0.89352  1.0000
  C   C19       1.0  0.050760000000000007  0.4274200000000001  0.95117  1.0000
  C   C20       1.0  0.9202799999999999  0.58603  0.94682  1.0000
  C   C21       1.0  0.7290999999999999  0.12096  0.47172  1.0000
  C   C22       1.0  0.60984  0.06129  0.48433  1.0000
  C   C23       1.0  0.5747299999999999  0.92318  0.47533  1.0000
  C   C24       1.0  0.53599  0.14042000000000002  0.51171  1.0000
  N   N1        1.0  0.28012000000000004  0.5221100000000002  0.7015700000000002  1.0000
  N   N2        1.0  0.21299000000000004  0.45222  0.60675  1.0000
  N   N3        1.0  0.2464  0.33242  0.61614  1.0000
  N   N4        1.0  0.33313000000000004  0.32172000000000006  0.71723  1.0000
  N   N5        1.0  0.09132000000000004  0.33952  0.24769000000000005  1.0000
  N   N6        1.0  0.09823  0.34617  0.34204  1.0000
  N   N7        1.0  0.06502000000000001  0.45883000000000007  0.3618  1.0000
  N   N8        1.0  0.03689999999999998  0.52685  0.2801  1.0000
  N   N9        1.0  0.23374999999999996  0.74815  0.52799  1.0000
  N   N10       1.0  0.12140999999999999  0.7319200000000001  0.53674  1.0000
  N   N11       1.0  0.08905000000000003  0.84949  0.54121  1.0000
  N   N12       1.0  0.18153999999999998  0.94552  0.5361  1.0000
  N   N13       1.0  0.71987  0.47789000000000004  0.29843  1.0000
  N   N14       1.0  0.7869999999999998  0.54778  0.39325  1.0000
  N   N15       1.0  0.75359  0.6675800000000001  0.38386000000000003  1.0000
  N   N16       1.0  0.6668699999999999  0.6782900000000001  0.28277  1.0000
  N   N17       1.0  0.90868  0.66048  0.75231  1.0000
  N   N18       1.0  0.9017599999999999  0.6538400000000001  0.65796  1.0000
  N   N19       1.0  0.93497  0.5411699999999999  0.6382  1.0000
  N   N20       1.0  0.9630999999999998  0.47315000000000007  0.7199  1.0000
  N   N21       1.0  0.7662499999999997  0.2518500000000001  0.47201000000000004  1.0000
  N   N22       1.0  0.8785799999999999  0.26808  0.46325  1.0000
  N   N23       1.0  0.91094  0.15051000000000003  0.45879  1.0000
  N   N24       1.0  0.8184599999999999  0.05448000000000001  0.4639  1.0000
