data_image0
_chemical_formula_structural       Gd2H24C24N6O18
_chemical_formula_sum              "Gd2 H24 C24 N6 O18"
_cell_length_a       7.95137
_cell_length_b       12.29653
_cell_length_c       13.32284
_cell_angle_alpha    112.43434000000002
_cell_angle_beta     104.68026000000002
_cell_angle_gamma    92.52617

_symmetry_space_group_name_H-M    'P 1'
_symmetry_Int_Tables_number       1

loop_
  _symmetry_equiv_pos_as_xyz
  'x,y,z'

loop_
  _atom_site_type_symbol
  _atom_site_label
  _atom_site_symmetry_multiplicity
  _atom_site_fract_x
  _atom_site_fract_y
  _atom_site_fract_z
  _atom_site_occupancy
  Gd  Gd1       1.0  0.74449  0.99304  0.01012  1.0000
  Gd  Gd2       1.0  0.25551  0.006960000000000053  0.9898900000000002  1.0000
  H   H1        1.0  0.060690000000000056  0.13929000000000002  0.4130700000000001  1.0000
  H   H2        1.0  0.05120999999999999  0.27829  0.39958  1.0000
  H   H3        1.0  0.29632  0.10116999999999998  0.31416  1.0000
  H   H4        1.0  0.27077  0.23215  0.28871  1.0000
  H   H5        1.0  0.59207  0.10348000000000002  0.66026  1.0000
  H   H6        1.0  0.70533  0.23660999999999993  0.78015  1.0000
  H   H7        1.0  0.33558  0.1104  0.74254  1.0000
  H   H8        1.0  0.4452300000000001  0.2464200000000001  0.8569000000000002  1.0000
  H   H9        1.0  0.63342  0.59812  0.77318  1.0000
  H   H10       1.0  0.50732  0.6055300000000002  0.64508  1.0000
  H   H11       1.0  0.349  0.58591  0.8268700000000001  1.0000
  H   H12       1.0  0.23661000000000004  0.613  0.7085900000000002  1.0000
  H   H13       1.0  0.93931  0.86072  0.58693  1.0000
  H   H14       1.0  0.9487900000000001  0.7217100000000001  0.60043  1.0000
  H   H15       1.0  0.7036799999999998  0.89884  0.68585  1.0000
  H   H16       1.0  0.72923  0.7678600000000001  0.71129  1.0000
  H   H17       1.0  0.40793  0.89652  0.33974  1.0000
  H   H18       1.0  0.2946699999999999  0.76339  0.21985000000000002  1.0000
  H   H19       1.0  0.66442  0.8896  0.25746  1.0000
  H   H20       1.0  0.55477  0.75358  0.1431  1.0000
  H   H21       1.0  0.36658  0.40187999999999996  0.22682  1.0000
  H   H22       1.0  0.49268000000000006  0.39447000000000004  0.35493000000000013  1.0000
  H   H23       1.0  0.651  0.4141  0.17314  1.0000
  H   H24       1.0  0.76339  0.387  0.29142  1.0000
  C   C1        1.0  0.3317  0.39323  0.55208  1.0000
  C   C2        1.0  0.36183  0.19758  0.56191  1.0000
  C   C3        1.0  0.5346100000000001  0.3820700000000001  0.7216600000000001  1.0000
  C   C4        1.0  0.13493  0.21144  0.40575  1.0000
  C   C5        1.0  0.20290999999999992  0.16171  0.30202  1.0000
  C   C6        1.0  0.05648  0.0895  0.19566  1.0000
  C   C7        1.0  0.57591  0.18641  0.72512  1.0000
  C   C8        1.0  0.46628  0.16166999999999998  0.7956000000000001  1.0000
  C   C9        1.0  0.55655  0.09629000000000006  0.86384  1.0000
  C   C10       1.0  0.50282  0.57557  0.71191  1.0000
  C   C11       1.0  0.36591  0.62931  0.7706200000000002  1.0000
  C   C12       1.0  0.41434000000000004  0.7618500000000001  0.8450700000000002  1.0000
  C   C13       1.0  0.6682999999999998  0.6067700000000001  0.44792000000000004  1.0000
  C   C14       1.0  0.63817  0.80243  0.43809000000000003  1.0000
  C   C15       1.0  0.46539  0.61793  0.27835  1.0000
  C   C16       1.0  0.8650700000000001  0.78856  0.59425  1.0000
  C   C17       1.0  0.7970899999999997  0.83829  0.69798  1.0000
  C   C18       1.0  0.94352  0.9104999999999999  0.8043400000000002  1.0000
  C   C19       1.0  0.42409  0.81359  0.27488  1.0000
  C   C20       1.0  0.53372  0.83833  0.2044  1.0000
  C   C21       1.0  0.44345000000000007  0.9037200000000001  0.13616  1.0000
  C   C22       1.0  0.4971799999999999  0.42443  0.28809  1.0000
  C   C23       1.0  0.6340900000000002  0.37068999999999996  0.22938000000000003  1.0000
  C   C24       1.0  0.58566  0.23816000000000004  0.15493000000000004  1.0000
  N   N1        1.0  0.45953000000000005  0.44459000000000004  0.6576200000000001  1.0000
  N   N2        1.0  0.27991  0.27022  0.51165  1.0000
  N   N3        1.0  0.49148  0.25796  0.66561  1.0000
  N   N4        1.0  0.5404699999999996  0.55541  0.34238  1.0000
  N   N5        1.0  0.72009  0.72979  0.4883500000000001  1.0000
  N   N6        1.0  0.50852  0.74204  0.33440000000000003  1.0000
  O   O1        1.0  0.9298499999999997  0.025269999999999983  0.19772  1.0000
  O   O2        1.0  0.05978  0.09498999999999999  0.10054  1.0000
  O   O3        1.0  0.57547  0.80952  0.87592  1.0000
  O   O4        1.0  0.2898500000000001  0.81517  0.87388  1.0000
  O   O5        1.0  0.46672  0.048129999999999964  0.90876  1.0000
  O   O6        1.0  0.71893  0.08951999999999997  0.87923  1.0000
  O   O7        1.0  0.6336499999999998  0.43195  0.81863  1.0000
  O   O8        1.0  0.2670600000000001  0.45178  0.4995700000000001  1.0000
  O   O9        1.0  0.32155  0.08881000000000004  0.51855  1.0000
  O   O10       1.0  0.07013999999999992  0.97474  0.80228  1.0000
  O   O11       1.0  0.94022  0.90501  0.89946  1.0000
  O   O12       1.0  0.42453  0.19048  0.12409  1.0000
  O   O13       1.0  0.71015  0.18483  0.12613  1.0000
  O   O14       1.0  0.53328  0.95188  0.09125000000000001  1.0000
  O   O15       1.0  0.28107  0.91048  0.12077  1.0000
  O   O16       1.0  0.36635  0.56806  0.18137  1.0000
  O   O17       1.0  0.73294  0.54822  0.50043  1.0000
  O   O18       1.0  0.67845  0.9112  0.48145  1.0000
