data_image0
_chemical_formula_structural       Mn8H12C36Cl4O24
_chemical_formula_sum              "Mn8 H12 C36 Cl4 O24"
_cell_length_a       13.63098
_cell_length_b       14.97648
_cell_length_c       15.815500000000002
_cell_angle_alpha    89.93114
_cell_angle_beta     90.22315000000002
_cell_angle_gamma    90.19681

_space_group_name_H-M_alt    "P 1"
_space_group_IT_number       1

loop_
  _space_group_symop_operation_xyz
  'x, y, z'

loop_
  _atom_site_type_symbol
  _atom_site_label
  _atom_site_symmetry_multiplicity
  _atom_site_fract_x
  _atom_site_fract_y
  _atom_site_fract_z
  _atom_site_occupancy
  Mn  Mn1       1.0  0.22437  0.69102  0.79373  1.0000
  Mn  Mn2       1.0  0.10402000000000003  0.6001499999999999  0.88324  1.0000
  Mn  Mn3       1.0  0.27413  0.30816  0.29424  1.0000
  Mn  Mn4       1.0  0.39523  0.3964099999999999  0.38565  1.0000
  Mn  Mn5       1.0  0.74736  0.21203999999999995  0.7220100000000002  1.0000
  Mn  Mn6       1.0  0.8973  0.09266  0.61026  1.0000
  Mn  Mn7       1.0  0.7536100000000002  0.7883299999999998  0.22286  1.0000
  Mn  Mn8       1.0  0.60226  0.9079599999999999  0.11039  1.0000
  H   H1        1.0  0.45437  0.70375  0.98225  1.0000
  H   H2        1.0  0.53677  0.57265  0.2145  1.0000
  H   H3        1.0  0.28957  0.4756499999999999  0.06989  1.0000
  H   H4        1.0  0.04668  0.2959599999999999  0.48312  1.0000
  H   H5        1.0  0.9604000000000001  0.4314999999999999  0.71099  1.0000
  H   H6        1.0  0.20414000000000002  0.53083  0.56466  1.0000
  H   H7        1.0  0.55373  0.19521999999999995  0.52066  1.0000
  H   H8        1.0  0.4604700000000001  0.06755999999999997  0.2897  1.0000
  H   H9        1.0  0.71054  0.9664299999999998  0.427  1.0000
  H   H10       1.0  0.9454  0.8016299999999997  0.01942  1.0000
  H   H11       1.0  0.03269  0.93006  0.78762  1.0000
  H   H12       1.0  0.79025  0.034499999999999996  0.93083  1.0000
  C   C1        1.0  0.29614  0.60196  0.94655  1.0000
  C   C2        1.0  0.36675  0.58952  0.01729  1.0000
  C   C3        1.0  0.44396  0.65044  0.02815  1.0000
  C   C4        1.0  0.50527  0.6443  0.0993  1.0000
  C   C5        1.0  0.49026  0.5763  0.15862  1.0000
  C   C6        1.0  0.41271000000000013  0.51544  0.14777  1.0000
  C   C7        1.0  0.35095  0.52172  0.07702  1.0000
  C   C8        1.0  0.57904  0.7156699999999998  0.11651  1.0000
  C   C9        1.0  0.3910700000000001  0.4496799999999999  0.21539000000000005  1.0000
  C   C10       1.0  0.20137000000000005  0.3998699999999999  0.44489  1.0000
  C   C11       1.0  0.13014  0.41386  0.51452  1.0000
  C   C12       1.0  0.055170000000000004  0.3511999999999999  0.52708  1.0000
  C   C13       1.0  0.9942  0.35725  0.59801  1.0000
  C   C14       1.0  0.00666  0.4275299999999999  0.65526  1.0000
  C   C15       1.0  0.08229  0.4900199999999999  0.64289  1.0000
  C   C16       1.0  0.14402  0.4835799999999999  0.57254  1.0000
  C   C17       1.0  0.92481  0.2829899999999999  0.61717  1.0000
  C   C18       1.0  0.10422  0.55555  0.7106  1.0000
  C   C19       1.0  0.7103100000000002  0.08996999999999997  0.55253  1.0000
  C   C20       1.0  0.63672  0.07932999999999997  0.48352  1.0000
  C   C21       1.0  0.5612  0.14179  0.47466  1.0000
  C   C22       1.0  0.49793  0.13763  0.40455  1.0000
  C   C23       1.0  0.50886  0.06985999999999998  0.34454  1.0000
  C   C24       1.0  0.58539  0.00806  0.35278  1.0000
  C   C25       1.0  0.64948  0.01275  0.42214  1.0000
  C   C26       1.0  0.42853  0.21191  0.3875  1.0000
  C   C27       1.0  0.60485  0.9449299999999998  0.28221  1.0000
  C   C28       1.0  0.79206  0.9090499999999998  0.05526  1.0000
  C   C29       1.0  0.86334  0.9193399999999998  0.98482  1.0000
  C   C30       1.0  0.93723  0.8556499999999998  0.97391  1.0000
  C   C31       1.0  0.99804  0.8596099999999998  0.90267  1.0000
  C   C32       1.0  0.98609  0.9280899999999997  0.84326  1.0000
  C   C33       1.0  0.9111000000000001  0.9911499999999999  0.8534100000000001  1.0000
  C   C34       1.0  0.8498700000000001  0.9869199999999998  0.92427  1.0000
  C   C35       1.0  0.06728  0.7854999999999998  0.8849  1.0000
  C   C36       1.0  0.8906200000000002  0.05583999999999999  0.7839700000000002  1.0000
  Cl  Cl1       1.0  0.33232  0.7654699999999998  0.71805  1.0000
  Cl  Cl2       1.0  0.16952  0.23263  0.21566  1.0000
  Cl  Cl3       1.0  0.6281  0.2766599999999999  0.79337  1.0000
  Cl  Cl4       1.0  0.86969  0.7239399999999998  0.29912  1.0000
  O   O1        1.0  0.31438  0.6622799999999999  0.89124  1.0000
  O   O2        1.0  0.21834  0.55315  0.94606  1.0000
  O   O3        1.0  0.57122  0.78694  0.07061  1.0000
  O   O4        1.0  0.64159  0.7056499999999998  0.17535  1.0000
  O   O5        1.0  0.4426  0.4550499999999999  0.28382000000000007  1.0000
  O   O6        1.0  0.3216600000000001  0.39313  0.20405  1.0000
  O   O7        1.0  0.18204  0.33975  0.38957  1.0000
  O   O8        1.0  0.28066  0.4466199999999999  0.44589  1.0000
  O   O9        1.0  0.93326  0.21259999999999996  0.57048  1.0000
  O   O10       1.0  0.8654500000000003  0.2899499999999999  0.67847  1.0000
  O   O11       1.0  0.053110000000000004  0.54917  0.77893  1.0000
  O   O12       1.0  0.17444  0.6114899999999998  0.70035  1.0000
  O   O13       1.0  0.7  0.15104  0.60769  1.0000
  O   O14       1.0  0.78577  0.03779  0.54992  1.0000
  O   O15       1.0  0.4384  0.2825199999999999  0.43356  1.0000
  O   O16       1.0  0.36723  0.20530999999999994  0.32661  1.0000
  O   O17       1.0  0.5474  0.9509699999999998  0.21693  1.0000
  O   O18       1.0  0.67745  0.8922099999999997  0.28621  1.0000
  O   O19       1.0  0.80473  0.84876  0.11083  1.0000
  O   O20       1.0  0.71626  0.96097  0.05358  1.0000
  O   O21       1.0  0.057370000000000004  0.7140099999999999  0.9298000000000002  1.0000
  O   O22       1.0  0.12891  0.7939199999999997  0.82495  1.0000
  O   O23       1.0  0.94864  0.052679999999999984  0.71939  1.0000
  O   O24       1.0  0.81696  0.10723  0.7881  1.0000
