data_image0
_chemical_formula_structural       Zn8H12C36I4O28
_chemical_formula_sum              "Zn8 H12 C36 I4 O28"
_cell_length_a       10.67499
_cell_length_b       9.644379999999998
_cell_length_c       18.39983
_cell_angle_alpha    90.05423
_cell_angle_beta     93.22769
_cell_angle_gamma    90.24401000000002

_symmetry_space_group_name_H-M    'P 1'
_symmetry_Int_Tables_number       1

loop_
  _symmetry_equiv_pos_as_xyz
  'x,y,z'

loop_
  _atom_site_type_symbol
  _atom_site_label
  _atom_site_symmetry_multiplicity
  _atom_site_fract_x
  _atom_site_fract_y
  _atom_site_fract_z
  _atom_site_occupancy
  Zn  Zn1       1.0  0.8708999999999999  0.05049000000000001  0.03379  1.0000
  Zn  Zn2       1.0  0.002479999999999986  0.17624  0.8848999999999999  1.0000
  Zn  Zn3       1.0  0.63378  0.55202  0.46647999999999995  1.0000
  Zn  Zn4       1.0  0.4965499999999999  0.6808300000000002  0.6114399999999998  1.0000
  Zn  Zn5       1.0  0.1291  0.9495100000000001  0.96621  1.0000
  Zn  Zn6       1.0  0.99752  0.82377  0.1151  1.0000
  Zn  Zn7       1.0  0.36622  0.44799  0.53352  1.0000
  Zn  Zn8       1.0  0.50345  0.31917  0.38855999999999996  1.0000
  H   H1        1.0  0.69523  0.29121  0.75429  1.0000
  H   H2        1.0  0.28652  0.27375  0.7485099999999999  1.0000
  H   H3        1.0  0.50414  0.1133  0.9356899999999999  1.0000
  H   H4        1.0  0.8059499999999999  0.7911400000000001  0.74663  1.0000
  H   H5        1.0  0.21489  0.7720700000000001  0.75045  1.0000
  H   H6        1.0  0.9950399999999999  0.61616  0.56281  1.0000
  H   H7        1.0  0.30477  0.70879  0.24570999999999998  1.0000
  H   H8        1.0  0.71348  0.7262500000000001  0.25148999999999994  1.0000
  H   H9        1.0  0.49586  0.8867  0.06431  1.0000
  H   H10       1.0  0.19405  0.20887000000000003  0.25337  1.0000
  H   H11       1.0  0.78511  0.22794  0.24954999999999997  1.0000
  H   H12       1.0  0.004970000000000002  0.38384  0.4372  1.0000
  C   C1        1.0  0.61304  0.20204  0.84861  1.0000
  C   C2        1.0  0.60769  0.2668  0.77912  1.0000
  C   C3        1.0  0.49159  0.29162  0.73978  1.0000
  C   C4        1.0  0.38156999999999996  0.25331  0.77252  1.0000
  C   C5        1.0  0.38694  0.19372  0.84275  1.0000
  C   C6        1.0  0.50178  0.16363  0.8814999999999998  1.0000
  C   C7        1.0  0.73691  0.17614  0.88913  1.0000
  C   C8        1.0  0.48016  0.36999  0.66804  1.0000
  C   C9        1.0  0.26365  0.15382  0.87155  1.0000
  C   C10       1.0  0.88567  0.70138  0.65062  1.0000
  C   C11       1.0  0.8919099999999999  0.76576  0.71986  1.0000
  C   C12       1.0  0.00872  0.78992  0.75844  1.0000
  C   C13       1.0  0.11966  0.75114  0.7261  1.0000
  C   C14       1.0  0.11434  0.69254  0.65599  1.0000
  C   C15       1.0  0.99796  0.6645  0.61725  1.0000
  C   C16       1.0  0.7603899999999999  0.67273  0.61102  1.0000
  C   C17       1.0  0.020169999999999997  0.87142  0.82989  1.0000
  C   C18       1.0  0.23911999999999997  0.6548  0.62814  1.0000
  C   C19       1.0  0.38696  0.79797  0.15138999999999994  1.0000
  C   C20       1.0  0.39230999999999994  0.73321  0.22088  1.0000
  C   C21       1.0  0.50841  0.70839  0.26022  1.0000
  C   C22       1.0  0.61843  0.7467  0.22748  1.0000
  C   C23       1.0  0.61306  0.80629  0.15726  1.0000
  C   C24       1.0  0.49822  0.83638  0.11849999999999997  1.0000
  C   C25       1.0  0.26309  0.82387  0.11087  1.0000
  C   C26       1.0  0.51984  0.63001  0.33196  1.0000
  C   C27       1.0  0.73635  0.84618  0.12845  1.0000
  C   C28       1.0  0.11432999999999997  0.29862  0.3493799999999999  1.0000
  C   C29       1.0  0.10809  0.23424  0.28014  1.0000
  C   C30       1.0  0.99128  0.21009  0.24156  1.0000
  C   C31       1.0  0.8803399999999999  0.24886000000000003  0.2739  1.0000
  C   C32       1.0  0.8856599999999999  0.30747  0.34400999999999987  1.0000
  C   C33       1.0  0.0020400000000000023  0.3355  0.38276  1.0000
  C   C34       1.0  0.23961  0.32727  0.38898  1.0000
  C   C35       1.0  0.97983  0.12859  0.17011  1.0000
  C   C36       1.0  0.76088  0.3452  0.37186  1.0000
  I   I1        1.0  0.03692  0.35577  0.00907  1.0000
  I   I2        1.0  0.46557  0.8577  0.48971999999999993  1.0000
  I   I3        1.0  0.96309  0.64424  0.99093  1.0000
  I   I4        1.0  0.53443  0.14231  0.51028  1.0000
  O   O1        1.0  0.83429  0.21639000000000003  0.85512  1.0000
  O   O2        1.0  0.7316199999999998  0.12432000000000001  0.9548799999999998  1.0000
  O   O3        1.0  0.57131  0.44832  0.6529199999999997  1.0000
  O   O4        1.0  0.37487  0.35771000000000003  0.62948  1.0000
  O   O5        1.0  0.26833  0.07287000000000002  0.9270299999999999  1.0000
  O   O6        1.0  0.16119  0.20757000000000003  0.83904  1.0000
  O   O7        1.0  0.035190000000000006  0.13268000000000002  0.99914  1.0000
  O   O8        1.0  0.66415  0.72125  0.64308  1.0000
  O   O9        1.0  0.76178  0.6136200000000003  0.54865  1.0000
  O   O10       1.0  0.9362  0.9571100000000002  0.8447  1.0000
  O   O11       1.0  0.12027  0.8504900000000001  0.8721  1.0000
  O   O12       1.0  0.23543999999999998  0.57201  0.5738399999999998  1.0000
  O   O13       1.0  0.34094  0.71178  0.65798  1.0000
  O   O14       1.0  0.46146  0.6247800000000001  0.50451  1.0000
  O   O15       1.0  0.16571  0.78361  0.14488  1.0000
  O   O16       1.0  0.26838  0.87569  0.04512  1.0000
  O   O17       1.0  0.4287  0.55168  0.34708  1.0000
  O   O18       1.0  0.62514  0.6423  0.37052  1.0000
  O   O19       1.0  0.73167  0.9271300000000002  0.07296999999999998  1.0000
  O   O20       1.0  0.83882  0.79243  0.16096  1.0000
  O   O21       1.0  0.96481  0.86732  0.0008599999999999999  1.0000
  O   O22       1.0  0.33586  0.27875  0.35692  1.0000
  O   O23       1.0  0.23822999999999997  0.38638  0.4513499999999999  1.0000
  O   O24       1.0  0.0638  0.04289  0.15529999999999994  1.0000
  O   O25       1.0  0.87973  0.14952  0.1279  1.0000
  O   O26       1.0  0.76456  0.428  0.42616  1.0000
  O   O27       1.0  0.65906  0.28823000000000004  0.34202  1.0000
  O   O28       1.0  0.53854  0.37522000000000005  0.49549  1.0000
