data_image0
_chemical_formula_structural       Tb4H8C20O24
_chemical_formula_sum              "Tb4 H8 C20 O24"
_cell_length_a       9.18219
_cell_length_b       9.17723
_cell_length_c       14.75136
_cell_angle_alpha    100.03761000000002
_cell_angle_beta     100.19068999999999
_cell_angle_gamma    115.99638

_space_group_name_H-M_alt    "P 1"
_space_group_IT_number       1

loop_
  _space_group_symop_operation_xyz
  'x, y, z'

loop_
  _atom_site_type_symbol
  _atom_site_label
  _atom_site_symmetry_multiplicity
  _atom_site_fract_x
  _atom_site_fract_y
  _atom_site_fract_z
  _atom_site_occupancy
  Tb  Tb1       1.0  0.015410000000000026  0.7655000000000001  0.03311  1.0000
  Tb  Tb2       1.0  0.23454  0.98465  0.46688  1.0000
  Tb  Tb3       1.0  0.9845900000000002  0.2345  0.96689  1.0000
  Tb  Tb4       1.0  0.7654000000000001  0.01528999999999998  0.53312  1.0000
  H   H1        1.0  0.40788  0.85323  0.94102  1.0000
  H   H2        1.0  0.53341  0.59024  0.9404  1.0000
  H   H3        1.0  0.1471300000000001  0.59205  0.55892  1.0000
  H   H4        1.0  0.40998  0.46649000000000007  0.55981  1.0000
  H   H5        1.0  0.59212  0.14677  0.05898999999999999  1.0000
  H   H6        1.0  0.46660000000000007  0.40976  0.0596  1.0000
  H   H7        1.0  0.8527900000000002  0.40791  0.44109  1.0000
  H   H8        1.0  0.58992  0.53346  0.44018  1.0000
  C   C1        1.0  0.2398499999999999  0.5967199999999999  0.9445499999999999  1.0000
  C   C2        1.0  0.40247000000000005  0.7322399999999999  0.9406299999999999  1.0000
  C   C3        1.0  0.70486  0.84982  0.94362  1.0000
  C   C4        1.0  0.5383400000000002  0.7109  0.94024  1.0000
  C   C5        1.0  0.40389  0.76061  0.55625  1.0000
  C   C6        1.0  0.26815  0.59761  0.55952  1.0000
  C   C7        1.0  0.15029  0.295  0.5563  1.0000
  C   C8        1.0  0.28936000000000006  0.46159000000000006  0.55983  1.0000
  C   C9        1.0  0.7601599999999998  0.40328  0.05544999999999999  1.0000
  C   C10       1.0  0.5975300000000001  0.26776  0.05937  1.0000
  C   C11       1.0  0.29514  0.15019  0.056379999999999986  1.0000
  C   C12       1.0  0.46166000000000007  0.28911  0.05977  1.0000
  C   C13       1.0  0.5960500000000002  0.23931  0.44374  1.0000
  C   C14       1.0  0.7317600000000002  0.4023399999999999  0.4404699999999999  1.0000
  C   C15       1.0  0.84966  0.7049  0.4437  1.0000
  C   C16       1.0  0.71055  0.53836  0.44016  1.0000
  C   C17       1.0  0.07406000000000001  0.92605  0.25002  1.0000
  C   C18       1.0  0.17391000000000004  0.82563  0.25012  1.0000
  C   C19       1.0  0.9259300000000001  0.07394000000000003  0.74998  1.0000
  C   C20       1.0  0.8260599999999999  0.17432999999999996  0.74988  1.0000
  O   O1        1.0  0.11878999999999994  0.6320799999999999  0.9450699999999999  1.0000
  O   O2        1.0  0.2241700000000001  0.45365  0.94842  1.0000
  O   O3        1.0  9.999999999989096e-06  0.92517  0.16858999999999996  1.0000
  O   O4        1.0  0.8261500000000003  0.8142199999999999  0.9452099999999998  1.0000
  O   O5        1.0  0.7246299999999999  0.9964  0.9461799999999999  1.0000
  O   O6        1.0  0.16619000000000003  0.74438  0.16897  1.0000
  O   O7        1.0  0.36818  0.88136  0.55505  1.0000
  O   O8        1.0  0.54762  0.7770300000000001  0.55373  1.0000
  O   O9        1.0  0.07500000000000001  8.000000000001116e-05  0.33134  1.0000
  O   O10       1.0  0.18581000000000003  0.17361000000000004  0.55475  1.0000
  O   O11       1.0  0.0037900000000000264  0.27534  0.55371  1.0000
  O   O12       1.0  0.2548300000000001  0.8329  0.33138  1.0000
  O   O13       1.0  0.8812100000000002  0.36792  0.05493  1.0000
  O   O14       1.0  0.7758300000000001  0.5463600000000001  0.05159  1.0000
  O   O15       1.0  0.99999  0.07482999999999994  0.8314099999999999  1.0000
  O   O16       1.0  0.17385  0.18579  0.0548  1.0000
  O   O17       1.0  0.27537  0.0035999999999999977  0.05382  1.0000
  O   O18       1.0  0.83386  0.25565999999999994  0.83103  1.0000
  O   O19       1.0  0.6318  0.11857999999999998  0.44493  1.0000
  O   O20       1.0  0.45232  0.22286  0.44626  1.0000
  O   O21       1.0  0.92498  0.9999  0.66866  1.0000
  O   O22       1.0  0.81421  0.82633  0.44527  1.0000
  O   O23       1.0  0.99612  0.72448  0.4462799999999999  1.0000
  O   O24       1.0  0.7450000000000001  0.16693  0.66861  1.0000
