data_image0
_chemical_formula_structural       Mn8H12C4S4N20O20
_chemical_formula_sum              "Mn8 H12 C4 S4 N20 O20"
_cell_length_a       6.73156
_cell_length_b       10.03193
_cell_length_c       15.53858
_cell_angle_alpha    91.21077000000001
_cell_angle_beta     90.02118
_cell_angle_gamma    89.99319999999999

_symmetry_space_group_name_H-M    'P 1'
_symmetry_Int_Tables_number       1

loop_
  _symmetry_equiv_pos_as_xyz
  'x,y,z'

loop_
  _atom_site_type_symbol
  _atom_site_label
  _atom_site_symmetry_multiplicity
  _atom_site_fract_x
  _atom_site_fract_y
  _atom_site_fract_z
  _atom_site_occupancy
  Mn  Mn1       1.0  0.75172  0.12032000000000001  0.18774999999999994  1.0000
  Mn  Mn2       1.0  0.2495  0.36572  0.68718  1.0000
  Mn  Mn3       1.0  0.24865  0.87552  0.81409  1.0000
  Mn  Mn4       1.0  0.751  0.6313100000000001  0.3131899999999999  1.0000
  Mn  Mn5       1.0  0.5003  0.50064  0.50048  1.0000
  Mn  Mn6       1.0  0.5003  0.9972700000000001  0.00106  1.0000
  Mn  Mn7       1.0  0.00065  0.49881000000000003  0.50018  1.0000
  Mn  Mn8       1.0  0.00033  0.99705  0.00115  1.0000
  H   H1        1.0  0.12498000000000002  0.27494  0.31623  1.0000
  H   H2        1.0  0.87831  0.20683  0.8203  1.0000
  H   H3        1.0  0.62045  0.7272200000000001  0.6841  1.0000
  H   H4        1.0  0.3773  0.7920500000000001  0.18057999999999994  1.0000
  H   H5        1.0  0.8752400000000002  0.7247800000000001  0.68362  1.0000
  H   H6        1.0  0.12359  0.7916700000000002  0.18022999999999995  1.0000
  H   H7        1.0  0.3797500000000001  0.27313  0.3157799999999999  1.0000
  H   H8        1.0  0.6244100000000001  0.20621  0.8203199999999998  1.0000
  H   H9        1.0  0.7496900000000001  0.18157000000000006  0.02013  1.0000
  H   H10       1.0  0.25292  0.3001  0.5196499999999997  1.0000
  H   H11       1.0  0.25143  0.8122800000000001  0.98234  1.0000
  H   H12       1.0  0.7512900000000002  0.69974  0.4794299999999999  1.0000
  C   C1        1.0  0.25094  0.18962000000000004  0.20797  1.0000
  C   C2        1.0  0.75119  0.29001  0.7148  1.0000
  C   C3        1.0  0.7496300000000001  0.8077700000000001  0.7927499999999997  1.0000
  C   C4        1.0  0.24956  0.7088  0.2858999999999999  1.0000
  S   S1        1.0  0.75001  0.32065000000000005  0.3559299999999999  1.0000
  S   S2        1.0  0.24984000000000003  0.18355000000000002  0.8580099999999998  1.0000
  S   S3        1.0  0.24946000000000004  0.67882  0.64416  1.0000
  S   S4        1.0  0.7502  0.8110900000000001  0.14228999999999994  1.0000
  N   N1        1.0  0.34889  0.08472  0.09324  1.0000
  N   N2        1.0  0.41804  0.14964000000000002  0.16485999999999995  1.0000
  N   N3        1.0  0.6536000000000002  0.40048  0.60548  1.0000
  N   N4        1.0  0.58441  0.33215  0.67311  1.0000
  N   N5        1.0  0.84948  0.9105200000000001  0.90814  1.0000
  N   N6        1.0  0.91747  0.8463600000000001  0.8359499999999997  1.0000
  N   N7        1.0  0.15236000000000002  0.5988300000000001  0.39545  1.0000
  N   N8        1.0  0.08284  0.66722  0.32779999999999987  1.0000
  N   N9        1.0  0.65186  0.9105  0.90835  1.0000
  N   N10       1.0  0.58262  0.84685  0.83631  1.0000
  N   N11       1.0  0.34678  0.59844  0.3952199999999999  1.0000
  N   N12       1.0  0.4161600000000001  0.6665900000000002  0.32761  1.0000
  N   N13       1.0  0.15116000000000004  0.08454  0.09349  1.0000
  N   N14       1.0  0.08315  0.15006000000000003  0.16518  1.0000
  N   N15       1.0  0.84801  0.40017  0.6052299999999998  1.0000
  N   N16       1.0  0.9177100000000002  0.33168  0.67279  1.0000
  N   N17       1.0  0.25198  0.26405  0.2810699999999999  1.0000
  N   N18       1.0  0.75137  0.21253000000000002  0.7845599999999998  1.0000
  N   N19       1.0  0.7482800000000001  0.73527  0.71889  1.0000
  N   N20       1.0  0.25008  0.7865900000000001  0.21626  1.0000
  O   O1        1.0  0.56827  0.33263  0.41141  1.0000
  O   O2        1.0  0.43625000000000014  0.16992  0.90964  1.0000
  O   O3        1.0  0.06294  0.66704  0.59151  1.0000
  O   O4        1.0  0.9312  0.81962  0.0868  1.0000
  O   O5        1.0  0.43116  0.6674600000000002  0.58849  1.0000
  O   O6        1.0  0.56383  0.82559  0.09067999999999997  1.0000
  O   O7        1.0  0.93643  0.33262  0.40861999999999987  1.0000
  O   O8        1.0  0.06892  0.17399000000000003  0.91348  1.0000
  O   O9        1.0  0.7475700000000002  0.4259  0.28805999999999987  1.0000
  O   O10       1.0  0.74766  0.18588  0.3119499999999999  1.0000
  O   O11       1.0  0.7490900000000003  0.09409000000000001  0.046789999999999984  1.0000
  O   O12       1.0  0.24275  0.07523  0.7881599999999997  1.0000
  O   O13       1.0  0.25184  0.31557  0.8143899999999997  1.0000
  O   O14       1.0  0.25156  0.38662  0.54933  1.0000
  O   O15       1.0  0.25242  0.57272  0.71141  1.0000
  O   O16       1.0  0.25228  0.81332  0.68853  1.0000
  O   O17       1.0  0.25143  0.90003  0.9561199999999997  1.0000
  O   O18       1.0  0.75746  0.9194700000000001  0.21204999999999993  1.0000
  O   O19       1.0  0.74756  0.6790800000000001  0.18571999999999997  1.0000
  O   O20       1.0  0.749  0.6125  0.45073  1.0000
