data_image0
_chemical_formula_structural       Zn4H8C28N4O16
_chemical_formula_sum              "Zn4 H8 C28 N4 O16"
_cell_length_a       7.16132
_cell_length_b       7.16132
_cell_length_c       19.86193
_cell_angle_alpha    90.0
_cell_angle_beta     90.0
_cell_angle_gamma    90.0

_space_group_name_H-M_alt    "P 1"
_space_group_IT_number       1

loop_
  _space_group_symop_operation_xyz
  'x, y, z'

loop_
  _atom_site_type_symbol
  _atom_site_label
  _atom_site_symmetry_multiplicity
  _atom_site_fract_x
  _atom_site_fract_y
  _atom_site_fract_z
  _atom_site_occupancy
  Zn  Zn1       1.0  0.9999900000000002  1e-05  0.72111  1.0000
  Zn  Zn2       1.0  0.50001  0.5  0.22111  1.0000
  Zn  Zn3       1.0  0.49999  0.49999  0.77889  1.0000
  Zn  Zn4       1.0  2e-05  0.9999900000000002  0.27889  1.0000
  H   H1        1.0  0.80266  0.23212000000000005  0.9498899999999999  1.0000
  H   H2        1.0  0.19734  0.7678800000000001  0.9498899999999999  1.0000
  H   H3        1.0  0.26788  0.30266  0.44989  1.0000
  H   H4        1.0  0.73212  0.69734  0.44989  1.0000
  H   H5        1.0  0.69734  0.73212  0.5501  1.0000
  H   H6        1.0  0.30266  0.26788  0.5501  1.0000
  H   H7        1.0  0.23212000000000005  0.80266  0.05011  1.0000
  H   H8        1.0  0.7678800000000001  0.19734  0.05011  1.0000
  C   C1        1.0  0.89039  0.12776  0.92591  1.0000
  C   C2        1.0  0.89339  0.12271000000000001  0.85582  1.0000
  C   C3        1.0  0.78019  0.24827000000000005  0.81021  1.0000
  C   C4        1.0  0.10961  0.87225  0.92591  1.0000
  C   C5        1.0  0.10660000000000003  0.87729  0.85582  1.0000
  C   C6        1.0  0.2198  0.75174  0.81021  1.0000
  C   C7        1.0  0.3722400000000001  0.3903900000000001  0.42590999999999996  1.0000
  C   C8        1.0  0.37729  0.3934000000000001  0.35582  1.0000
  C   C9        1.0  0.25174  0.2802  0.31021  1.0000
  C   C10       1.0  0.62776  0.6096100000000002  0.42590999999999996  1.0000
  C   C11       1.0  0.6227100000000001  0.60661  0.35582  1.0000
  C   C12       1.0  0.74826  0.7198  0.31021  1.0000
  C   C13       1.0  0.6096100000000002  0.62776  0.57409  1.0000
  C   C14       1.0  0.6066000000000003  0.6227100000000001  0.64418  1.0000
  C   C15       1.0  0.7198  0.74826  0.68978  1.0000
  C   C16       1.0  0.3903900000000001  0.37225  0.57409  1.0000
  C   C17       1.0  0.39339  0.37729  0.64418  1.0000
  C   C18       1.0  0.2802  0.25174  0.68978  1.0000
  C   C19       1.0  0.12776  0.89039  0.07409  1.0000
  C   C20       1.0  0.12271000000000001  0.8934  0.14418  1.0000
  C   C21       1.0  0.24826000000000004  0.78019  0.18978  1.0000
  C   C22       1.0  0.87224  0.10961  0.07409  1.0000
  C   C23       1.0  0.87729  0.10660000000000003  0.14418  1.0000
  C   C24       1.0  0.75174  0.2198  0.18978  1.0000
  C   C25       1.0  0.0  0.0  0.96261  1.0000
  C   C26       1.0  0.5  0.5  0.4626100000000001  1.0000
  C   C27       1.0  0.5  0.5  0.53739  1.0000
  C   C28       1.0  0.0  0.0  0.03739  1.0000
  N   N1        1.0  0.0  0.0  0.8227700000000001  1.0000
  N   N2        1.0  0.5  0.5  0.32277  1.0000
  N   N3        1.0  0.5  0.5  0.67723  1.0000
  N   N4        1.0  0.0  0.0  0.17723  1.0000
  O   O1        1.0  0.6672900000000002  0.3601100000000001  0.83989  1.0000
  O   O2        1.0  0.80392  0.23170000000000002  0.74765  1.0000
  O   O3        1.0  0.3327  0.63989  0.83989  1.0000
  O   O4        1.0  0.19608  0.76831  0.74765  1.0000
  O   O5        1.0  0.13989  0.16729  0.33989  1.0000
  O   O6        1.0  0.2683  0.30392  0.24765000000000004  1.0000
  O   O7        1.0  0.8601200000000001  0.83271  0.33989  1.0000
  O   O8        1.0  0.7317  0.69608  0.24765000000000004  1.0000
  O   O9        1.0  0.83271  0.8601200000000001  0.66011  1.0000
  O   O10       1.0  0.69608  0.7317  0.75235  1.0000
  O   O11       1.0  0.16729  0.13989  0.66011  1.0000
  O   O12       1.0  0.30392  0.26831  0.75235  1.0000
  O   O13       1.0  0.3601100000000001  0.6673  0.16011  1.0000
  O   O14       1.0  0.23170000000000002  0.80392  0.25235  1.0000
  O   O15       1.0  0.63989  0.3327  0.16011  1.0000
  O   O16       1.0  0.76831  0.19608  0.25235  1.0000
