data_image0
_chemical_formula_structural       Dy2H12C24O12
_chemical_formula_sum              "Dy2 H12 C24 O12"
_cell_length_a       8.55157
_cell_length_b       10.39973
_cell_length_c       11.15841
_cell_angle_alpha    62.95264000000001
_cell_angle_beta     73.01496999999999
_cell_angle_gamma    77.84859

_space_group_name_H-M_alt    "P 1"
_space_group_IT_number       1

loop_
  _space_group_symop_operation_xyz
  'x, y, z'

loop_
  _atom_site_type_symbol
  _atom_site_label
  _atom_site_symmetry_multiplicity
  _atom_site_fract_x
  _atom_site_fract_y
  _atom_site_fract_z
  _atom_site_occupancy
  Dy  Dy1       1.0  0.39253000000000016  0.07791000000000001  0.3279599999999999  1.0000
  Dy  Dy2       1.0  0.60711  0.91914  0.67178  1.0000
  H   H1        1.0  0.53103  0.7456400000000001  0.30883  1.0000
  H   H2        1.0  0.50354  0.45290999999999987  0.73781  1.0000
  H   H3        1.0  0.95674  0.15581  0.12357999999999998  1.0000
  H   H4        1.0  0.76155  0.88471  0.015469999999999998  1.0000
  H   H5        1.0  0.2921500000000001  0.4367300000000001  0.9064099999999999  1.0000
  H   H6        1.0  0.87015  0.35277  0.24511  1.0000
  H   H7        1.0  0.4683  0.25104  0.69042  1.0000
  H   H8        1.0  0.49515999999999993  0.54334  0.26254  1.0000
  H   H9        1.0  0.042570000000000066  0.84359  0.87591  1.0000
  H   H10       1.0  0.23766999999999994  0.11479999999999996  0.98431  1.0000
  H   H11       1.0  0.70891  0.56259  0.09431  1.0000
  H   H12       1.0  0.13143  0.6465  0.75524  1.0000
  C   C1        1.0  0.5318999999999999  0.7333700000000001  0.55856  1.0000
  C   C2        1.0  0.51427  0.61345  0.52737  1.0000
  C   C3        1.0  0.51421  0.6383899999999999  0.39278  1.0000
  C   C4        1.0  0.5011100000000002  0.47301999999999994  0.63398  1.0000
  C   C5        1.0  0.68318  0.041650000000000006  0.16603  1.0000
  C   C6        1.0  0.84533  0.020869999999999993  0.07867  1.0000
  C   C7        1.0  0.9779100000000001  0.08748  0.06925  1.0000
  C   C8        1.0  0.86676  0.9331800000000001  0.0086  1.0000
  C   C9        1.0  0.19044999999999995  0.25757  0.17047  1.0000
  C   C10       1.0  0.09110000000000001  0.38256  0.08467999999999999  1.0000
  C   C11       1.0  0.1646  0.46515000000000006  0.9463299999999999  1.0000
  C   C12       1.0  0.9264100000000001  0.41775999999999996  0.13836  1.0000
  C   C13       1.0  0.46725000000000005  0.26394  0.44187  1.0000
  C   C14       1.0  0.4852600000000001  0.38399000000000005  0.47263999999999995  1.0000
  C   C15       1.0  0.48564999999999997  0.35873999999999995  0.60716  1.0000
  C   C16       1.0  0.49845  0.52418  0.36598  1.0000
  C   C17       1.0  0.3167  0.9567300000000001  0.8342599999999999  1.0000
  C   C18       1.0  0.15414000000000005  0.97824  0.92115  1.0000
  C   C19       1.0  0.021410000000000068  0.9118099999999999  0.9303799999999999  1.0000
  C   C20       1.0  0.1326  0.06610000000000006  0.9911199999999999  1.0000
  C   C21       1.0  0.81038  0.7402800000000002  0.8297799999999999  1.0000
  C   C22       1.0  0.9102200000000001  0.6162800000000002  0.91584  1.0000
  C   C23       1.0  0.8366  0.53411  0.05430999999999999  1.0000
  C   C24       1.0  0.07502  0.58152  0.86207  1.0000
  O   O1        1.0  0.47093  0.8641499999999999  0.49221  1.0000
  O   O2        1.0  0.60736  0.70684  0.65064  1.0000
  O   O3        1.0  0.66275  0.12744  0.22496  1.0000
  O   O4        1.0  0.56321  0.97301  0.1846  1.0000
  O   O5        1.0  0.12864  0.17524999999999996  0.29776  1.0000
  O   O6        1.0  0.34153  0.23216999999999993  0.11593  1.0000
  O   O7        1.0  0.53014  0.13361  0.50742  1.0000
  O   O8        1.0  0.38938999999999996  0.28962000000000004  0.35159  1.0000
  O   O9        1.0  0.33660999999999996  0.87159  0.77475  1.0000
  O   O10       1.0  0.43737000000000004  0.024110000000000013  0.81677  1.0000
  O   O11       1.0  0.8712599999999999  0.8217  0.70194  1.0000
  O   O12       1.0  0.65943  0.76548  0.88428  1.0000
