data_image0
_chemical_formula_structural       Zn3H12C36O16
_chemical_formula_sum              "Zn3 H12 C36 O16"
_cell_length_a       9.61084
_cell_length_b       10.24761
_cell_length_c       13.08821
_cell_angle_alpha    111.01806
_cell_angle_beta     105.31681
_cell_angle_gamma    90.50531

_symmetry_space_group_name_H-M    'P 1'
_symmetry_Int_Tables_number       1

loop_
  _symmetry_equiv_pos_as_xyz
  'x,y,z'

loop_
  _atom_site_type_symbol
  _atom_site_label
  _atom_site_symmetry_multiplicity
  _atom_site_fract_x
  _atom_site_fract_y
  _atom_site_fract_z
  _atom_site_occupancy
  Zn  Zn1       1.0  0.53728  0.8005800000000001  0.7284200000000002  1.0000
  Zn  Zn2       1.0  0.4627200000000001  0.19942000000000001  0.27158  1.0000
  Zn  Zn3       1.0  0.5  0.5  0.5  1.0000
  H   H1        1.0  0.5290100000000001  0.2593900000000001  0.6914500000000002  1.0000
  H   H2        1.0  0.6830100000000002  0.6323500000000001  0.9954600000000001  1.0000
  H   H3        1.0  0.6702700000000001  0.22027  0.01847  1.0000
  H   H4        1.0  0.6755900000000001  0.6527800000000001  0.40733000000000014  1.0000
  H   H5        1.0  0.06318000000000001  0.75902  0.69121  1.0000
  H   H6        1.0  0.09319000000000002  0.56506  0.34808000000000006  1.0000
  H   H7        1.0  0.4709900000000001  0.7406  0.30855  1.0000
  H   H8        1.0  0.31699  0.36765  0.004540000000000001  1.0000
  H   H9        1.0  0.3297300000000001  0.7797300000000003  0.9815300000000001  1.0000
  H   H10       1.0  0.3244200000000001  0.34722000000000003  0.5926700000000001  1.0000
  H   H11       1.0  0.9368200000000001  0.24098  0.30878  1.0000
  H   H12       1.0  0.90681  0.43494  0.65192  1.0000
  C   C1        1.0  0.59478  0.22479  0.84974  1.0000
  C   C2        1.0  0.57079  0.30887  0.78395  1.0000
  C   C3        1.0  0.6012600000000002  0.45558  0.83669  1.0000
  C   C4        1.0  0.65834  0.51856  0.95518  1.0000
  C   C5        1.0  0.6521900000000002  0.2862900000000001  0.9681600000000002  1.0000
  C   C6        1.0  0.6860700000000001  0.43411  0.021820000000000006  1.0000
  C   C7        1.0  0.7491600000000003  0.49627000000000004  0.1411  1.0000
  C   C8        1.0  0.80792  0.54788  0.2445  1.0000
  C   C9        1.0  0.8759000000000001  0.60503  0.36314000000000013  1.0000
  C   C10       1.0  0.79254  0.6578100000000001  0.44008  1.0000
  C   C11       1.0  0.8590700000000001  0.70766  0.55713  1.0000
  C   C12       1.0  0.011240000000000023  0.7150200000000001  0.59958  1.0000
  C   C13       1.0  0.09509000000000004  0.6645600000000002  0.5236500000000001  1.0000
  C   C14       1.0  0.027760000000000045  0.6062600000000001  0.4062800000000001  1.0000
  C   C15       1.0  0.56394  0.0689000000000001  0.7921500000000002  1.0000
  C   C16       1.0  0.57047  0.54449  0.76534  1.0000
  C   C17       1.0  0.7697  0.75769  0.63858  1.0000
  C   C18       1.0  0.2569900000000001  0.6694900000000001  0.5658300000000002  1.0000
  C   C19       1.0  0.40522  0.77521  0.15026000000000003  1.0000
  C   C20       1.0  0.42921000000000004  0.69113  0.21605  1.0000
  C   C21       1.0  0.39874000000000004  0.54442  0.16331000000000004  1.0000
  C   C22       1.0  0.34166  0.48144  0.04482  1.0000
  C   C23       1.0  0.34781  0.71371  0.03184000000000001  1.0000
  C   C24       1.0  0.31393000000000004  0.56589  0.9781700000000002  1.0000
  C   C25       1.0  0.25084  0.50373  0.85889  1.0000
  C   C26       1.0  0.19208000000000006  0.4521200000000001  0.7555  1.0000
  C   C27       1.0  0.1241  0.39497000000000004  0.63686  1.0000
  C   C28       1.0  0.20746000000000006  0.34219  0.55992  1.0000
  C   C29       1.0  0.14093000000000003  0.29234  0.44287000000000004  1.0000
  C   C30       1.0  0.9887600000000001  0.28498000000000007  0.40041000000000004  1.0000
  C   C31       1.0  0.9049100000000001  0.33544  0.47635000000000005  1.0000
  C   C32       1.0  0.9722500000000001  0.39374  0.59372  1.0000
  C   C33       1.0  0.43606000000000006  0.9310900000000001  0.20784000000000002  1.0000
  C   C34       1.0  0.42954000000000003  0.4555100000000001  0.23465000000000005  1.0000
  C   C35       1.0  0.2303  0.24231  0.36142  1.0000
  C   C36       1.0  0.7430100000000002  0.3305100000000001  0.4341700000000001  1.0000
  O   O1        1.0  0.5760200000000001  0.99365  0.8539900000000002  1.0000
  O   O2        1.0  0.5283400000000004  0.010680000000000111  0.6844600000000002  1.0000
  O   O3        1.0  0.59711  0.67757  0.81879  1.0000
  O   O4        1.0  0.5187500000000002  0.48000000000000004  0.6583  1.0000
  O   O5        1.0  0.82621  0.84405  0.73717  1.0000
  O   O6        1.0  0.63117  0.7096200000000001  0.60095  1.0000
  O   O7        1.0  0.3196400000000001  0.7499600000000001  0.6688600000000001  1.0000
  O   O8        1.0  0.3165  0.59255  0.49304000000000003  1.0000
  O   O9        1.0  0.42398  0.00635  0.14601  1.0000
  O   O10       1.0  0.47166  0.9893200000000001  0.31554000000000004  1.0000
  O   O11       1.0  0.40289  0.32243  0.18121  1.0000
  O   O12       1.0  0.48125  0.52  0.3417  1.0000
  O   O13       1.0  0.17380000000000004  0.15595  0.26283000000000006  1.0000
  O   O14       1.0  0.36883000000000016  0.29038000000000014  0.3990500000000001  1.0000
  O   O15       1.0  0.6803600000000001  0.25004  0.33114  1.0000
  O   O16       1.0  0.6835  0.40745  0.50695  1.0000
