data_image0
_chemical_formula_structural       Ag4H40C28N8
_chemical_formula_sum              "Ag4 H40 C28 N8"
_cell_length_a       7.23122
_cell_length_b       11.85526
_cell_length_c       9.86111
_cell_angle_alpha    90.03598
_cell_angle_beta     89.99354
_cell_angle_gamma    90.10965

_space_group_name_H-M_alt    "P 1"
_space_group_IT_number       1

loop_
  _space_group_symop_operation_xyz
  'x, y, z'

loop_
  _atom_site_type_symbol
  _atom_site_label
  _atom_site_symmetry_multiplicity
  _atom_site_fract_x
  _atom_site_fract_y
  _atom_site_fract_z
  _atom_site_occupancy
  Ag  Ag1       1.0  0.14964  0.7658700000000002  0.56774  1.0000
  Ag  Ag2       1.0  0.8495  0.2339  0.06653  1.0000
  Ag  Ag3       1.0  0.34801  0.26706  0.56247  1.0000
  Ag  Ag4       1.0  0.65282  0.73258  0.06088  1.0000
  H   H1        1.0  0.48637  0.8032700000000003  0.4576099999999999  1.0000
  H   H2        1.0  0.41345  0.65744  0.4161599999999999  1.0000
  H   H3        1.0  0.48209  0.74949  0.7071199999999997  1.0000
  H   H4        1.0  0.3621  0.55934  0.77337  1.0000
  H   H5        1.0  0.33282  0.52043  0.60088  1.0000
  H   H6        1.0  0.61208  0.51198  0.46136  1.0000
  H   H7        1.0  0.82473  0.47797  0.53773  1.0000
  H   H8        1.0  0.67798  0.30314  0.42925999999999986  1.0000
  H   H9        1.0  0.6672  0.17667  0.62878  1.0000
  H   H10       1.0  0.64998  0.29796  0.7438  1.0000
  H   H11       1.0  0.51296  0.19703000000000004  0.9565999999999998  1.0000
  H   H12       1.0  0.58582  0.3429  0.9157399999999999  1.0000
  H   H13       1.0  0.51702  0.25025  0.20628999999999995  1.0000
  H   H14       1.0  0.63662  0.44005000000000005  0.27378  1.0000
  H   H15       1.0  0.66706  0.47946  0.10156  1.0000
  H   H16       1.0  0.38788  0.48783  0.9613699999999998  1.0000
  H   H17       1.0  0.17523999999999995  0.5223  0.03753  1.0000
  H   H18       1.0  0.32229  0.6967  0.9291099999999999  1.0000
  H   H19       1.0  0.33429  0.82349  0.12847999999999998  1.0000
  H   H20       1.0  0.35164  0.70234  0.24352  1.0000
  H   H21       1.0  0.011319999999999998  0.3021  0.45303  1.0000
  H   H22       1.0  0.08336999999999999  0.15604  0.41336  1.0000
  H   H23       1.0  0.01593  0.25038  0.70312  1.0000
  H   H24       1.0  0.13417  0.06116  0.77176  1.0000
  H   H25       1.0  0.16509  0.0207  0.5999  1.0000
  H   H26       1.0  0.8887  0.00941  0.45927999999999997  1.0000
  H   H27       1.0  0.67445  0.97679  0.53401  1.0000
  H   H28       1.0  0.82088  0.8006200000000001  0.42974999999999997  1.0000
  H   H29       1.0  0.82917  0.6762500000000001  0.6309599999999997  1.0000
  H   H30       1.0  0.84544  0.79811  0.74474  1.0000
  H   H31       1.0  0.98948  0.69813  0.95191  1.0000
  H   H32       1.0  0.91768  0.84424  0.9128799999999998  1.0000
  H   H33       1.0  0.9847299999999998  0.7492  0.20216999999999993  1.0000
  H   H34       1.0  0.8669799999999999  0.93807  0.27209  1.0000
  H   H35       1.0  0.8349199999999999  0.97903  0.1006  1.0000
  H   H36       1.0  0.11088  0.9903800000000001  0.9592699999999998  1.0000
  H   H37       1.0  0.32529  0.023400000000000008  0.03357  1.0000
  H   H38       1.0  0.17868  0.19922000000000004  0.92956  1.0000
  H   H39       1.0  0.1695  0.32387000000000005  0.13069999999999998  1.0000
  H   H40       1.0  0.1531  0.20207000000000003  0.24441999999999997  1.0000
  C   C1        1.0  0.43117  0.7227700000000001  0.4923999999999999  1.0000
  C   C2        1.0  0.42883  0.69101  0.63024  1.0000
  C   C3        1.0  0.41926  0.56902  0.67158  1.0000
  C   C4        1.0  0.67431  0.46296  0.5436299999999998  1.0000
  C   C5        1.0  0.63799  0.33763000000000004  0.52819  1.0000
  C   C6        1.0  0.63652  0.26593  0.6412499999999999  1.0000
  C   C7        1.0  0.71276  0.5148  0.7788999999999998  1.0000
  C   C8        1.0  0.56794  0.2775  0.9917499999999999  1.0000
  C   C9        1.0  0.57022  0.30892  0.1297  1.0000
  C   C10       1.0  0.58006  0.43078  0.17174  1.0000
  C   C11       1.0  0.3257  0.53712  0.04351  1.0000
  C   C12       1.0  0.3624599999999999  0.66235  0.02799  1.0000
  C   C13       1.0  0.3645  0.7342  0.14092999999999997  1.0000
  C   C14       1.0  0.2864399999999999  0.4854300000000001  0.27871  1.0000
  C   C15       1.0  0.06644  0.222  0.4888199999999999  1.0000
  C   C16       1.0  0.06791  0.19118  0.6268  1.0000
  C   C17       1.0  0.07781  0.06959  0.6695799999999998  1.0000
  C   C18       1.0  0.8245  0.9614200000000002  0.54172  1.0000
  C   C19       1.0  0.8599  0.83602  0.52847  1.0000
  C   C20       1.0  0.86084  0.76548  0.64262  1.0000
  C   C21       1.0  0.78387  0.01512  0.7764  1.0000
  C   C22       1.0  0.93443  0.77815  0.98807  1.0000
  C   C23       1.0  0.93318  0.80866  0.12613  1.0000
  C   C24       1.0  0.9227799999999999  0.9300400000000001  0.16967999999999997  1.0000
  C   C25       1.0  0.17521  0.03864000000000001  0.04150999999999999  1.0000
  C   C26       1.0  0.1395  0.16397000000000003  0.028239999999999998  1.0000
  C   C27       1.0  0.13821  0.23462000000000002  0.14232  1.0000
  C   C28       1.0  0.21681  0.9852  0.27613  1.0000
  N   N1        1.0  0.60504  0.51165  0.6710799999999999  1.0000
  N   N2        1.0  0.80593  0.51844  0.8771999999999999  1.0000
  N   N3        1.0  0.39449  0.48849  0.17104999999999998  1.0000
  N   N4        1.0  0.19282  0.48188  0.37683  1.0000
  N   N5        1.0  0.89243  0.01135  0.66902  1.0000
  N   N6        1.0  0.68983  0.019350000000000003  0.87425  1.0000
  N   N7        1.0  0.10782  0.98881  0.16897999999999996  1.0000
  N   N8        1.0  0.31131  0.98129  0.37377  1.0000
