data_image0
_chemical_formula_structural       Mn2H12C36O16
_chemical_formula_sum              "Mn2 H12 C36 O16"
_cell_length_a       10.02923
_cell_length_b       10.40765
_cell_length_c       12.907469999999998
_cell_angle_alpha    64.80977000000001
_cell_angle_beta     84.0373
_cell_angle_gamma    75.84287

_space_group_name_H-M_alt    "P 1"
_space_group_IT_number       1

loop_
  _space_group_symop_operation_xyz
  'x, y, z'

loop_
  _atom_site_type_symbol
  _atom_site_label
  _atom_site_symmetry_multiplicity
  _atom_site_fract_x
  _atom_site_fract_y
  _atom_site_fract_z
  _atom_site_occupancy
  Mn  Mn1       1.0  0.7515100000000001  0.8203  0.35592  1.0000
  Mn  Mn2       1.0  0.2493900000000001  0.17798000000000003  0.64482  1.0000
  H   H1        1.0  0.93288  0.15203999999999998  0.49488000000000004  1.0000
  H   H2        1.0  0.09250000000000001  0.49505  0.22387000000000007  1.0000
  H   H3        1.0  0.84654  0.25623  0.13996  1.0000
  H   H4        1.0  0.5669500000000001  0.35092  0.49302  1.0000
  H   H5        1.0  0.40868  0.28116  0.22700000000000004  1.0000
  H   H6        1.0  0.6551800000000001  0.60849  0.13652  1.0000
  H   H7        1.0  0.06977000000000007  0.8469499999999999  0.50564  1.0000
  H   H8        1.0  0.9073500000000002  0.50522  0.7759700000000002  1.0000
  H   H9        1.0  0.15339000000000005  0.74391  0.86042  1.0000
  H   H10       1.0  0.43378000000000005  0.6489400000000001  0.50745  1.0000
  H   H11       1.0  0.5914500000000004  0.71794  0.77422  1.0000
  H   H12       1.0  0.34458000000000005  0.39144000000000007  0.86357  1.0000
  C   C1        1.0  0.88322  0.18983  0.3203  1.0000
  C   C2        1.0  0.9419500000000002  0.21627000000000002  0.40247  1.0000
  C   C3        1.0  0.014619999999999989  0.32725  0.36617  1.0000
  C   C4        1.0  0.030780000000000043  0.4120899999999999  0.2498  1.0000
  C   C5        1.0  0.9690800000000003  0.38683000000000006  0.16816  1.0000
  C   C6        1.0  0.89488  0.2746799999999999  0.20341  1.0000
  C   C7        1.0  0.8066000000000001  0.06999999999999999  0.36663000000000007  1.0000
  C   C8        1.0  0.086  0.3523899999999999  0.4504200000000001  1.0000
  C   C9        1.0  0.9898700000000002  0.46641999999999995  0.05085  1.0000
  C   C10       1.0  0.61925  0.48955  0.31719  1.0000
  C   C11       1.0  0.55816  0.38016  0.40104  1.0000
  C   C12       1.0  0.4847  0.30727  0.36623  1.0000
  C   C13       1.0  0.46935  0.33970000000000006  0.25065  1.0000
  C   C14       1.0  0.53116  0.44884  0.1668  1.0000
  C   C15       1.0  0.6056900000000001  0.52505  0.20069000000000004  1.0000
  C   C16       1.0  0.6932900000000001  0.5616499999999999  0.36615000000000003  1.0000
  C   C17       1.0  0.41283  0.19700999999999996  0.45209  1.0000
  C   C18       1.0  0.51166  0.48486999999999997  0.04989  1.0000
  C   C19       1.0  0.11849000000000004  0.80891  0.68015  1.0000
  C   C20       1.0  0.059229999999999984  0.78303  0.598  1.0000
  C   C21       1.0  0.98517  0.6734499999999999  0.6340700000000001  1.0000
  C   C22       1.0  0.9681800000000002  0.58886  0.75045  1.0000
  C   C23       1.0  0.02967000000000001  0.6140599999999999  0.8320400000000002  1.0000
  C   C24       1.0  0.10468999999999999  0.72566  0.79699  1.0000
  C   C25       1.0  0.19428  0.93001  0.63187  1.0000
  C   C26       1.0  0.9140500000000003  0.6474300000000001  0.55041  1.0000
  C   C27       1.0  0.010469999999999953  0.53325  0.9494200000000002  1.0000
  C   C28       1.0  0.38055000000000005  0.51035  0.68283  1.0000
  C   C29       1.0  0.44203  0.6197000000000001  0.59942  1.0000
  C   C30       1.0  0.5149300000000002  0.69327  0.63417  1.0000
  C   C31       1.0  0.53058  0.66031  0.74983  1.0000
  C   C32       1.0  0.46869  0.55088  0.83344  1.0000
  C   C33       1.0  0.39422  0.47475  0.79933  1.0000
  C   C34       1.0  0.30724  0.43771  0.6336  1.0000
  C   C35       1.0  0.5853500000000001  0.8037899999999999  0.54673  1.0000
  C   C36       1.0  0.48793000000000003  0.51444  0.95048  1.0000
  O   O1        1.0  0.7883600000000003  0.00676999999999999  0.30178  1.0000
  O   O2        1.0  0.76502  0.039789999999999985  0.46642  1.0000
  O   O3        1.0  0.08142999999999997  0.25704000000000005  0.55845  1.0000
  O   O4        1.0  0.14844  0.45203999999999994  0.4112  1.0000
  O   O5        1.0  0.7127400000000002  0.6946999999999999  0.30026  1.0000
  O   O6        1.0  0.7303399999999999  0.49241  0.46628  1.0000
  O   O7        1.0  0.41621000000000014  0.1825  0.55907  1.0000
  O   O8        1.0  0.35118  0.13563999999999998  0.41487  1.0000
  O   O9        1.0  0.21381000000000003  0.99288  0.69762  1.0000
  O   O10       1.0  0.23082000000000008  0.96401  0.53149  1.0000
  O   O11       1.0  0.9175800000000001  0.74346  0.44177  1.0000
  O   O12       1.0  0.8521300000000002  0.54751  0.58924  1.0000
  O   O13       1.0  0.28759000000000007  0.3050399999999999  0.6995400000000002  1.0000
  O   O14       1.0  0.26985000000000003  0.50845  0.53367  1.0000
  O   O15       1.0  0.58158  0.8186199999999999  0.44073  1.0000
  O   O16       1.0  0.6511  0.86315  0.58359  1.0000
