data_image0
_chemical_formula_structural       Ag2H12C16N8
_chemical_formula_sum              "Ag2 H12 C16 N8"
_cell_length_a       7.12183
_cell_length_b       7.33945
_cell_length_c       9.83605
_cell_angle_alpha    112.77114
_cell_angle_beta     108.4414
_cell_angle_gamma    92.46104

_space_group_name_H-M_alt    "P 1"
_space_group_IT_number       1

loop_
  _space_group_symop_operation_xyz
  'x, y, z'

loop_
  _atom_site_type_symbol
  _atom_site_label
  _atom_site_symmetry_multiplicity
  _atom_site_fract_x
  _atom_site_fract_y
  _atom_site_fract_z
  _atom_site_occupancy
  Ag  Ag1       1.0  0.19457000000000002  0.8033000000000001  0.49472000000000005  1.0000
  Ag  Ag2       1.0  0.9445  0.05129999999999997  0.9998899999999998  1.0000
  H   H1        1.0  0.20954  0.8183800000000002  0.18685  1.0000
  H   H2        1.0  0.81307  0.48237  0.27377  1.0000
  H   H3        1.0  0.6689  0.50501  0.81836  1.0000
  H   H4        1.0  0.19469000000000003  0.78193  0.80593  1.0000
  H   H5        1.0  0.50625  0.18666000000000005  0.71485  1.0000
  H   H6        1.0  0.49658  0.33027  0.18312  1.0000
  H   H7        1.0  0.6332699999999999  0.7213  0.68785  1.0000
  H   H8        1.0  0.04675  0.21262000000000006  0.78078  1.0000
  H   H9        1.0  0.56596  0.8946100000000002  0.32333  1.0000
  H   H10       1.0  0.27081  0.3778800000000001  0.31134  1.0000
  H   H11       1.0  0.78078  0.9631400000000002  0.22252  1.0000
  H   H12       1.0  0.09475  0.44123000000000023  0.68895  1.0000
  C   C1        1.0  0.06632000000000002  0.7187500000000001  0.14329  1.0000
  C   C2        1.0  0.8471799999999999  0.52731  0.18963  1.0000
  C   C3        1.0  0.71967  0.4453800000000001  0.02946  1.0000
  C   C4        1.0  0.77002  0.53861  0.93803  1.0000
  C   C5        1.0  0.28904  0.9274400000000003  0.85058  1.0000
  C   C6        1.0  0.46824  0.15172  0.80203  1.0000
  C   C7        1.0  0.55416  0.2783300000000001  0.96493  1.0000
  C   C8        1.0  0.46341  0.22706000000000007  0.05986  1.0000
  C   C9        1.0  0.68558  0.8228000000000002  0.64591  1.0000
  C   C10       1.0  0.917  0.09441000000000001  0.69608  1.0000
  C   C11       1.0  0.8367099999999998  0.06257000000000006  0.53674  1.0000
  C   C12       1.0  0.65282  0.9162200000000001  0.44344  1.0000
  C   C13       1.0  0.17026  0.32351000000000013  0.35592  1.0000
  C   C14       1.0  0.90213  0.08894  0.30924  1.0000
  C   C15       1.0  0.93843  0.16531  0.47271  1.0000
  C   C16       1.0  0.07879999999999998  0.35268  0.56609  1.0000
  N   N1        1.0  0.020239999999999998  0.6572100000000002  0.24601999999999996  1.0000
  N   N2        1.0  0.94161  0.66905  0.99415  1.0000
  N   N3        1.0  0.34188  0.9769200000000002  0.74592  1.0000
  N   N4        1.0  0.33758  0.05448  0.00458  1.0000
  N   N5        1.0  0.84739  0.9751600000000002  0.75077  1.0000
  N   N6        1.0  0.58384  0.7961400000000002  0.49714  1.0000
  N   N7        1.0  0.019009999999999996  0.16316000000000005  0.25214  1.0000
  N   N8        1.0  0.19397  0.42748000000000025  0.50993  1.0000
