data_image0
_chemical_formula_structural       Cd3H12C32N4O20
_chemical_formula_sum              "Cd3 H12 C32 N4 O20"
_cell_length_a       9.91747
_cell_length_b       10.5835
_cell_length_c       12.568679999999999
_cell_angle_alpha    111.55348
_cell_angle_beta     101.36126000000002
_cell_angle_gamma    94.05169

_space_group_name_H-M_alt    "P 1"
_space_group_IT_number       1

loop_
  _space_group_symop_operation_xyz
  'x, y, z'

loop_
  _atom_site_type_symbol
  _atom_site_label
  _atom_site_symmetry_multiplicity
  _atom_site_fract_x
  _atom_site_fract_y
  _atom_site_fract_z
  _atom_site_occupancy
  Cd  Cd1       1.0  0.45235  0.16851  0.24810999999999997  1.0000
  Cd  Cd2       1.0  0.54765  0.83149  0.75189  1.0000
  Cd  Cd3       1.0  0.5  0.5  0.5  1.0000
  H   H1        1.0  0.8794900000000001  0.4445  0.64077  1.0000
  H   H2        1.0  0.29495  0.37385  0.59968  1.0000
  H   H3        1.0  0.9453  0.21905000000000002  0.29684  1.0000
  H   H4        1.0  0.29999  0.72545  0.93175  1.0000
  H   H5        1.0  0.46503  0.72185  0.27378  1.0000
  H   H6        1.0  0.31091  0.33737  0.97707  1.0000
  H   H7        1.0  0.12051000000000002  0.5555  0.35923  1.0000
  H   H8        1.0  0.70505  0.6261500000000002  0.40032  1.0000
  H   H9        1.0  0.05468999999999997  0.78095  0.7031599999999999  1.0000
  H   H10       1.0  0.7  0.27455  0.06825  1.0000
  H   H11       1.0  0.53497  0.27814  0.72622  1.0000
  H   H12       1.0  0.6890900000000001  0.66262  0.022929999999999996  1.0000
  C   C1        1.0  0.73984  0.31665999999999994  0.4166499999999999  1.0000
  C   C2        1.0  0.89525  0.331  0.4634499999999999  1.0000
  C   C3        1.0  0.9487099999999999  0.4015  0.58432  1.0000
  C   C4        1.0  0.09109000000000003  0.4121  0.63199  1.0000
  C   C5        1.0  0.18376000000000003  0.35976  0.56155  1.0000
  C   C6        1.0  0.13006999999999996  0.29389999999999994  0.44028999999999996  1.0000
  C   C7        1.0  0.9858399999999999  0.27622  0.39123  1.0000
  C   C8        1.0  0.22652  0.23841000000000004  0.36175  1.0000
  C   C9        1.0  0.29716  0.52285  0.9423  1.0000
  C   C10       1.0  0.32352  0.6672999999999999  0.9868799999999999  1.0000
  C   C11       1.0  0.38575  0.7378299999999999  0.10654999999999998  1.0000
  C   C12       1.0  0.4199300000000001  0.66568  0.17988  1.0000
  C   C13       1.0  0.39346  0.52117  0.13303  1.0000
  C   C14       1.0  0.33229  0.4491200000000001  0.01368  1.0000
  C   C15       1.0  0.43017  0.44211  0.21036999999999997  1.0000
  C   C16       1.0  0.41387000000000007  0.89183  0.1562  1.0000
  C   C17       1.0  0.26015000000000005  0.68333  0.58335  1.0000
  C   C18       1.0  0.10473999999999999  0.669  0.53655  1.0000
  C   C19       1.0  0.05128999999999997  0.59849  0.4156799999999999  1.0000
  C   C20       1.0  0.9089  0.5878999999999999  0.36801  1.0000
  C   C21       1.0  0.8162300000000001  0.6402299999999999  0.4384499999999999  1.0000
  C   C22       1.0  0.86992  0.7061  0.55971  1.0000
  C   C23       1.0  0.014149999999999996  0.7237799999999999  0.60877  1.0000
  C   C24       1.0  0.77347  0.7615799999999999  0.63825  1.0000
  C   C25       1.0  0.70283  0.47715  0.05769  1.0000
  C   C26       1.0  0.67647  0.33269  0.01311  1.0000
  C   C27       1.0  0.61424  0.26215999999999995  0.8934499999999997  1.0000
  C   C28       1.0  0.58007  0.33431  0.82012  1.0000
  C   C29       1.0  0.6065399999999999  0.4788199999999998  0.8669699999999998  1.0000
  C   C30       1.0  0.66771  0.5508799999999999  0.98632  1.0000
  C   C31       1.0  0.56982  0.55789  0.78963  1.0000
  C   C32       1.0  0.58612  0.10816000000000003  0.8437999999999999  1.0000
  N   N1        1.0  0.13688  0.48831  0.75582  1.0000
  N   N2        1.0  0.24156  0.44054000000000004  0.82036  1.0000
  N   N3        1.0  0.86311  0.5116899999999999  0.24417999999999998  1.0000
  N   N4        1.0  0.75843  0.55945  0.17964  1.0000
  O   O1        1.0  0.6891  0.24972  0.30672  1.0000
  O   O2        1.0  0.67384  0.37361  0.49413  1.0000
  O   O3        1.0  0.1794  0.14899  0.26077  1.0000
  O   O4        1.0  0.35911  0.28617999999999993  0.40591999999999995  1.0000
  O   O5        1.0  0.39435  0.31244  0.15912  1.0000
  O   O6        1.0  0.49422  0.51185  0.31683  1.0000
  O   O7        1.0  0.38904  0.95352  0.08609999999999998  1.0000
  O   O8        1.0  0.46054  0.95583  0.26728  1.0000
  O   O9        1.0  0.08004999999999995  0.5854099999999999  0.8095699999999999  1.0000
  O   O10       1.0  0.27235000000000004  0.3242499999999999  0.7721799999999999  1.0000
  O   O11       1.0  0.31090000000000007  0.7502800000000001  0.69327  1.0000
  O   O12       1.0  0.32615  0.6263799999999999  0.50586  1.0000
  O   O13       1.0  0.8206000000000001  0.85101  0.73922  1.0000
  O   O14       1.0  0.64088  0.7138199999999999  0.5940799999999999  1.0000
  O   O15       1.0  0.60564  0.68756  0.84088  1.0000
  O   O16       1.0  0.50578  0.48815000000000003  0.68317  1.0000
  O   O17       1.0  0.61096  0.0464800000000001  0.9139  1.0000
  O   O18       1.0  0.53945  0.04415999999999992  0.7327199999999998  1.0000
  O   O19       1.0  0.9199400000000001  0.41458  0.19043  1.0000
  O   O20       1.0  0.72764  0.67574  0.22782  1.0000
