data_image0
_chemical_formula_structural       Sm2H16C32O16
_chemical_formula_sum              "Sm2 H16 C32 O16"
_cell_length_a       8.5315
_cell_length_b       10.58182
_cell_length_c       14.63907
_cell_angle_alpha    103.12034000000001
_cell_angle_beta     104.57071
_cell_angle_gamma    97.62342

_symmetry_space_group_name_H-M    'P 1'
_symmetry_Int_Tables_number       1

loop_
  _symmetry_equiv_pos_as_xyz
  'x,y,z'

loop_
  _atom_site_type_symbol
  _atom_site_label
  _atom_site_symmetry_multiplicity
  _atom_site_fract_x
  _atom_site_fract_y
  _atom_site_fract_z
  _atom_site_occupancy
  Sm  Sm1       1.0  0.31401  0.32699  0.3224  1.0000
  Sm  Sm2       1.0  0.68592  0.672  0.67636  1.0000
  H   H1        1.0  0.19980999999999996  0.64046  0.27772  1.0000
  H   H2        1.0  0.16793000000000002  0.7955100000000002  0.17050000000000004  1.0000
  H   H3        1.0  0.6058  0.06579000000000004  0.37139000000000005  1.0000
  H   H4        1.0  0.63544  0.91108  0.47752000000000006  1.0000
  H   H5        1.0  0.84406  0.38847  0.09195  1.0000
  H   H6        1.0  0.3071099999999999  0.53054  0.04766  1.0000
  H   H7        1.0  0.11197000000000003  0.9126000000000001  0.36157  1.0000
  H   H8        1.0  0.95077  0.23116  0.53118  1.0000
  H   H9        1.0  0.7992700000000003  0.3585400000000001  0.7218800000000001  1.0000
  H   H10       1.0  0.8310299999999998  0.20326  0.8291  1.0000
  H   H11       1.0  0.3936300000000002  0.93294  0.6285800000000002  1.0000
  H   H12       1.0  0.3638100000000001  0.08698000000000003  0.5218600000000001  1.0000
  H   H13       1.0  0.15569000000000005  0.61224  0.9075700000000002  1.0000
  H   H14       1.0  0.69238  0.46995  0.95176  1.0000
  H   H15       1.0  0.88821  0.08690000000000005  0.6383300000000001  1.0000
  H   H16       1.0  0.04945000000000003  0.76854  0.4688800000000001  1.0000
  C   C1        1.0  0.42045  0.76557  0.3830000000000001  1.0000
  C   C2        1.0  0.28846  0.7329  0.29634  1.0000
  C   C3        1.0  0.27041  0.8191499999999999  0.23728000000000005  1.0000
  C   C4        1.0  0.38537  0.93952  0.26420000000000005  1.0000
  C   C5        1.0  0.51817  0.9723  0.35067000000000004  1.0000
  C   C6        1.0  0.5347  0.8862200000000001  0.41001  1.0000
  C   C7        1.0  0.43817  0.67193  0.44615  1.0000
  C   C8        1.0  0.36353  0.03373000000000002  0.20203  1.0000
  C   C9        1.0  0.08313999999999999  0.4554000000000001  0.07687  1.0000
  C   C10       1.0  0.9097200000000002  0.43789  0.050890000000000005  1.0000
  C   C11       1.0  0.17304999999999995  0.51777  0.025660000000000006  1.0000
  C   C12       1.0  0.16994999999999993  0.40883  0.16047  1.0000
  C   C13       1.0  0.03365000000000006  0.07900000000000004  0.44052000000000013  1.0000
  C   C14       1.0  0.062020000000000075  0.9490500000000002  0.4218400000000001  1.0000
  C   C15       1.0  0.97096  0.12988999999999998  0.51855  1.0000
  C   C16       1.0  0.08560000000000004  0.16678000000000007  0.3830600000000001  1.0000
  C   C17       1.0  0.57924  0.23292000000000007  0.6162200000000002  1.0000
  C   C18       1.0  0.71099  0.2658500000000001  0.7030300000000003  1.0000
  C   C19       1.0  0.7288699999999999  0.17969000000000013  0.7621900000000003  1.0000
  C   C20       1.0  0.6139600000000002  0.0593700000000001  0.7354500000000003  1.0000
  C   C21       1.0  0.4812  0.026420000000000072  0.6489300000000002  1.0000
  C   C22       1.0  0.46489  0.11221000000000006  0.58931  1.0000
  C   C23       1.0  0.56179  0.32673  0.55319  1.0000
  C   C24       1.0  0.63635  0.96552  0.7979300000000003  1.0000
  C   C25       1.0  0.91636  0.54519  0.92257  1.0000
  C   C26       1.0  0.08986  0.56278  0.94856  1.0000
  C   C27       1.0  0.8264699999999999  0.48283  0.97379  1.0000
  C   C28       1.0  0.82976  0.59211  0.83915  1.0000
  C   C29       1.0  0.9666199999999999  0.92074  0.55936  1.0000
  C   C30       1.0  0.9380600000000004  0.05058999999999999  0.578  1.0000
  C   C31       1.0  0.029170000000000074  0.86979  0.48132000000000014  1.0000
  C   C32       1.0  0.9143600000000002  0.8329000000000002  0.6166800000000002  1.0000
  O   O1        1.0  0.37444  0.5495300000000002  0.4074500000000001  1.0000
  O   O2        1.0  0.51425  0.7191  0.53718  1.0000
  O   O3        1.0  0.28488  0.99144  0.11251  1.0000
  O   O4        1.0  0.4251399999999999  0.15804  0.24225000000000002  1.0000
  O   O5        1.0  0.08391999999999998  0.36039  0.21003  1.0000
  O   O6        1.0  0.32706  0.4192  0.18503  1.0000
  O   O7        1.0  0.11879000000000006  0.11799000000000003  0.3034400000000001  1.0000
  O   O8        1.0  0.10950999999999995  0.29307  0.41645  1.0000
  O   O9        1.0  0.62722  0.44904000000000005  0.592  1.0000
  O   O10       1.0  0.48388999999999993  0.27944  0.4624900000000001  1.0000
  O   O11       1.0  0.7153600000000001  0.008490000000000098  0.8873900000000002  1.0000
  O   O12       1.0  0.5755099999999999  0.8410500000000001  0.75814  1.0000
  O   O13       1.0  0.9164999999999999  0.64068  0.78997  1.0000
  O   O14       1.0  0.67271  0.58196  0.8144100000000001  1.0000
  O   O15       1.0  0.8806400000000001  0.88159  0.6960900000000002  1.0000
  O   O16       1.0  0.8905700000000003  0.7066500000000001  0.58316  1.0000
