data_image0
_chemical_formula_structural       Sm2H12C24O12
_chemical_formula_sum              "Sm2 H12 C24 O12"
_cell_length_a       9.37417
_cell_length_b       9.889480000000002
_cell_length_c       11.58171
_cell_angle_alpha    77.51242
_cell_angle_beta     83.57638999999999
_cell_angle_gamma    72.17556

_space_group_name_H-M_alt    "P 1"
_space_group_IT_number       1

loop_
  _space_group_symop_operation_xyz
  'x, y, z'

loop_
  _atom_site_type_symbol
  _atom_site_label
  _atom_site_symmetry_multiplicity
  _atom_site_fract_x
  _atom_site_fract_y
  _atom_site_fract_z
  _atom_site_occupancy
  Sm  Sm1       1.0  0.9811899999999998  0.18821  0.7821200000000001  1.0000
  Sm  Sm2       1.0  0.024310000000000005  0.81377  0.21476  1.0000
  H   H1        1.0  0.6653  0.8073  0.14323  1.0000
  H   H2        1.0  0.6143399999999999  0.13860000000000003  0.82741  1.0000
  H   H3        1.0  0.4514699999999999  0.43333  0.71777  1.0000
  H   H4        1.0  0.7633100000000002  0.46897999999999995  0.4197  1.0000
  H   H5        1.0  0.29433  0.88527  0.52486  1.0000
  H   H6        1.0  0.46869999999999984  0.21499000000000001  0.5895  1.0000
  H   H7        1.0  0.33762000000000003  0.19437000000000004  0.85601  1.0000
  H   H8        1.0  0.38864999999999983  0.8642400000000001  0.17244  1.0000
  H   H9        1.0  0.54879  0.56265  0.28175  1.0000
  H   H10       1.0  0.23686999999999994  0.52645  0.5800600000000001  1.0000
  H   H11       1.0  0.7056  0.11760000000000001  0.47193  1.0000
  H   H12       1.0  0.53204  0.78603  0.40908000000000005  1.0000
  C   C1        1.0  0.6578899999999995  0.96823  0.9826500000000002  1.0000
  C   C2        1.0  0.59349  0.8913900000000001  0.08028  1.0000
  C   C3        1.0  0.56465  0.07794  0.90207  1.0000
  C   C4        1.0  0.8241999999999998  0.93606  0.9653400000000001  1.0000
  C   C5        1.0  0.61854  0.44579999999999986  0.5754600000000001  1.0000
  C   C6        1.0  0.47083  0.4627800000000001  0.62246  1.0000
  C   C7        1.0  0.6477299999999999  0.48163999999999996  0.45284  1.0000
  C   C8        1.0  0.7465  0.38139  0.65461  1.0000
  C   C9        1.0  0.36787  0.0563  0.56298  1.0000
  C   C10       1.0  0.38502000000000003  0.93495  0.5124700000000001  1.0000
  C   C11       1.0  0.48387  0.12149000000000001  0.54958  1.0000
  C   C12       1.0  0.22704  0.11478000000000002  0.63152  1.0000
  C   C13       1.0  0.34497  0.03434  0.01698  1.0000
  C   C14       1.0  0.4094999999999999  0.11066  0.9191200000000002  1.0000
  C   C15       1.0  0.43828000000000006  0.9245999999999999  0.09755000000000001  1.0000
  C   C16       1.0  0.17843  0.0673  0.03392  1.0000
  C   C17       1.0  0.38158999999999993  0.55003  0.4241200000000001  1.0000
  C   C18       1.0  0.52933  0.53337  0.37711  1.0000
  C   C19       1.0  0.3523800000000001  0.51436  0.54682  1.0000
  C   C20       1.0  0.25328  0.61456  0.34537  1.0000
  C   C21       1.0  0.6321599999999999  0.9467900000000001  0.4330300000000001  1.0000
  C   C22       1.0  0.61534  0.06739  0.48451  1.0000
  C   C23       1.0  0.5169399999999996  0.88028  0.448  1.0000
  C   C24       1.0  0.7714800000000002  0.8925  0.3608600000000001  1.0000
  O   O1        1.0  0.8789199999999999  0.0054599999999999805  0.87425  1.0000
  O   O2        1.0  0.9078399999999999  0.8401200000000001  0.04228  1.0000
  O   O3        1.0  0.8811399999999999  0.36403  0.6105600000000001  1.0000
  O   O4        1.0  0.7223699999999998  0.33507000000000003  0.7657000000000002  1.0000
  O   O5        1.0  0.20947  0.22474000000000005  0.67952  1.0000
  O   O6        1.0  0.12217000000000006  0.0521  0.64539  1.0000
  O   O7        1.0  0.12277  0.0003699999999999984  0.12595  1.0000
  O   O8        1.0  0.09591000000000001  0.1612599999999999  0.9552400000000001  1.0000
  O   O9        1.0  0.11877  0.63378  0.38888  1.0000
  O   O10       1.0  0.27770000000000006  0.66013  0.2336  1.0000
  O   O11       1.0  0.7916399999999999  0.7807800000000001  0.31447  1.0000
  O   O12       1.0  0.87159  0.9608500000000001  0.34282  1.0000
