data_image0
_chemical_formula_structural       Cu6P4H16C12O20
_chemical_formula_sum              "Cu6 P4 H16 C12 O20"
_cell_length_a       4.38124
_cell_length_b       13.96603
_cell_length_c       15.537500000000001
_cell_angle_alpha    90.00485
_cell_angle_beta     94.49356999999999
_cell_angle_gamma    90.00984999999999

_symmetry_space_group_name_H-M    'P 1'
_symmetry_Int_Tables_number       1

loop_
  _symmetry_equiv_pos_as_xyz
  'x,y,z'

loop_
  _atom_site_type_symbol
  _atom_site_label
  _atom_site_symmetry_multiplicity
  _atom_site_fract_x
  _atom_site_fract_y
  _atom_site_fract_z
  _atom_site_occupancy
  Cu  Cu1       1.0  0.4835800000000001  0.10728  0.8651400000000001  1.0000
  Cu  Cu2       1.0  0.016210000000000075  0.60715  0.6349300000000002  1.0000
  Cu  Cu3       1.0  0.51641  0.8927200000000002  0.13486000000000006  1.0000
  Cu  Cu4       1.0  0.98378  0.39285  0.36507  1.0000
  Cu  Cu5       1.0  0.9999900000000002  0.0  1e-05  1.0000
  Cu  Cu6       1.0  0.49999  0.5  0.50001  1.0000
  P   P1        1.0  0.43218  0.89644  0.92584  1.0000
  P   P2        1.0  0.06778000000000006  0.3963500000000001  0.5741600000000002  1.0000
  P   P3        1.0  0.56779  0.10356  0.07416  1.0000
  P   P4        1.0  0.9322  0.6036500000000001  0.42585000000000006  1.0000
  H   H1        1.0  0.34726999999999997  0.7277700000000003  0.90153  1.0000
  H   H2        1.0  0.09671  0.79691  0.82868  1.0000
  H   H3        1.0  0.803  0.78435  0.82704  1.0000
  H   H4        1.0  0.56496  0.85512  0.75597  1.0000
  H   H5        1.0  0.15282000000000007  0.22753000000000007  0.5984500000000003  1.0000
  H   H6        1.0  0.40322  0.29661  0.6713200000000002  1.0000
  H   H7        1.0  0.69688  0.28431000000000006  0.67281  1.0000
  H   H8        1.0  0.9354699999999999  0.35504  0.7439800000000002  1.0000
  H   H9        1.0  0.65272  0.27223  0.09848  1.0000
  H   H10       1.0  0.90328  0.20309000000000002  0.17132000000000006  1.0000
  H   H11       1.0  0.19699  0.21565  0.17296  1.0000
  H   H12       1.0  0.43503  0.14488  0.24403000000000005  1.0000
  H   H13       1.0  0.84718  0.7724700000000001  0.40155  1.0000
  H   H14       1.0  0.59677  0.70339  0.32868000000000014  1.0000
  H   H15       1.0  0.30311  0.7156900000000003  0.32719  1.0000
  H   H16       1.0  0.06453  0.64495  0.25602  1.0000
  C   C1        1.0  0.33955  0.79157  0.86007  1.0000
  C   C2        1.0  0.5628100000000001  0.7883000000000001  0.7935400000000002  1.0000
  C   C3        1.0  0.5332900000000002  0.7069000000000002  0.7287600000000002  1.0000
  C   C4        1.0  0.16036  0.29137  0.63989  1.0000
  C   C5        1.0  0.9370200000000001  0.28819  0.7064000000000002  1.0000
  C   C6        1.0  0.9661  0.20677000000000006  0.77121  1.0000
  C   C7        1.0  0.66043  0.20843000000000006  0.13994  1.0000
  C   C8        1.0  0.43718000000000007  0.21170000000000005  0.20646000000000006  1.0000
  C   C9        1.0  0.46670999999999996  0.2931000000000001  0.27124  1.0000
  C   C10       1.0  0.8396300000000001  0.7086300000000002  0.3601100000000001  1.0000
  C   C11       1.0  0.06297000000000004  0.71181  0.29360000000000014  1.0000
  C   C12       1.0  0.033900000000000007  0.7932200000000003  0.22879000000000005  1.0000
  O   O1        1.0  0.7812500000000001  0.8990800000000001  0.9339600000000002  1.0000
  O   O2        1.0  0.69434  0.11037000000000002  0.9808100000000002  1.0000
  O   O3        1.0  0.2822  0.98623  0.87949  1.0000
  O   O4        1.0  0.30921  0.6486500000000002  0.7333  1.0000
  O   O5        1.0  0.73804  0.7079100000000002  0.6745300000000002  1.0000
  O   O6        1.0  0.7187200000000002  0.39895  0.5659600000000002  1.0000
  O   O7        1.0  0.80563  0.6101700000000001  0.5192500000000002  1.0000
  O   O8        1.0  0.21765000000000007  0.4861100000000001  0.6206300000000002  1.0000
  O   O9        1.0  0.18944  0.14836  0.76672  1.0000
  O   O10       1.0  0.76145  0.20796000000000006  0.8254600000000001  1.0000
  O   O11       1.0  0.21873  0.10092000000000002  0.06605  1.0000
  O   O12       1.0  0.30565  0.8896200000000002  0.0192  1.0000
  O   O13       1.0  0.71776  0.013770000000000003  0.12052000000000003  1.0000
  O   O14       1.0  0.69079  0.3513500000000001  0.2667  1.0000
  O   O15       1.0  0.26196  0.2920900000000001  0.3254700000000001  1.0000
  O   O16       1.0  0.28126  0.60105  0.43405  1.0000
  O   O17       1.0  0.19435000000000002  0.3898300000000001  0.48076000000000013  1.0000
  O   O18       1.0  0.78231  0.51389  0.3793800000000001  1.0000
  O   O19       1.0  0.81056  0.8516400000000001  0.23328  1.0000
  O   O20       1.0  0.23854000000000003  0.79204  0.17454000000000006  1.0000
