data_image0
_chemical_formula_structural       Mn6H16C8N40Cl4
_chemical_formula_sum              "Mn6 H16 C8 N40 Cl4"
_cell_length_a       9.30261
_cell_length_b       8.86657
_cell_length_c       13.21323
_cell_angle_alpha    90.03476
_cell_angle_beta     90.02136
_cell_angle_gamma    90.58951

_space_group_name_H-M_alt    "P 1"
_space_group_IT_number       1

loop_
  _space_group_symop_operation_xyz
  'x, y, z'

loop_
  _atom_site_type_symbol
  _atom_site_label
  _atom_site_symmetry_multiplicity
  _atom_site_fract_x
  _atom_site_fract_y
  _atom_site_fract_z
  _atom_site_occupancy
  Mn  Mn1       1.0  0.76518  0.51193  0.7859899999999997  1.0000
  Mn  Mn2       1.0  0.73479  0.9880900000000001  0.28602  1.0000
  Mn  Mn3       1.0  0.49996999999999997  0.99992  0.50009  1.0000
  Mn  Mn4       1.0  0.23484  0.4881  0.21402  1.0000
  Mn  Mn5       1.0  0.26519  0.011880000000000002  0.71399  1.0000
  Mn  Mn6       1.0  0.99996  0.49987000000000004  0.9999699999999999  1.0000
  H   H1        1.0  0.47822000000000003  0.41809  0.88778  1.0000
  H   H2        1.0  0.025160000000000002  0.18887000000000007  0.57182  1.0000
  H   H3        1.0  0.33451  0.29706  0.86908  1.0000
  H   H4        1.0  0.02059  0.08233  0.38784  1.0000
  H   H5        1.0  0.52546  0.6887600000000003  0.92801  1.0000
  H   H6        1.0  0.16513  0.20240000000000005  0.36912  1.0000
  H   H7        1.0  0.47453  0.31125  0.07199  1.0000
  H   H8        1.0  0.14488  0.7426700000000003  0.39758  1.0000
  H   H9        1.0  0.64466  0.24318000000000004  0.10274999999999997  1.0000
  H   H10       1.0  0.83489  0.7976  0.6308899999999998  1.0000
  H   H11       1.0  0.85512  0.25734000000000007  0.60243  1.0000
  H   H12       1.0  0.97484  0.81113  0.4281899999999999  1.0000
  H   H13       1.0  0.5217799999999999  0.58192  0.11222  1.0000
  H   H14       1.0  0.35533  0.7568200000000003  0.89724  1.0000
  H   H15       1.0  0.6655  0.70294  0.13092  1.0000
  H   H16       1.0  0.9794099999999999  0.9176400000000001  0.61219  1.0000
  C   C1        1.0  0.99705  0.78309  0.73535  1.0000
  C   C2        1.0  0.00383  0.26012  0.71723  1.0000
  C   C3        1.0  0.99618  0.7398800000000002  0.28276  1.0000
  C   C4        1.0  0.49575  0.23979  0.21738  1.0000
  C   C5        1.0  0.50425  0.7602200000000002  0.7826199999999998  1.0000
  C   C6        1.0  0.00295  0.21688000000000004  0.26469  1.0000
  C   C7        1.0  0.50343  0.7165100000000001  0.23534  1.0000
  C   C8        1.0  0.49657999999999997  0.28349  0.76467  1.0000
  N   N1        1.0  0.4413099999999999  0.32079  0.8560999999999999  1.0000
  N   N2        1.0  0.618  0.34341  0.72328  1.0000
  N   N3        1.0  0.1294  0.244  0.8556  1.0000
  N   N4        1.0  0.48018000000000005  0.16821  0.37325  1.0000
  N   N5        1.0  0.56246  0.15609  0.28843  1.0000
  N   N6        1.0  0.9638799999999998  0.33108  0.12356  1.0000
  N   N7        1.0  0.8813300000000001  0.15733  0.22334  1.0000
  N   N8        1.0  0.38201  0.6566000000000002  0.27672  1.0000
  N   N9        1.0  0.05645  0.32531  0.20348  1.0000
  N   N10       1.0  0.9435399999999999  0.6746600000000003  0.7965399999999999  1.0000
  N   N11       1.0  0.96274  0.25069  0.61903  1.0000
  N   N12       1.0  0.06304  0.65662  0.21150999999999998  1.0000
  N   N13       1.0  0.87768  0.80428  0.24180999999999997  1.0000
  N   N14       1.0  0.01909  0.3307500000000001  0.8734  1.0000
  N   N15       1.0  0.87061  0.75597  0.14439  1.0000
  N   N16       1.0  0.94173  0.82077  0.64392  1.0000
  N   N17       1.0  0.51982  0.83177  0.6267599999999998  1.0000
  N   N18       1.0  0.0361  0.6688500000000001  0.8764699999999997  1.0000
  N   N19       1.0  0.63966  0.26869  0.63508  1.0000
  N   N20       1.0  0.55669  0.8251000000000002  0.29667  1.0000
  N   N21       1.0  0.46425  0.8306  0.37662  1.0000
  N   N22       1.0  0.46296999999999994  0.7504600000000001  0.88079  1.0000
  N   N23       1.0  0.12234  0.19573  0.7581699999999998  1.0000
  N   N24       1.0  0.11867000000000001  0.84263  0.77671  1.0000
  N   N25       1.0  0.63011  0.74492  0.6444199999999998  1.0000
  N   N26       1.0  0.14025  0.76784  0.86484  1.0000
  N   N27       1.0  0.03726  0.74932  0.38097  1.0000
  N   N28       1.0  0.36035  0.73131  0.3649199999999999  1.0000
  N   N29       1.0  0.5587  0.67921  0.1439  1.0000
  N   N30       1.0  0.53575  0.16941  0.6233899999999998  1.0000
  N   N31       1.0  0.6228  0.69604  0.7416399999999997  1.0000
  N   N32       1.0  0.93695  0.3433500000000001  0.78849  1.0000
  N   N33       1.0  0.05827999999999999  0.17921  0.35611999999999994  1.0000
  N   N34       1.0  0.3771999999999999  0.30396  0.25835  1.0000
  N   N35       1.0  0.3699  0.25507  0.35559  1.0000
  N   N36       1.0  0.43754  0.84392  0.71157  1.0000
  N   N37       1.0  0.9808999999999999  0.66918  0.1266  1.0000
  N   N38       1.0  0.53702  0.24954  0.11919999999999997  1.0000
  N   N39       1.0  0.85974  0.23209  0.1352  1.0000
  N   N40       1.0  0.44332  0.17491  0.7033299999999998  1.0000
  Cl  Cl1       1.0  0.7740099999999999  0.9974700000000001  0.46537  1.0000
  Cl  Cl2       1.0  0.27381  0.49685000000000007  0.0347  1.0000
  Cl  Cl3       1.0  0.22598999999999997  0.0025400000000000006  0.53463  1.0000
  Cl  Cl4       1.0  0.72617  0.5031  0.9653099999999998  1.0000
