data_image0
_chemical_formula_structural       In2H8C24N8O16
_chemical_formula_sum              "In2 H8 C24 N8 O16"
_cell_length_a       9.28446
_cell_length_b       9.28409
_cell_length_c       13.9355
_cell_angle_alpha    109.27787
_cell_angle_beta     109.29277
_cell_angle_gamma    90.03703000000002

_space_group_name_H-M_alt    "P 1"
_space_group_IT_number       1

loop_
  _space_group_symop_operation_xyz
  'x, y, z'

loop_
  _atom_site_type_symbol
  _atom_site_label
  _atom_site_symmetry_multiplicity
  _atom_site_fract_x
  _atom_site_fract_y
  _atom_site_fract_z
  _atom_site_occupancy
  In  In1       1.0  0.62481  0.8745699999999998  0.24992  1.0000
  In  In2       1.0  0.37519  0.12542  0.75008  1.0000
  H   H1        1.0  0.76973  0.60715  0.06294  1.0000
  H   H2        1.0  0.29364  0.9549099999999999  0.06367  1.0000
  H   H3        1.0  0.4558100000000001  0.26968000000000003  0.5632200000000002  1.0000
  H   H4        1.0  0.10813  0.79337  0.56336  1.0000
  H   H5        1.0  0.23026000000000002  0.39283999999999997  0.93706  1.0000
  H   H6        1.0  0.7063500000000001  0.04508000000000004  0.9363300000000001  1.0000
  H   H7        1.0  0.54419  0.73031  0.43678  1.0000
  H   H8        1.0  0.89186  0.20663  0.43664  1.0000
  C   C1        1.0  0.64958  0.55991  0.03493  1.0000
  C   C2        1.0  0.41124  0.57652  0.054190000000000016  1.0000
  C   C3        1.0  0.3118  0.66487  0.11653  1.0000
  C   C4        1.0  0.38554  0.9744799999999999  0.03528  1.0000
  C   C5        1.0  0.64285  0.97737  0.05383  1.0000
  C   C6        1.0  0.80439  0.9509099999999999  0.11584  1.0000
  C   C7        1.0  0.47512  0.14958000000000002  0.5350300000000001  1.0000
  C   C8        1.0  0.47673000000000004  0.9109599999999999  0.55403  1.0000
  C   C9        1.0  0.44947000000000004  0.81167  0.61634  1.0000
  C   C10       1.0  0.06038999999999996  0.8853800000000001  0.53512  1.0000
  C   C11       1.0  0.07624  0.14274  0.55391  1.0000
  C   C12       1.0  0.16452999999999995  0.30421  0.61587  1.0000
  C   C13       1.0  0.35042  0.44008  0.96507  1.0000
  C   C14       1.0  0.5887500000000001  0.4234800000000002  0.9458100000000002  1.0000
  C   C15       1.0  0.68819  0.33512999999999993  0.88347  1.0000
  C   C16       1.0  0.61446  0.025509999999999994  0.9647200000000001  1.0000
  C   C17       1.0  0.35713999999999996  0.022619999999999977  0.9461700000000001  1.0000
  C   C18       1.0  0.1956  0.04909000000000005  0.8841500000000001  1.0000
  C   C19       1.0  0.52487  0.8504200000000001  0.46497  1.0000
  C   C20       1.0  0.52327  0.08903999999999998  0.44597  1.0000
  C   C21       1.0  0.55052  0.18833000000000003  0.38365000000000005  1.0000
  C   C22       1.0  0.93961  0.11461999999999996  0.46488  1.0000
  C   C23       1.0  0.9237599999999999  0.8572500000000001  0.44608000000000003  1.0000
  C   C24       1.0  0.83547  0.69578  0.38413  1.0000
  N   N1        1.0  0.55821  0.6336  0.08672  1.0000
  N   N2        1.0  0.5285500000000001  0.95226  0.08663000000000003  1.0000
  N   N3        1.0  0.4523400000000001  0.05803999999999997  0.58664  1.0000
  N   N4        1.0  0.13374  0.02834999999999997  0.58661  1.0000
  N   N5        1.0  0.4417800000000002  0.36639000000000005  0.9132800000000002  1.0000
  N   N6        1.0  0.47145000000000004  0.04772999999999999  0.91337  1.0000
  N   N7        1.0  0.5476500000000001  0.9419599999999999  0.41336000000000006  1.0000
  N   N8        1.0  0.8662500000000001  0.97164  0.41339  1.0000
  O   O1        1.0  0.3777800000000001  0.79236  0.19497  1.0000
  O   O2        1.0  0.17672000000000002  0.60808  0.08634000000000003  1.0000
  O   O3        1.0  0.8164  0.9  0.1937  1.0000
  O   O4        1.0  0.9094800000000001  0.9786399999999998  0.08591  1.0000
  O   O5        1.0  0.40049  0.87811  0.69504  1.0000
  O   O6        1.0  0.47475  0.67615  0.5861  1.0000
  O   O7        1.0  0.29261  0.31631  0.69382  1.0000
  O   O8        1.0  0.10739000000000003  0.40926  0.58581  1.0000
  O   O9        1.0  0.62222  0.20764  0.80503  1.0000
  O   O10       1.0  0.82327  0.39191  0.91366  1.0000
  O   O11       1.0  0.18359999999999999  0.09998999999999991  0.8063  1.0000
  O   O12       1.0  0.09052000000000011  0.02135000000000013  0.9140900000000002  1.0000
  O   O13       1.0  0.5995  0.12188999999999997  0.30496  1.0000
  O   O14       1.0  0.52524  0.32385  0.4139  1.0000
  O   O15       1.0  0.70739  0.68369  0.30618  1.0000
  O   O16       1.0  0.89261  0.59074  0.41419  1.0000
