data_image0
_chemical_formula_structural       La2H4C24O18
_chemical_formula_sum              "La2 H4 C24 O18"
_cell_length_a       10.94973
_cell_length_b       11.36016
_cell_length_c       12.60595
_cell_angle_alpha    104.82734
_cell_angle_beta     106.00724999999998
_cell_angle_gamma    101.42775999999999

_symmetry_space_group_name_H-M    'P 1'
_symmetry_Int_Tables_number       1

loop_
  _symmetry_equiv_pos_as_xyz
  'x,y,z'

loop_
  _atom_site_type_symbol
  _atom_site_label
  _atom_site_symmetry_multiplicity
  _atom_site_fract_x
  _atom_site_fract_y
  _atom_site_fract_z
  _atom_site_occupancy
  La  La1       1.0  0.416  0.42823  0.8284700000000003  1.0000
  La  La2       1.0  0.584  0.57176  0.17153  1.0000
  H   H1        1.0  0.10941000000000002  0.44453  0.852  1.0000
  H   H2        1.0  0.4691400000000002  0.8424000000000001  0.8081100000000002  1.0000
  H   H3        1.0  0.89059  0.55547  0.14799  1.0000
  H   H4        1.0  0.53086  0.1576  0.19189  1.0000
  C   C1        1.0  0.06962000000000003  0.025060000000000013  0.51095  1.0000
  C   C2        1.0  0.07642000000000003  0.54111  0.12432000000000003  1.0000
  C   C3        1.0  0.93609  0.11558000000000004  0.56031  1.0000
  C   C4        1.0  0.06800000000000005  0.4710500000000001  0.9209300000000001  1.0000
  C   C5        1.0  0.0822  0.1494  0.57341  1.0000
  C   C6        1.0  0.51747  0.8736599999999999  0.99059  1.0000
  C   C7        1.0  0.28958  0.52841  0.07324  1.0000
  C   C8        1.0  0.14311  0.51287  0.03593  1.0000
  C   C9        1.0  0.19401999999999994  0.26516  0.63837  1.0000
  C   C10       1.0  0.53681  0.7442  0.9806300000000001  1.0000
  C   C11       1.0  0.48322  0.9077100000000001  0.8935600000000001  1.0000
  C   C12       1.0  0.53224  0.9652  0.10541  1.0000
  C   C13       1.0  0.9304100000000002  0.97491  0.48905000000000004  1.0000
  C   C14       1.0  0.92358  0.45888000000000007  0.87568  1.0000
  C   C15       1.0  0.06394000000000004  0.8843800000000003  0.43972  1.0000
  C   C16       1.0  0.932  0.52894  0.07907000000000002  1.0000
  C   C17       1.0  0.9178200000000001  0.85057  0.42659  1.0000
  C   C18       1.0  0.48253000000000007  0.12634  0.0094  1.0000
  C   C19       1.0  0.7104100000000001  0.4715900000000002  0.9267500000000002  1.0000
  C   C20       1.0  0.85689  0.48712  0.96406  1.0000
  C   C21       1.0  0.8059999999999998  0.73482  0.36162000000000005  1.0000
  C   C22       1.0  0.4631900000000001  0.25579  0.01937  1.0000
  C   C23       1.0  0.5167700000000001  0.09229  0.10644000000000002  1.0000
  C   C24       1.0  0.46775000000000005  0.03480000000000005  0.8945800000000003  1.0000
  O   O1        1.0  0.1321400000000001  0.5697100000000002  0.23031000000000004  1.0000
  O   O2        1.0  0.4899200000000002  0.6602100000000001  0.8790800000000001  1.0000
  O   O3        1.0  0.5988  0.72634  0.07390000000000001  1.0000
  O   O4        1.0  0.30839  0.26779  0.62999  1.0000
  O   O5        1.0  0.17586000000000004  0.35816000000000003  0.7095600000000001  1.0000
  O   O6        1.0  0.5511900000000001  0.93969  0.19686000000000006  1.0000
  O   O7        1.0  0.3454900000000002  0.5177900000000002  0.9941300000000002  1.0000
  O   O8        1.0  0.3572800000000001  0.55366  0.17958000000000002  1.0000
  O   O9        1.0  0.85879  0.16646  0.58857  1.0000
  O   O10       1.0  0.8678600000000001  0.43027000000000004  0.7696800000000003  1.0000
  O   O11       1.0  0.51007  0.33979  0.12091  1.0000
  O   O12       1.0  0.4012000000000001  0.27366000000000007  0.9260900000000001  1.0000
  O   O13       1.0  0.6916400000000001  0.73221  0.37001000000000006  1.0000
  O   O14       1.0  0.8241400000000001  0.64181  0.29043  1.0000
  O   O15       1.0  0.4488  0.06031000000000003  0.80313  1.0000
  O   O16       1.0  0.6545099999999999  0.48220999999999997  0.00586  1.0000
  O   O17       1.0  0.6427200000000001  0.44633999999999996  0.82042  1.0000
  O   O18       1.0  0.14130000000000006  0.8335300000000001  0.4115300000000001  1.0000
