data_image0
_chemical_formula_structural       Cd2H16C12N12Cl2
_chemical_formula_sum              "Cd2 H16 C12 N12 Cl2"
_cell_length_a       7.46242
_cell_length_b       8.65744
_cell_length_c       12.29371
_cell_angle_alpha    112.28698
_cell_angle_beta     108.04002
_cell_angle_gamma    90.01031

_symmetry_space_group_name_H-M    'P 1'
_symmetry_Int_Tables_number       1

loop_
  _symmetry_equiv_pos_as_xyz
  'x,y,z'

loop_
  _atom_site_type_symbol
  _atom_site_label
  _atom_site_symmetry_multiplicity
  _atom_site_fract_x
  _atom_site_fract_y
  _atom_site_fract_z
  _atom_site_occupancy
  Cd  Cd1       1.0  0.0  0.5  0.4999999999999999  1.0000
  Cd  Cd2       1.0  0.49999999999999994  0.5  0.4999999999999999  1.0000
  H   H1        1.0  0.1038699999999999  0.8664900000000001  0.7822299999999999  1.0000
  H   H2        1.0  0.60617  0.12493000000000001  0.97352  1.0000
  H   H3        1.0  0.39643  0.58006  0.21928999999999996  1.0000
  H   H4        1.0  0.89993  0.6555  0.038079999999999996  1.0000
  H   H5        1.0  0.17956999999999995  0.41612999999999994  0.7866499999999998  1.0000
  H   H6        1.0  0.8605599999999999  0.34433  0.9617999999999998  1.0000
  H   H7        1.0  0.31999  0.12576  0.21336999999999998  1.0000
  H   H8        1.0  0.63361  0.87515  0.026789999999999994  1.0000
  H   H9        1.0  0.89614  0.13351  0.21777  1.0000
  H   H10       1.0  0.39383  0.87507  0.02648  1.0000
  H   H11       1.0  0.60358  0.41994  0.7807099999999999  1.0000
  H   H12       1.0  0.10007  0.3445000000000001  0.96192  1.0000
  H   H13       1.0  0.8204199999999999  0.58387  0.21334999999999998  1.0000
  H   H14       1.0  0.13945  0.65567  0.03821  1.0000
  H   H15       1.0  0.68  0.8742399999999999  0.7866299999999999  1.0000
  H   H16       1.0  0.3664  0.12485999999999997  0.97322  1.0000
  C   C1        1.0  0.2319399999999999  0.8304899999999998  0.7603399999999998  1.0000
  C   C2        1.0  0.2684599999999999  0.56885  0.24114999999999995  1.0000
  C   C3        1.0  0.030280000000000026  0.42937  0.76122  1.0000
  C   C4        1.0  0.46973  0.16624999999999998  0.23788999999999993  1.0000
  C   C5        1.0  0.7680499999999999  0.16952  0.23966999999999997  1.0000
  C   C6        1.0  0.73153  0.43115  0.7588699999999998  1.0000
  C   C7        1.0  0.96974  0.57064  0.23878999999999995  1.0000
  C   C8        1.0  0.5302900000000002  0.83376  0.76212  1.0000
  C   C9        1.0  0.47658999999999996  0.043689999999999944  0.9540299999999999  1.0000
  C   C10       1.0  0.026329999999999992  0.59021  0.051479999999999984  1.0000
  C   C11       1.0  0.97367  0.40979000000000004  0.9485199999999998  1.0000
  C   C12       1.0  0.52342  0.9563100000000001  0.045979999999999986  1.0000
  N   N1        1.0  0.23921999999999993  0.7074700000000002  0.6563699999999999  1.0000
  N   N2        1.0  0.25998  0.55324  0.34361  1.0000
  N   N3        1.0  0.92238  0.44553999999999994  0.6574999999999999  1.0000
  N   N4        1.0  0.57898  0.29068  0.3427799999999999  1.0000
  N   N5        1.0  0.76078  0.29253  0.34362999999999994  1.0000
  N   N6        1.0  0.74002  0.44676000000000005  0.6563899999999999  1.0000
  N   N7        1.0  0.07761999999999998  0.55447  0.34249999999999997  1.0000
  N   N8        1.0  0.42102  0.70932  0.65722  1.0000
  N   N9        1.0  0.4132799999999999  0.92368  0.8271699999999998  1.0000
  N   N10       1.0  0.08778999999999999  0.59113  0.17466999999999996  1.0000
  N   N11       1.0  0.91221  0.40886999999999996  0.82534  1.0000
  N   N12       1.0  0.58672  0.07632  0.17283  1.0000
  Cl  Cl1       1.0  0.7551  0.72453  0.51134  1.0000
  Cl  Cl2       1.0  0.2448999999999999  0.27547999999999995  0.48865999999999987  1.0000
