data_image0
_chemical_formula_structural       Cu8H24C12N8Cl12
_chemical_formula_sum              "Cu8 H24 C12 N8 Cl12"
_cell_length_a       9.13068
_cell_length_b       9.13079
_cell_length_c       15.203039999999998
_cell_angle_alpha    89.99939
_cell_angle_beta     90.00045
_cell_angle_gamma    120.18587000000001

_symmetry_space_group_name_H-M    'P 1'
_symmetry_Int_Tables_number       1

loop_
  _symmetry_equiv_pos_as_xyz
  'x,y,z'

loop_
  _atom_site_type_symbol
  _atom_site_label
  _atom_site_symmetry_multiplicity
  _atom_site_fract_x
  _atom_site_fract_y
  _atom_site_fract_z
  _atom_site_occupancy
  Cu  Cu1       1.0  0.45167999999999997  0.54831  0.79447  1.0000
  Cu  Cu2       1.0  0.09717999999999999  0.54868  0.7945  1.0000
  Cu  Cu3       1.0  0.45131999999999983  0.9028099999999998  0.7945  1.0000
  Cu  Cu4       1.0  0.5484099999999997  0.45159  0.29526999999999987  1.0000
  Cu  Cu5       1.0  0.9026999999999996  0.4512499999999999  0.2953899999999999  1.0000
  Cu  Cu6       1.0  0.54875  0.09729  0.2953899999999999  1.0000
  Cu  Cu7       1.0  0.3332799999999999  0.66672  0.6102  1.0000
  Cu  Cu8       1.0  0.66673  0.33327  0.10972999999999997  1.0000
  H   H1        1.0  0.44733999999999996  0.3567799999999999  0.95961  1.0000
  H   H2        1.0  0.9097899999999999  0.55314  0.95971  1.0000
  H   H3        1.0  0.6420599999999999  0.09042999999999997  0.95982  1.0000
  H   H4        1.0  0.55265  0.64321  0.45948  1.0000
  H   H5        1.0  0.09024  0.44687  0.45956999999999987  1.0000
  H   H6        1.0  0.35790999999999984  0.90951  0.45967999999999987  1.0000
  H   H7        1.0  0.9095699999999999  0.35793  0.95982  1.0000
  H   H8        1.0  0.6432  0.55264  0.95961  1.0000
  H   H9        1.0  0.44685  0.0902  0.95971  1.0000
  H   H10       1.0  0.09047999999999999  0.64209  0.45967999999999987  1.0000
  H   H11       1.0  0.35678999999999994  0.4473499999999999  0.45948  1.0000
  H   H12       1.0  0.55312  0.90975  0.45956999999999987  1.0000
  H   H13       1.0  0.8211599999999999  0.6416999999999998  0.83008  1.0000
  H   H14       1.0  0.7560299999999999  0.51155  0.7337499999999998  1.0000
  H   H15       1.0  0.8201799999999999  0.17980999999999994  0.8301399999999998  1.0000
  H   H16       1.0  0.75526  0.24472999999999995  0.7338599999999998  1.0000
  H   H17       1.0  0.35829  0.17883  0.83008  1.0000
  H   H18       1.0  0.48843999999999993  0.24397  0.7337499999999998  1.0000
  H   H19       1.0  0.17883  0.3583  0.32996  1.0000
  H   H20       1.0  0.24394999999999997  0.48838  0.23360999999999996  1.0000
  H   H21       1.0  0.17981  0.82018  0.33001  1.0000
  H   H22       1.0  0.24469999999999995  0.75529  0.23371  1.0000
  H   H23       1.0  0.6417  0.82116  0.32996  1.0000
  H   H24       1.0  0.51162  0.75605  0.23360999999999996  1.0000
  C   C1        1.0  0.57834  0.42165  0.9358199999999998  1.0000
  C   C2        1.0  0.84325  0.42218  0.9359199999999998  1.0000
  C   C3        1.0  0.57781  0.15674  0.9359199999999998  1.0000
  C   C4        1.0  0.42161999999999994  0.57838  0.43574  1.0000
  C   C5        1.0  0.15685  0.57786  0.4358299999999999  1.0000
  C   C6        1.0  0.42212999999999984  0.8431499999999997  0.4358299999999999  1.0000
  C   C7        1.0  0.75551  0.51084  0.8058299999999998  1.0000
  C   C8        1.0  0.75494  0.24505  0.8059399999999998  1.0000
  C   C9        1.0  0.4891499999999999  0.24448  0.8058299999999998  1.0000
  C   C10       1.0  0.2445  0.48914  0.3056899999999999  1.0000
  C   C11       1.0  0.24505  0.75495  0.3057799999999999  1.0000
  C   C12       1.0  0.5108599999999999  0.7555  0.3056899999999999  1.0000
  N   N1        1.0  0.5779799999999998  0.42201  0.83826  1.0000
  N   N2        1.0  0.84402  0.42246  0.8383899999999997  1.0000
  N   N3        1.0  0.5775299999999998  0.15597  0.8383899999999997  1.0000
  N   N4        1.0  0.4219999999999999  0.578  0.33815  1.0000
  N   N5        1.0  0.15603000000000006  0.57757  0.33827  1.0000
  N   N6        1.0  0.4224299999999999  0.8439599999999998  0.33827  1.0000
  N   N7        1.0  0.66647  0.33352  0.9694199999999997  1.0000
  N   N8        1.0  0.33354  0.66646  0.46940999999999994  1.0000
  Cl  Cl1       1.0  0.47348999999999997  0.5265  0.6466999999999998  1.0000
  Cl  Cl2       1.0  0.052039999999999996  0.52549  0.6467999999999998  1.0000
  Cl  Cl3       1.0  0.4745  0.94795  0.6467999999999998  1.0000
  Cl  Cl4       1.0  0.52668  0.47332  0.14720999999999995  1.0000
  Cl  Cl5       1.0  0.94763  0.47432999999999986  0.14739  1.0000
  Cl  Cl6       1.0  0.52567  0.05238  0.14739  1.0000
  Cl  Cl7       1.0  0.61693  0.80898  0.85827  1.0000
  Cl  Cl8       1.0  0.19101  0.38307  0.85827  1.0000
  Cl  Cl9       1.0  0.19177999999999987  0.8082099999999998  0.85878  1.0000
  Cl  Cl10      1.0  0.3825899999999999  0.19079999999999994  0.3586399999999999  1.0000
  Cl  Cl11      1.0  0.8092  0.61741  0.3586399999999999  1.0000
  Cl  Cl12      1.0  0.8084999999999998  0.1915  0.35917  1.0000
