data_image0
_chemical_formula_structural       Er4H20C36N4O24
_chemical_formula_sum              "Er4 H20 C36 N4 O24"
_cell_length_a       7.19243
_cell_length_b       12.77928
_cell_length_c       15.69212
_cell_angle_alpha    89.95065
_cell_angle_beta     106.59570000000001
_cell_angle_gamma    89.38835

_symmetry_space_group_name_H-M    'P 1'
_symmetry_Int_Tables_number       1

loop_
  _symmetry_equiv_pos_as_xyz
  'x,y,z'

loop_
  _atom_site_type_symbol
  _atom_site_label
  _atom_site_symmetry_multiplicity
  _atom_site_fract_x
  _atom_site_fract_y
  _atom_site_fract_z
  _atom_site_occupancy
  Er  Er1       1.0  0.94281  0.43912  0.7619  1.0000
  Er  Er2       1.0  0.5386499999999997  0.9365599999999998  0.24239  1.0000
  Er  Er3       1.0  0.056349999999999976  0.5609999999999999  0.24235  1.0000
  Er  Er4       1.0  0.45588  0.0635  0.7576  1.0000
  H   H1        1.0  0.9951800000000001  0.8189199999999999  0.7990000000000002  1.0000
  H   H2        1.0  0.14656999999999995  0.96244  0.04572  1.0000
  H   H3        1.0  0.08397  0.62707  0.03339  1.0000
  H   H4        1.0  0.54131  0.3853099999999999  0.47835999999999995  1.0000
  H   H5        1.0  0.36587  0.42511  0.53384  1.0000
  H   H6        1.0  0.50627  0.3162699999999999  0.20191  1.0000
  H   H7        1.0  0.36028999999999983  0.4611099999999999  0.95452  1.0000
  H   H8        1.0  0.40277999999999997  0.12414999999999998  0.96801  1.0000
  H   H9        1.0  0.9564900000000001  0.8878799999999999  0.52388  1.0000
  H   H10       1.0  0.12499  0.92613  0.46498  1.0000
  H   H11       1.0  0.99769  0.1818  0.20217  1.0000
  H   H12       1.0  0.8453599999999998  0.038489999999999996  0.95536  1.0000
  H   H13       1.0  0.91517  0.3735799999999999  0.9683799999999999  1.0000
  H   H14       1.0  0.46106  0.6121699999999999  0.52507  1.0000
  H   H15       1.0  0.63555  0.5725299999999999  0.46908  1.0000
  H   H16       1.0  0.49448  0.68339  0.79838  1.0000
  H   H17       1.0  0.6436699999999999  0.5400399999999999  0.04638  1.0000
  H   H18       1.0  0.58858  0.8765999999999998  0.03127  1.0000
  H   H19       1.0  0.034650000000000056  0.11426999999999997  0.47677  1.0000
  H   H20       1.0  0.86486  0.07677999999999999  0.5354  1.0000
  C   C1        1.0  0.0013700000000000207  0.61557  0.85532  1.0000
  C   C2        1.0  0.03966999999999989  0.7116099999999997  0.91016  1.0000
  C   C3        1.0  0.03266000000000001  0.8112099999999999  0.87117  1.0000
  C   C4        1.0  0.11551000000000003  0.8905799999999998  0.00753  1.0000
  C   C5        1.0  0.12197999999999999  0.79513  0.05249  1.0000
  C   C6        1.0  0.08159999999999998  0.70354  0.00234  1.0000
  C   C7        1.0  0.16907  0.7919599999999998  0.15128  1.0000
  C   C8        1.0  0.6626699999999998  0.44137999999999994  0.61024  1.0000
  C   C9        1.0  0.50568  0.44362999999999997  0.52283  1.0000
  C   C10       1.0  0.4829799999999999  0.11295999999999998  0.14704  1.0000
  C   C11       1.0  0.4514  0.20897999999999994  0.09119  1.0000
  C   C12       1.0  0.46658  0.30883999999999995  0.12973  1.0000
  C   C13       1.0  0.38660999999999995  0.3888299999999999  0.99304  1.0000
  C   C14       1.0  0.37312000000000006  0.29301999999999995  0.9483  1.0000
  C   C15       1.0  0.40909  0.20088999999999996  0.99886  1.0000
  C   C16       1.0  0.32493000000000005  0.29108999999999996  0.84923  1.0000
  C   C17       1.0  0.82635  0.9446399999999998  0.39253  1.0000
  C   C18       1.0  0.98795  0.9463399999999998  0.47872  1.0000
  C   C19       1.0  0.99386  0.3847399999999999  0.1473  1.0000
  C   C20       1.0  0.95533  0.28916  0.09137  1.0000
  C   C21       1.0  0.96068  0.18949999999999995  0.13004  1.0000
  C   C22       1.0  0.87763  0.11022  0.99369  1.0000
  C   C23       1.0  0.87403  0.20547999999999997  0.94881  1.0000
  C   C24       1.0  0.9155099999999999  0.29709  0.99915  1.0000
  C   C25       1.0  0.82798  0.208  0.84992  1.0000
  C   C26       1.0  0.33851  0.5560399999999999  0.39352  1.0000
  C   C27       1.0  0.49623999999999996  0.5538699999999999  0.48052  1.0000
  C   C28       1.0  0.50893  0.8871599999999998  0.85259  1.0000
  C   C29       1.0  0.54334  0.7912699999999999  0.90856  1.0000
  C   C30       1.0  0.53246  0.6912599999999998  0.87047  1.0000
  C   C31       1.0  0.61487  0.612  0.00744  1.0000
  C   C32       1.0  0.6252  0.7080299999999998  0.05171  1.0000
  C   C33       1.0  0.5851199999999999  0.79979  0.00078  1.0000
  C   C34       1.0  0.6753300000000001  0.7110899999999998  0.15079  1.0000
  C   C35       1.0  0.16418999999999995  0.05768999999999999  0.60839  1.0000
  C   C36       1.0  0.002200000000000008  0.05611  0.52202  1.0000
  N   N1        1.0  0.06761000000000003  0.89983  0.91853  1.0000
  N   N2        1.0  0.4374699999999999  0.39778999999999987  0.08205  1.0000
  N   N3        1.0  0.9244  0.10090999999999997  0.08265  1.0000
  N   N4        1.0  0.5641899999999999  0.6025099999999999  0.91845  1.0000
  O   O1        1.0  0.9718  0.5292199999999999  0.89136  1.0000
  O   O2        1.0  0.9995299999999998  0.61832  0.77327  1.0000
  O   O3        1.0  0.24237  0.8727899999999997  0.19576  1.0000
  O   O4        1.0  0.13396  0.7085899999999998  0.18777  1.0000
  O   O5        1.0  0.84177  0.43381999999999993  0.61025  1.0000
  O   O6        1.0  0.6191999999999998  0.4496999999999999  0.68385  1.0000
  O   O7        1.0  0.5062500000000002  0.025019999999999997  0.11166  1.0000
  O   O8        1.0  0.48561  0.11686  0.22921  1.0000
  O   O9        1.0  0.23915999999999996  0.3704499999999999  0.80498  1.0000
  O   O10       1.0  0.3730199999999999  0.21047999999999994  0.81283  1.0000
  O   O11       1.0  0.64848  0.93628  0.39432  1.0000
  O   O12       1.0  0.86529  0.95244  0.31796  1.0000
  O   O13       1.0  0.02859  0.4710299999999999  0.11275  1.0000
  O   O14       1.0  0.9915700000000001  0.38172  0.22886  1.0000
  O   O15       1.0  0.7523  0.12774  0.80531  1.0000
  O   O16       1.0  0.86657  0.29074  0.81361  1.0000
  O   O17       1.0  0.15946  0.5610399999999999  0.39402  1.0000
  O   O18       1.0  0.38134999999999997  0.5503  0.31968  1.0000
  O   O19       1.0  0.47637  0.9741599999999998  0.88707  1.0000
  O   O20       1.0  0.51387  0.88387  0.77136  1.0000
  O   O21       1.0  0.76165  0.6321299999999997  0.19539  1.0000
  O   O22       1.0  0.62853  0.79254  0.18681  1.0000
  O   O23       1.0  0.34218  0.0636  0.60609  1.0000
  O   O24       1.0  0.12604  0.05255  0.68328  1.0000
