data_image0
_chemical_formula_structural       Ni4H28C44O20
_chemical_formula_sum              "Ni4 H28 C44 O20"
_cell_length_a       9.70343
_cell_length_b       12.984889999999998
_cell_length_c       13.18483
_cell_angle_alpha    74.49664
_cell_angle_beta     82.5441
_cell_angle_gamma    69.72384

_symmetry_space_group_name_H-M    'P 1'
_symmetry_Int_Tables_number       1

loop_
  _symmetry_equiv_pos_as_xyz
  'x,y,z'

loop_
  _atom_site_type_symbol
  _atom_site_label
  _atom_site_symmetry_multiplicity
  _atom_site_fract_x
  _atom_site_fract_y
  _atom_site_fract_z
  _atom_site_occupancy
  Ni  Ni1       1.0  0.04597000000000001  0.57256  0.3857999999999999  1.0000
  Ni  Ni2       1.0  0.78248  0.7888899999999999  0.27486999999999995  1.0000
  Ni  Ni3       1.0  0.95404  0.42744  0.6142  1.0000
  Ni  Ni4       1.0  0.21752000000000002  0.21111000000000005  0.7251199999999998  1.0000
  H   H1        1.0  0.33936000000000005  0.6937799999999998  0.01658  1.0000
  H   H2        1.0  0.59388  0.64962  0.9348  1.0000
  H   H3        1.0  0.51074  0.48442  0.3132  1.0000
  H   H4        1.0  0.7657999999999999  0.4448099999999999  0.23486999999999994  1.0000
  H   H5        1.0  0.8125300000000001  0.48361  0.8999899999999998  1.0000
  H   H6        1.0  0.7584899999999999  0.39098  0.46485  1.0000
  H   H7        1.0  0.7785000000000001  0.20997000000000002  0.5743999999999999  1.0000
  H   H8        1.0  0.8777399999999999  0.02435  0.5275  1.0000
  H   H9        1.0  0.4025499999999999  0.3006799999999999  0.38705  1.0000
  H   H10       1.0  0.49997  0.11186000000000001  0.34397  1.0000
  H   H11       1.0  0.05063999999999998  0.74351  0.26811  1.0000
  H   H12       1.0  0.9411099999999999  0.81934  0.38771  1.0000
  H   H13       1.0  0.8478200000000001  0.85374  0.08110999999999997  1.0000
  H   H14       1.0  0.7510100000000001  0.9709099999999999  0.10338  1.0000
  H   H15       1.0  0.6606499999999998  0.30622  0.9834199999999997  1.0000
  H   H16       1.0  0.40613  0.35038  0.0652  1.0000
  H   H17       1.0  0.48927000000000004  0.5155899999999998  0.68679  1.0000
  H   H18       1.0  0.23419999999999994  0.5552  0.76513  1.0000
  H   H19       1.0  0.18748000000000012  0.51639  0.10001  1.0000
  H   H20       1.0  0.2415200000000001  0.6090199999999999  0.5351499999999999  1.0000
  H   H21       1.0  0.22151000000000007  0.79003  0.4256  1.0000
  H   H22       1.0  0.12227000000000006  0.97565  0.4724999999999999  1.0000
  H   H23       1.0  0.5974599999999999  0.6993300000000001  0.6129499999999999  1.0000
  H   H24       1.0  0.5000299999999999  0.88815  0.6560199999999998  1.0000
  H   H25       1.0  0.9493699999999999  0.25649000000000005  0.73188  1.0000
  H   H26       1.0  0.05891000000000003  0.18066999999999994  0.61226  1.0000
  H   H27       1.0  0.15218999999999996  0.14627000000000004  0.91889  1.0000
  H   H28       1.0  0.24900000000000008  0.029090000000000067  0.8966199999999998  1.0000
  C   C1        1.0  0.2615600000000001  0.6259099999999997  0.22415  1.0000
  C   C2        1.0  0.41037000000000007  0.59362  0.17088999999999993  1.0000
  C   C3        1.0  0.4335500000000001  0.63887  0.06337  1.0000
  C   C4        1.0  0.57578  0.6144  0.018129999999999997  1.0000
  C   C5        1.0  0.53065  0.52096  0.23098  1.0000
  C   C6        1.0  0.67265  0.49949  0.18691  1.0000
  C   C7        1.0  0.6975799999999999  0.54802  0.08031999999999997  1.0000
  C   C8        1.0  0.85048  0.52834  0.03728  1.0000
  C   C9        1.0  0.8939199999999999  0.49309  0.9430599999999999  1.0000
  C   C10       1.0  0.95901  0.53663  0.09359999999999999  1.0000
  C   C11       1.0  0.9223599999999998  0.5861699999999997  0.1885  1.0000
  C   C12       1.0  0.72647  0.60496  0.4487199999999999  1.0000
  C   C13       1.0  0.60967  0.55107  0.48448  1.0000
  C   C14       1.0  0.6452599999999997  0.43759000000000003  0.48367  1.0000
  C   C15       1.0  0.53828  0.38436  0.49819  1.0000
  C   C16       1.0  0.58483  0.26843  0.48281  1.0000
  C   C17       1.0  0.7179499999999999  0.18897  0.52332  1.0000
  C   C18       1.0  0.7734800000000001  0.08467000000000001  0.4975899999999999  1.0000
  C   C19       1.0  0.50495  0.23905000000000007  0.4195599999999999  1.0000
  C   C20       1.0  0.55972  0.13439  0.39428999999999986  1.0000
  C   C21       1.0  0.69625  0.05751000000000002  0.43105999999999994  1.0000
  C   C22       1.0  0.76315  0.9520099999999999  0.39444  1.0000
  C   C23       1.0  0.7384500000000002  0.37409  0.77585  1.0000
  C   C24       1.0  0.58964  0.40638  0.82911  1.0000
  C   C25       1.0  0.5664499999999999  0.36114  0.93663  1.0000
  C   C26       1.0  0.42422999999999994  0.3856  0.9818699999999998  1.0000
  C   C27       1.0  0.46935000000000004  0.4790499999999999  0.76902  1.0000
  C   C28       1.0  0.32735999999999993  0.50052  0.8130899999999999  1.0000
  C   C29       1.0  0.3024299999999999  0.45199000000000006  0.91968  1.0000
  C   C30       1.0  0.14952000000000001  0.47167000000000003  0.96272  1.0000
  C   C31       1.0  0.10608999999999996  0.50691  0.05693999999999999  1.0000
  C   C32       1.0  0.04098999999999992  0.4633700000000001  0.9064  1.0000
  C   C33       1.0  0.07765999999999999  0.4138299999999999  0.8115  1.0000
  C   C34       1.0  0.27354  0.39504000000000006  0.55128  1.0000
  C   C35       1.0  0.39033  0.44892999999999994  0.51552  1.0000
  C   C36       1.0  0.35475  0.56242  0.51633  1.0000
  C   C37       1.0  0.46173  0.6156400000000001  0.50181  1.0000
  C   C38       1.0  0.41517000000000004  0.73158  0.51719  1.0000
  C   C39       1.0  0.2820500000000002  0.8110299999999999  0.47667999999999994  1.0000
  C   C40       1.0  0.22652999999999995  0.91534  0.50241  1.0000
  C   C41       1.0  0.49506  0.76095  0.58044  1.0000
  C   C42       1.0  0.44028  0.8656199999999998  0.6056999999999999  1.0000
  C   C43       1.0  0.30376  0.9424999999999999  0.56893  1.0000
  C   C44       1.0  0.23686  0.04801000000000004  0.6055399999999999  1.0000
  O   O1        1.0  0.16592000000000004  0.71814  0.18208  1.0000
  O   O2        1.0  0.24297  0.55753  0.31218999999999997  1.0000
  O   O3        1.0  0.83275  0.68721  0.17581  1.0000
  O   O4        1.0  0.98857  0.5247999999999998  0.27196  1.0000
  O   O5        1.0  0.86031  0.55197  0.4787099999999999  1.0000
  O   O6        1.0  0.6859999999999999  0.6996699999999999  0.38364  1.0000
  O   O7        1.0  0.8955999999999997  0.89058  0.42613  1.0000
  O   O8        1.0  0.6947800000000001  0.92733  0.33372999999999997  1.0000
  O   O9        1.0  0.97829  0.73853  0.33347999999999994  1.0000
  O   O10       1.0  0.82796  0.9008  0.13148  1.0000
  O   O11       1.0  0.83409  0.28187000000000006  0.81792  1.0000
  O   O12       1.0  0.75704  0.44247  0.68781  1.0000
  O   O13       1.0  0.16726000000000002  0.31279000000000007  0.8241899999999998  1.0000
  O   O14       1.0  0.01144999999999996  0.47520000000000007  0.7280299999999997  1.0000
  O   O15       1.0  0.13968999999999998  0.44804  0.52129  1.0000
  O   O16       1.0  0.314  0.30033000000000004  0.6163599999999999  1.0000
  O   O17       1.0  0.10442000000000001  0.10944999999999998  0.57382  1.0000
  O   O18       1.0  0.30522  0.07266999999999998  0.66627  1.0000
  O   O19       1.0  0.02170999999999996  0.26147  0.66652  1.0000
  O   O20       1.0  0.17205000000000006  0.09921000000000006  0.8685199999999997  1.0000
