data_image0
_chemical_formula_structural       Cu8H40C56N16O28
_chemical_formula_sum              "Cu8 H40 C56 N16 O28"
_cell_length_a       7.42887
_cell_length_b       15.77626
_cell_length_c       17.42483
_cell_angle_alpha    111.66213
_cell_angle_beta     102.41671
_cell_angle_gamma    90.04242999999998

_space_group_name_H-M_alt    "P 1"
_space_group_IT_number       1

loop_
  _space_group_symop_operation_xyz
  'x, y, z'

loop_
  _atom_site_type_symbol
  _atom_site_label
  _atom_site_symmetry_multiplicity
  _atom_site_fract_x
  _atom_site_fract_y
  _atom_site_fract_z
  _atom_site_occupancy
  Cu  Cu1       1.0  0.38012  0.57592  0.49383  1.0000
  Cu  Cu2       1.0  0.54924  0.5931  0.67218  1.0000
  Cu  Cu3       1.0  0.8904  0.9222599999999997  0.50293  1.0000
  Cu  Cu4       1.0  0.88412  0.9073099999999997  0.32473  1.0000
  Cu  Cu5       1.0  0.61108  0.42419  0.50336  1.0000
  Cu  Cu6       1.0  0.43987  0.40791  0.32474  1.0000
  Cu  Cu7       1.0  0.10986000000000004  0.07576000000000005  0.49430000000000013  1.0000
  Cu  Cu8       1.0  0.12055000000000002  0.09225  0.67223  1.0000
  H   H1        1.0  0.4991399999999999  0.52634  0.20708  1.0000
  H   H2        1.0  0.39315  0.7480100000000001  0.41615000000000013  1.0000
  H   H3        1.0  0.42398  0.77702  0.29124  1.0000
  H   H4        1.0  0.57962  0.72063  0.24326000000000003  1.0000
  H   H5        1.0  0.40727  0.88129  0.56084  1.0000
  H   H6        1.0  0.78182  0.84958  0.77338  1.0000
  H   H7        1.0  0.89679  0.01546999999999996  0.82764  1.0000
  H   H8        1.0  0.23252  0.6777  0.86089  1.0000
  H   H9        1.0  0.77415  0.11017  0.74611  1.0000
  H   H10       1.0  0.29107999999999995  0.9821  0.79398  1.0000
  H   H11       1.0  0.9990799999999997  0.75371  0.58305  1.0000
  H   H12       1.0  0.1354600000000001  0.7305499999999998  0.7122700000000002  1.0000
  H   H13       1.0  0.34268  0.78623  0.75997  1.0000
  H   H14       1.0  0.8405899999999998  0.6218699999999998  0.44243  1.0000
  H   H15       1.0  0.004249999999999998  0.6440999999999998  0.22748  1.0000
  H   H16       1.0  0.06511999999999998  0.47754  0.1779  1.0000
  H   H17       1.0  0.36426  0.81927  0.13281  1.0000
  H   H18       1.0  0.019030000000000002  0.38735999999999987  0.26201  1.0000
  H   H19       1.0  0.50174  0.4832  0.7937900000000002  1.0000
  H   H20       1.0  0.58119  0.25507  0.58281  1.0000
  H   H21       1.0  0.57468  0.23170999999999994  0.71202  1.0000
  H   H22       1.0  0.41428  0.28702  0.75907  1.0000
  H   H23       1.0  0.6023  0.12318  0.44349  1.0000
  H   H24       1.0  0.22392  0.14551  0.22813  1.0000
  H   H25       1.0  0.11257  0.9789799999999997  0.17801  1.0000
  H   H26       1.0  0.7674200000000001  0.32007000000000013  0.13346000000000005  1.0000
  H   H27       1.0  0.24217  0.8885299999999998  0.26214  1.0000
  H   H28       1.0  0.7071  0.024699999999999986  0.20585  1.0000
  H   H29       1.0  0.01912999999999999  0.24751999999999993  0.41562  1.0000
  H   H30       1.0  0.86361  0.27566  0.28972  1.0000
  H   H31       1.0  0.65968  0.21871000000000002  0.24218000000000006  1.0000
  H   H32       1.0  0.14965999999999996  0.38057  0.56099  1.0000
  H   H33       1.0  0.98944  0.3497100000000001  0.7738900000000002  1.0000
  H   H34       1.0  0.93192  0.5159399999999998  0.82836  1.0000
  H   H35       1.0  0.62934  0.17849999999999994  0.86161  1.0000
  H   H36       1.0  0.9736300000000001  0.61035  0.7467300000000002  1.0000
  H   H37       1.0  0.80111  0.75082  0.99956  1.0000
  H   H38       1.0  0.12843000000000007  0.74781  0.9960100000000002  1.0000
  H   H39       1.0  0.19743000000000008  0.25033  0.9985600000000001  1.0000
  H   H40       1.0  0.8677399999999998  0.24909000000000006  0.99738  1.0000
  C   C1        1.0  0.46842  0.56539  0.26765  1.0000
  C   C2        1.0  0.41148  0.67915  0.37582  1.0000
  C   C3        1.0  0.49396  0.06467999999999999  0.60658  1.0000
  C   C4        1.0  0.51565  0.90929  0.6188  1.0000
  C   C5        1.0  0.59076  0.8540399999999999  0.66286  1.0000
  C   C6        1.0  0.58069  0.0020800000000000007  0.64936  1.0000
  C   C7        1.0  0.52602  0.7544899999999998  0.63161  1.0000
  C   C8        1.0  0.7271  0.89272  0.73904  1.0000
  C   C9        1.0  0.79136  0.98476  0.76897  1.0000
  C   C10       1.0  0.58851  0.66738  0.84187  1.0000
  C   C11       1.0  0.52293  0.70975  0.92185  1.0000
  C   C12       1.0  0.33305  0.7093  0.921  1.0000
  C   C13       1.0  0.72049  0.03887999999999998  0.72355  1.0000
  C   C14       1.0  0.2058700000000001  0.9410399999999998  0.7323100000000002  1.0000
  C   C15       1.0  0.05288999999999999  0.82375  0.62284  1.0000
  C   C16       1.0  0.8754  0.4396399999999999  0.4011000000000001  1.0000
  C   C17       1.0  0.8918500000000001  0.5917100000000001  0.3851300000000001  1.0000
  C   C18       1.0  0.92435  0.64418  0.33923  1.0000
  C   C19       1.0  0.92415  0.49882  0.35676000000000013  1.0000
  C   C20       1.0  0.8938  0.74378  0.36733  1.0000
  C   C21       1.0  0.9836300000000001  0.60265  0.26333  1.0000
  C   C22       1.0  0.017120000000000017  0.51057  0.23581000000000005  1.0000
  C   C23       1.0  0.7392299999999998  0.8332299999999998  0.15671000000000004  1.0000
  C   C24       1.0  0.59701  0.78981  0.07464  1.0000
  C   C25       1.0  0.40685  0.7885  0.07326000000000003  1.0000
  C   C26       1.0  0.99018  0.45894  0.28318  1.0000
  C   C27       1.0  0.5248100000000002  0.44220000000000004  0.7321500000000002  1.0000
  C   C28       1.0  0.56771  0.32509  0.62269  1.0000
  C   C29       1.0  0.52464  0.9406099999999997  0.40166000000000013  1.0000
  C   C30       1.0  0.4937  0.09290000000000002  0.38595  1.0000
  C   C31       1.0  0.41539  0.14542  0.34005  1.0000
  C   C32       1.0  0.43232  0.99997  0.35732000000000014  1.0000
  C   C33       1.0  0.47389999999999993  0.24508  0.36819  1.0000
  C   C34       1.0  0.28018  0.10392  0.26388  1.0000
  C   C35       1.0  0.21861  0.011840000000000007  0.23611  1.0000
  C   C36       1.0  0.41338  0.3321199999999999  0.15537  1.0000
  C   C37       1.0  0.47631999999999997  0.28957  0.07418  1.0000
  C   C38       1.0  0.66553  0.2890099999999999  0.07367  1.0000
  C   C39       1.0  0.29256  0.96013  0.28349  1.0000
  C   C40       1.0  0.7977599999999999  0.0641  0.26667  1.0000
  C   C41       1.0  0.9613099999999999  0.17848  0.3752  1.0000
  C   C42       1.0  0.11163  0.56436  0.60688  1.0000
  C   C43       1.0  0.10032  0.40884  0.61906  1.0000
  C   C44       1.0  0.0691000000000001  0.35378000000000004  0.6632500000000002  1.0000
  C   C45       1.0  0.06738000000000001  0.50176  0.64962  1.0000
  C   C46       1.0  0.10067999999999999  0.25409  0.63176  1.0000
  C   C47       1.0  0.010559999999999955  0.39279  0.73961  1.0000
  C   C48       1.0  0.9777899999999999  0.48499  0.76961  1.0000
  C   C49       1.0  0.25296000000000013  0.1682900000000001  0.8414100000000002  1.0000
  C   C50       1.0  0.3987800000000001  0.21012  0.92148  1.0000
  C   C51       1.0  0.5881799999999998  0.20989  0.9214  1.0000
  C   C52       1.0  0.003339999999999986  0.53891  0.72406  1.0000
  C   C53       1.0  0.65418  0.75018  0.99873  1.0000
  C   C54       1.0  0.27558999999999995  0.7485199999999997  0.99669  1.0000
  C   C55       1.0  0.3436699999999999  0.24997000000000005  0.9979700000000001  1.0000
  C   C56       1.0  0.72096  0.24927000000000007  0.9974400000000002  1.0000
  N   N1        1.0  0.40679  0.60356  0.3923  1.0000
  N   N2        1.0  0.44371  0.53308  0.32508  1.0000
  N   N3        1.0  0.44931000000000004  0.6568600000000001  0.2977300000000001  1.0000
  N   N4        1.0  0.44828  0.71314  0.25123  1.0000
  N   N5        1.0  0.030189999999999974  0.8980299999999998  0.60444  1.0000
  N   N6        1.0  0.12583999999999998  0.9702799999999998  0.67204  1.0000
  N   N7        1.0  0.16201  0.84913  0.70295  1.0000
  N   N8        1.0  0.20379999999999995  0.79468  0.75129  1.0000
  N   N9        1.0  0.57286  0.39953  0.6045700000000003  1.0000
  N   N10       1.0  0.54518  0.47157  0.67211  1.0000
  N   N11       1.0  0.5385799999999997  0.35028  0.70263  1.0000
  N   N12       1.0  0.54472  0.29567  0.75077  1.0000
  N   N13       1.0  0.98337  0.10301999999999997  0.39186  1.0000
  N   N14       1.0  0.88012  0.03217999999999997  0.3244  1.0000
  N   N15       1.0  0.84575  0.15572  0.29677  1.0000
  N   N16       1.0  0.79915  0.21161  0.2499  1.0000
  O   O1        1.0  0.5911  0.7168699999999998  0.68534  1.0000
  O   O2        1.0  0.41448999999999997  0.71601  0.56027  1.0000
  O   O3        1.0  0.5823499999999998  0.13782  0.61795  1.0000
  O   O4        1.0  0.32665  0.03653  0.56356  1.0000
  O   O5        1.0  0.6227400000000001  0.55353  0.5723600000000002  1.0000
  O   O6        1.0  0.45341000000000004  0.6372299999999997  0.7720600000000001  1.0000
  O   O7        1.0  0.75449  0.65984  0.84094  1.0000
  O   O8        1.0  0.90727  0.7795200000000001  0.31391000000000013  1.0000
  O   O9        1.0  0.85419  0.7842900000000002  0.4396100000000001  1.0000
  O   O10       1.0  0.9477  0.36679  0.39419  1.0000
  O   O11       1.0  0.74622  0.47157999999999994  0.4412900000000001  1.0000
  O   O12       1.0  0.05600000000000001  0.94625  0.43196  1.0000
  O   O13       1.0  0.67214  0.86179  0.22452  1.0000
  O   O14       1.0  0.90769  0.84156  0.15837  1.0000
  O   O15       1.0  0.41036  0.28006  0.31373  1.0000
  O   O16       1.0  0.58238  0.2864299999999999  0.4414  1.0000
  O   O17       1.0  0.4435299999999999  0.8687  0.39603  1.0000
  O   O18       1.0  0.69574  0.97116  0.44036  1.0000
  O   O19       1.0  0.37349  0.4463799999999999  0.43169000000000013  1.0000
  O   O20       1.0  0.54711  0.36295000000000005  0.22383000000000006  1.0000
  O   O21       1.0  0.24549  0.33747  0.15535  1.0000
  O   O22       1.0  0.09097000000000005  0.21647  0.68556  1.0000
  O   O23       1.0  0.13736999999999994  0.21558  0.55982  1.0000
  O   O24       1.0  0.03523  0.63764  0.61865  1.0000
  O   O25       1.0  0.23527000000000006  0.53631  0.56368  1.0000
  O   O26       1.0  0.94686  0.05147000000000001  0.57222  1.0000
  O   O27       1.0  0.318  0.13705  0.77177  1.0000
  O   O28       1.0  0.08561999999999997  0.16213999999999995  0.84037  1.0000
