data_image0
_chemical_formula_structural       Cu2H48C50N8O8
_chemical_formula_sum              "Cu2 H48 C50 N8 O8"
_cell_length_a       9.68613
_cell_length_b       9.68476
_cell_length_c       22.39827
_cell_angle_alpha    90.00090999999999
_cell_angle_beta     89.99909
_cell_angle_gamma    89.99775

_space_group_name_H-M_alt    "P 1"
_space_group_IT_number       1

loop_
  _space_group_symop_operation_xyz
  'x, y, z'

loop_
  _atom_site_type_symbol
  _atom_site_label
  _atom_site_symmetry_multiplicity
  _atom_site_fract_x
  _atom_site_fract_y
  _atom_site_fract_z
  _atom_site_occupancy
  Cu  Cu1       1.0  0.5001  9e-05  0.75001  1.0000
  Cu  Cu2       1.0  0.99998  0.5  0.25002  1.0000
  H   H1        1.0  0.012240000000000001  0.83811  0.9332899999999998  1.0000
  H   H2        1.0  0.8871600000000001  0.80803  0.99074  1.0000
  H   H3        1.0  0.83929  0.6632699999999999  0.91194  1.0000
  H   H4        1.0  0.6814200000000001  0.53959  0.8405899999999998  1.0000
  H   H5        1.0  0.51432  0.67343  0.77932  1.0000
  H   H6        1.0  0.64596  0.04322999999999999  0.85484  1.0000
  H   H7        1.0  0.9878  0.16186999999999996  0.9332899999999998  1.0000
  H   H8        1.0  0.11290000000000001  0.19194  0.99074  1.0000
  H   H9        1.0  0.16073  0.33663999999999994  0.91196  1.0000
  H   H10       1.0  0.31857  0.46038  0.8406  1.0000
  H   H11       1.0  0.48568  0.32656  0.77932  1.0000
  H   H12       1.0  0.35406  0.95673  0.8548199999999999  1.0000
  H   H13       1.0  0.8381200000000001  0.98779  0.06671  1.0000
  H   H14       1.0  0.80807  0.11287  0.00925  1.0000
  H   H15       1.0  0.6633000000000001  0.16073999999999997  0.08805  1.0000
  H   H16       1.0  0.53967  0.31856  0.15939  1.0000
  H   H17       1.0  0.67345  0.48569999999999997  0.2207  1.0000
  H   H18       1.0  0.04323  0.35397  0.1452  1.0000
  H   H19       1.0  0.16186  0.01221  0.0667  1.0000
  H   H20       1.0  0.19194000000000003  0.8871099999999998  0.00924  1.0000
  H   H21       1.0  0.33665  0.8392899999999999  0.08806999999999998  1.0000
  H   H22       1.0  0.46035  0.68146  0.15944  1.0000
  H   H23       1.0  0.32662  0.51435  0.22068  1.0000
  H   H24       1.0  0.9568  0.6459299999999998  0.14517  1.0000
  H   H25       1.0  0.51219  0.6619  0.43329  1.0000
  H   H26       1.0  0.38709  0.69194  0.49075  1.0000
  H   H27       1.0  0.33928  0.8366899999999999  0.41196  1.0000
  H   H28       1.0  0.18138000000000004  0.9603699999999997  0.34059  1.0000
  H   H29       1.0  0.014310000000000002  0.8265299999999998  0.27929  1.0000
  H   H30       1.0  0.14598000000000003  0.45673  0.35482  1.0000
  H   H31       1.0  0.48778  0.33813  0.43329  1.0000
  H   H32       1.0  0.61289  0.30807  0.49074  1.0000
  H   H33       1.0  0.6606  0.16329  0.41194  1.0000
  H   H34       1.0  0.81856  0.03964  0.34059  1.0000
  H   H35       1.0  0.9857700000000001  0.17342  0.27931  1.0000
  H   H36       1.0  0.8540799999999998  0.54329  0.35483  1.0000
  H   H37       1.0  0.33814  0.51225  0.56673  1.0000
  H   H38       1.0  0.30805  0.38719  0.50927  1.0000
  H   H39       1.0  0.1633  0.3393  0.58806  1.0000
  H   H40       1.0  0.03967  0.18141  0.65942  1.0000
  H   H41       1.0  0.17347000000000004  0.014279999999999996  0.72069  1.0000
  H   H42       1.0  0.54319  0.14594999999999997  0.64517  1.0000
  H   H43       1.0  0.66186  0.48778  0.56672  1.0000
  H   H44       1.0  0.69194  0.61286  0.50927  1.0000
  H   H45       1.0  0.8366500000000001  0.66072  0.58804  1.0000
  H   H46       1.0  0.96032  0.81858  0.65941  1.0000
  H   H47       1.0  0.8265500000000001  0.9856999999999999  0.7207  1.0000
  H   H48       1.0  0.45678  0.8540599999999998  0.6451999999999999  1.0000
  C   C1        1.0  0.9332400000000001  0.8868799999999998  0.9615799999999999  1.0000
  C   C2        1.0  0.75325  0.86445  0.8883299999999998  1.0000
  C   C3        1.0  0.76566  0.72015  0.88499  1.0000
  C   C4        1.0  0.67739  0.65147  0.8446899999999999  1.0000
  C   C5        1.0  0.58328  0.72485  0.81059  1.0000
  C   C6        1.0  0.6571100000000001  0.93161  0.8524099999999999  1.0000
  C   C7        1.0  0.06679  0.11308999999999997  0.9615899999999997  1.0000
  C   C8        1.0  0.24677  0.13547  0.8883199999999999  1.0000
  C   C9        1.0  0.23435  0.27977  0.885  1.0000
  C   C10       1.0  0.32261  0.34849  0.84471  1.0000
  C   C11       1.0  0.41672  0.27514  0.81058  1.0000
  C   C12       1.0  0.34292  0.06834  0.8523999999999999  1.0000
  C   C13       1.0  0.8869100000000001  0.06679  0.03842  1.0000
  C   C14       1.0  0.8644900000000001  0.2468  0.11165999999999998  1.0000
  C   C15       1.0  0.72027  0.23435999999999998  0.11502  1.0000
  C   C16       1.0  0.65152  0.32255  0.15529999999999997  1.0000
  C   C17       1.0  0.72485  0.41677  0.18943  1.0000
  C   C18       1.0  0.9316500000000001  0.34284999999999993  0.14766  1.0000
  C   C19       1.0  0.1131  0.93319  0.03841  1.0000
  C   C20       1.0  0.13551  0.75321  0.11169  1.0000
  C   C21       1.0  0.27977  0.76565  0.11502  1.0000
  C   C22       1.0  0.34849  0.67743  0.15530999999999998  1.0000
  C   C23       1.0  0.27516000000000007  0.58329  0.18943  1.0000
  C   C24       1.0  0.0684  0.65705  0.14761  1.0000
  C   C25       1.0  0.4332  0.61312  0.46159  1.0000
  C   C26       1.0  0.25321000000000005  0.63553  0.38832999999999995  1.0000
  C   C27       1.0  0.26566  0.77982  0.38498  1.0000
  C   C28       1.0  0.17740000000000003  0.84848  0.34467  1.0000
  C   C29       1.0  0.08321  0.77513  0.31059  1.0000
  C   C30       1.0  0.15714  0.56836  0.35238  1.0000
  C   C31       1.0  0.56677  0.38691  0.46157999999999993  1.0000
  C   C32       1.0  0.7467900000000001  0.36449999999999994  0.38834  1.0000
  C   C33       1.0  0.7342800000000002  0.22019  0.38499  1.0000
  C   C34       1.0  0.82257  0.15153  0.34469  1.0000
  C   C35       1.0  0.9168100000000001  0.22483  0.31059999999999993  1.0000
  C   C36       1.0  0.8428800000000001  0.4316499999999999  0.35239  1.0000
  C   C37       1.0  0.38691  0.43325  0.53843  1.0000
  C   C38       1.0  0.36446  0.25324  0.61168  1.0000
  C   C39       1.0  0.22021000000000002  0.26565999999999995  0.61502  1.0000
  C   C40       1.0  0.15152000000000002  0.1774  0.6553099999999998  1.0000
  C   C41       1.0  0.22488  0.08322  0.68943  1.0000
  C   C42       1.0  0.43162  0.15708999999999998  0.64761  1.0000
  C   C43       1.0  0.61309  0.56678  0.53842  1.0000
  C   C44       1.0  0.6355  0.7467699999999998  0.61169  1.0000
  C   C45       1.0  0.77975  0.73435  0.61501  1.0000
  C   C46       1.0  0.8484700000000001  0.82259  0.6553  1.0000
  C   C47       1.0  0.7751300000000001  0.91676  0.68943  1.0000
  C   C48       1.0  0.56836  0.84292  0.64763  1.0000
  C   C49       1.0  0.0  0.9999899999999999  0.0  1.0000
  C   C50       1.0  0.5  0.5000099999999998  0.50001  1.0000
  N   N1        1.0  0.5711300000000001  0.8648699999999999  0.81405  1.0000
  N   N2        1.0  0.42890000000000006  0.13512  0.81404  1.0000
  N   N3        1.0  0.8648500000000001  0.42884  0.18601  1.0000
  N   N4        1.0  0.13517  0.5710899999999999  0.18597999999999998  1.0000
  N   N5        1.0  0.07112  0.6351  0.31403  1.0000
  N   N6        1.0  0.9289000000000001  0.3648699999999999  0.31404  1.0000
  N   N7        1.0  0.36487  0.07109  0.68597  1.0000
  N   N8        1.0  0.63513  0.9289099999999999  0.68599  1.0000
  O   O1        1.0  0.8283600000000001  0.95001  0.92523  1.0000
  O   O2        1.0  0.17165  0.04993  0.9252199999999998  1.0000
  O   O3        1.0  0.95006  0.17167  0.07478  1.0000
  O   O4        1.0  0.04996  0.8283499999999998  0.07479  1.0000
  O   O5        1.0  0.32837000000000005  0.5499699999999998  0.42521  1.0000
  O   O6        1.0  0.67164  0.45007  0.42523  1.0000
  O   O7        1.0  0.45003000000000004  0.32835  0.57478  1.0000
  O   O8        1.0  0.5499500000000002  0.67165  0.57479  1.0000
