data_image0
_chemical_formula_structural       La8H28C60O56
_chemical_formula_sum              "La8 H28 C60 O56"
_cell_length_a       10.5645
_cell_length_b       13.988340000000003
_cell_length_c       16.6755
_cell_angle_alpha    73.52118
_cell_angle_beta     71.52045999999999
_cell_angle_gamma    67.80167

_symmetry_space_group_name_H-M    'P 1'
_symmetry_Int_Tables_number       1

loop_
  _symmetry_equiv_pos_as_xyz
  'x,y,z'

loop_
  _atom_site_type_symbol
  _atom_site_label
  _atom_site_symmetry_multiplicity
  _atom_site_fract_x
  _atom_site_fract_y
  _atom_site_fract_z
  _atom_site_occupancy
  La  La1       1.0  0.23728999999999992  0.79699  0.8656  1.0000
  La  La2       1.0  0.95005  0.94102  0.71079  1.0000
  La  La3       1.0  0.9000799999999999  0.70282  0.63435  1.0000
  La  La4       1.0  0.6017999999999999  0.5590500000000003  0.78922  1.0000
  La  La5       1.0  0.7627199999999998  0.203  0.1344  1.0000
  La  La6       1.0  0.04995999999999998  0.058979999999999984  0.2892100000000001  1.0000
  La  La7       1.0  0.09993  0.2971700000000001  0.36566  1.0000
  La  La8       1.0  0.39821  0.44094  0.21079  1.0000
  H   H1        1.0  0.14973999999999998  0.8650600000000002  0.0496  1.0000
  H   H2        1.0  0.005769999999999877  0.9099900000000001  0.01671  1.0000
  H   H3        1.0  0.43659  0.6269599999999999  0.98168  1.0000
  H   H4        1.0  0.5500299999999999  0.6861900000000001  0.92877  1.0000
  H   H5        1.0  0.32787000000000005  0.20030000000000003  0.53871  1.0000
  H   H6        1.0  0.5539799999999999  0.14653  0.58307  1.0000
  H   H7        1.0  0.29040999999999983  0.15154000000000006  0.77577  1.0000
  H   H8        1.0  0.06538999999999998  0.63497  0.45015  1.0000
  H   H9        1.0  0.93302  0.59078  0.48294  1.0000
  H   H10       1.0  0.04637999999999998  0.8709300000000001  0.5182  1.0000
  H   H11       1.0  0.16594000000000006  0.81233  0.57127  1.0000
  H   H12       1.0  0.06664000000000007  0.29974  0.9618  1.0000
  H   H13       1.0  0.2833  0.35335000000000005  0.91785  1.0000
  H   H14       1.0  0.21767000000000003  0.34856  0.72398  1.0000
  H   H15       1.0  0.8502699999999999  0.13493  0.95041  1.0000
  H   H16       1.0  0.99424  0.09  0.98329  1.0000
  H   H17       1.0  0.5634200000000001  0.37304000000000004  0.01832  1.0000
  H   H18       1.0  0.44997000000000004  0.31381  0.07123  1.0000
  H   H19       1.0  0.6721400000000001  0.7997  0.46129  1.0000
  H   H20       1.0  0.44603  0.85347  0.41694  1.0000
  H   H21       1.0  0.7095999999999999  0.8484500000000003  0.22423  1.0000
  H   H22       1.0  0.9346199999999998  0.36503000000000013  0.54985  1.0000
  H   H23       1.0  0.06698999999999995  0.40921000000000013  0.51707  1.0000
  H   H24       1.0  0.95363  0.12906  0.4818  1.0000
  H   H25       1.0  0.8340699999999999  0.18767  0.42874  1.0000
  H   H26       1.0  0.9333600000000002  0.70026  0.0382  1.0000
  H   H27       1.0  0.7167099999999997  0.6466400000000002  0.08215  1.0000
  H   H28       1.0  0.7823400000000001  0.65143  0.27602  1.0000
  C   C1        1.0  0.30676  0.04608  0.5822  1.0000
  C   C2        1.0  0.37442  0.11991000000000002  0.56927  1.0000
  C   C3        1.0  0.5000099999999998  0.09009000000000005  0.59354  1.0000
  C   C4        1.0  0.5629999999999997  0.9854400000000002  0.62962  1.0000
  C   C5        1.0  0.49533999999999995  0.91034  0.64381  1.0000
  C   C6        1.0  0.36706999999999995  0.94115  0.62025  1.0000
  C   C7        1.0  0.17326  0.08237  0.55242  1.0000
  C   C8        1.0  0.29425999999999997  0.8622100000000003  0.63218  1.0000
  C   C9        1.0  0.5464500000000001  0.79686  0.68511  1.0000
  C   C10       1.0  0.7014499999999999  0.9606700000000002  0.64935  1.0000
  C   C11       1.0  0.18581  0.19627000000000003  0.76508  1.0000
  C   C12       1.0  0.08796000000000001  0.14279000000000003  0.78358  1.0000
  C   C13       1.0  0.9511400000000001  0.1967700000000001  0.77021  1.0000
  C   C14       1.0  0.13493999999999998  0.026879999999999994  0.81323  1.0000
  C   C15       1.0  0.83774  0.14385000000000003  0.80529  1.0000
  C   C16       1.0  0.93497  0.45386000000000015  0.91796  1.0000
  C   C17       1.0  0.06343000000000004  0.38008000000000003  0.93117  1.0000
  C   C18       1.0  0.18354000000000004  0.40981999999999996  0.90705  1.0000
  C   C19       1.0  0.17810000000000004  0.51438  0.87083  1.0000
  C   C20       1.0  0.049709999999999886  0.5894600000000002  0.85621  1.0000
  C   C21       1.0  0.9286  0.5587400000000001  0.87975  1.0000
  C   C22       1.0  0.8079200000000001  0.41752  0.9476  1.0000
  C   C23       1.0  0.7888800000000006  0.6378000000000001  0.86781  1.0000
  C   C24       1.0  0.028750000000000005  0.70295  0.81482  1.0000
  C   C25       1.0  0.3113700000000001  0.53933  0.8511  1.0000
  C   C26       1.0  0.14712000000000003  0.30378  0.73481  1.0000
  C   C27       1.0  0.014389999999999974  0.3571500000000001  0.71614  1.0000
  C   C28       1.0  0.9180699999999999  0.3032100000000001  0.72974  1.0000
  C   C29       1.0  0.97527  0.47305  0.68648  1.0000
  C   C30       1.0  0.7865299999999998  0.3561099999999999  0.6949300000000002  1.0000
  C   C31       1.0  0.6932499999999999  0.9539100000000001  0.41781  1.0000
  C   C32       1.0  0.6255899999999996  0.8800800000000002  0.43074  1.0000
  C   C33       1.0  0.49999999999999983  0.9099100000000002  0.40646  1.0000
  C   C34       1.0  0.43701000000000007  0.01455  0.37038  1.0000
  C   C35       1.0  0.50466  0.08965  0.35619  1.0000
  C   C36       1.0  0.63294  0.05884000000000001  0.37976  1.0000
  C   C37       1.0  0.82675  0.91763  0.44758  1.0000
  C   C38       1.0  0.7057499999999999  0.13779000000000002  0.36782  1.0000
  C   C39       1.0  0.4535600000000001  0.2031400000000001  0.31489  1.0000
  C   C40       1.0  0.29855  0.03932  0.35065  1.0000
  C   C41       1.0  0.8141999999999998  0.8037200000000002  0.23492  1.0000
  C   C42       1.0  0.9120499999999999  0.8572000000000001  0.21643  1.0000
  C   C43       1.0  0.04886999999999991  0.8032300000000002  0.22978999999999997  1.0000
  C   C44       1.0  0.8650700000000001  0.9731200000000002  0.18678  1.0000
  C   C45       1.0  0.16226  0.85615  0.19472  1.0000
  C   C46       1.0  0.06504000000000003  0.54613  0.08204  1.0000
  C   C47       1.0  0.9365799999999997  0.6199100000000002  0.06883  1.0000
  C   C48       1.0  0.81647  0.5901800000000001  0.09296  1.0000
  C   C49       1.0  0.82191  0.4856200000000001  0.12917  1.0000
  C   C50       1.0  0.95029  0.41053  0.14379  1.0000
  C   C51       1.0  0.07140999999999996  0.44125000000000003  0.12025  1.0000
  C   C52       1.0  0.19208999999999998  0.58247  0.0524  1.0000
  C   C53       1.0  0.21112999999999996  0.3622000000000001  0.13219  1.0000
  C   C54       1.0  0.97126  0.29705  0.18518  1.0000
  C   C55       1.0  0.6886399999999999  0.4606600000000001  0.1489  1.0000
  C   C56       1.0  0.8528899999999999  0.69621  0.2652  1.0000
  C   C57       1.0  0.98561  0.6428400000000002  0.28387  1.0000
  C   C58       1.0  0.08193999999999999  0.69679  0.27027  1.0000
  C   C59       1.0  0.024739999999999963  0.52695  0.31352  1.0000
  C   C60       1.0  0.21347000000000005  0.64388  0.30507  1.0000
  O   O1        1.0  0.07825  0.03776999999999998  0.59048  1.0000
  O   O2        1.0  0.16083  0.15770000000000012  0.48902  1.0000
  O   O3        1.0  0.2073900000000001  0.84776  0.70639  1.0000
  O   O4        1.0  0.31484999999999996  0.81882  0.5713  1.0000
  O   O5        1.0  0.4749599999999998  0.7675400000000002  0.75939  1.0000
  O   O6        1.0  0.6485999999999998  0.72855  0.64601  1.0000
  O   O7        1.0  0.75574  0.87021  0.69513  1.0000
  O   O8        1.0  0.76474  0.02855000000000001  0.62235  1.0000
  O   O9        1.0  0.2579300000000001  0.9797399999999999  0.82538  1.0000
  O   O10       1.0  0.04940999999999999  0.97486  0.82487  1.0000
  O   O11       1.0  0.8125299999999999  0.10381999999999998  0.75364  1.0000
  O   O12       1.0  0.7741699999999999  0.14391000000000007  0.88269  1.0000
  O   O13       1.0  0.10732000000000008  0.88107  0.9977  1.0000
  O   O14       1.0  0.46785999999999994  0.66757  0.92503  1.0000
  O   O15       1.0  0.70644  0.46210000000000007  0.90952  1.0000
  O   O16       1.0  0.8070400000000001  0.34218  0.01097  1.0000
  O   O17       1.0  0.7618199999999999  0.6522100000000001  0.79362  1.0000
  O   O18       1.0  0.7054599999999999  0.6812500000000004  0.92872  1.0000
  O   O19       1.0  0.001489999999999961  0.7325300000000001  0.74076  1.0000
  O   O20       1.0  0.023879999999999835  0.7711800000000002  0.85386  1.0000
  O   O21       1.0  0.3203200000000001  0.6298  0.80499  1.0000
  O   O22       1.0  0.41569000000000006  0.47188  0.87826  1.0000
  O   O23       1.0  0.06339  0.52006  0.67434  1.0000
  O   O24       1.0  0.8493199999999999  0.5251900000000003  0.67495  1.0000
  O   O25       1.0  0.6699499999999999  0.3962500000000001  0.74674  1.0000
  O   O26       1.0  0.79973  0.35605000000000003  0.61758  1.0000
  O   O27       1.0  0.9873600000000001  0.6188200000000001  0.50215  1.0000
  O   O28       1.0  0.061679999999999874  0.8297600000000003  0.5747  1.0000
  O   O29       1.0  0.9217599999999998  0.9622200000000002  0.40952  1.0000
  O   O30       1.0  0.8391799999999998  0.8423000000000003  0.51099  1.0000
  O   O31       1.0  0.79262  0.15224  0.29362  1.0000
  O   O32       1.0  0.6851599999999999  0.18118000000000004  0.42871  1.0000
  O   O33       1.0  0.5250400000000001  0.23246000000000006  0.24061  1.0000
  O   O34       1.0  0.35141  0.27145  0.35399  1.0000
  O   O35       1.0  0.24426999999999996  0.12979000000000002  0.30488  1.0000
  O   O36       1.0  0.23526  0.9714400000000002  0.37765  1.0000
  O   O37       1.0  0.7420699999999999  0.020250000000000015  0.17462  1.0000
  O   O38       1.0  0.9506  0.02513  0.17514  1.0000
  O   O39       1.0  0.18746999999999991  0.8961800000000002  0.24636  1.0000
  O   O40       1.0  0.22583999999999996  0.8560800000000001  0.11731  1.0000
  O   O41       1.0  0.8926900000000001  0.11893  0.0023  1.0000
  O   O42       1.0  0.53215  0.33243  0.07498  1.0000
  O   O43       1.0  0.29356999999999994  0.5378900000000001  0.09048  1.0000
  O   O44       1.0  0.1929699999999999  0.6578200000000004  0.98904  1.0000
  O   O45       1.0  0.23818999999999999  0.3477799999999999  0.20639  1.0000
  O   O46       1.0  0.29455  0.31875000000000003  0.07129  1.0000
  O   O47       1.0  0.99852  0.26746  0.25924  1.0000
  O   O48       1.0  0.97613  0.22882000000000005  0.14614  1.0000
  O   O49       1.0  0.6796899999999999  0.37020000000000003  0.19502  1.0000
  O   O50       1.0  0.5843200000000001  0.52811  0.12175  1.0000
  O   O51       1.0  0.93662  0.4799400000000001  0.32566  1.0000
  O   O52       1.0  0.15068999999999994  0.4748000000000001  0.32505  1.0000
  O   O53       1.0  0.33006  0.60375  0.25327  1.0000
  O   O54       1.0  0.20027  0.6439500000000001  0.38242  1.0000
  O   O55       1.0  0.012650000000000033  0.38117000000000006  0.49786  1.0000
  O   O56       1.0  0.9383299999999999  0.17024000000000003  0.42531  1.0000
