data_image0
_chemical_formula_structural       Cu6H32C48N40Cl4
_chemical_formula_sum              "Cu6 H32 C48 N40 Cl4"
_cell_length_a       12.36279
_cell_length_b       15.60711
_cell_length_c       15.60699
_cell_angle_alpha    90.0
_cell_angle_beta     90.00763
_cell_angle_gamma    90.0

_symmetry_space_group_name_H-M    'P 1'
_symmetry_Int_Tables_number       1

loop_
  _symmetry_equiv_pos_as_xyz
  'x,y,z'

loop_
  _atom_site_type_symbol
  _atom_site_label
  _atom_site_symmetry_multiplicity
  _atom_site_fract_x
  _atom_site_fract_y
  _atom_site_fract_z
  _atom_site_occupancy
  Cu  Cu1       1.0  1e-05  0.0  0.0  1.0000
  Cu  Cu2       1.0  0.5  0.4999999999999999  0.5  1.0000
  Cu  Cu3       1.0  0.15277  0.0  0.18414000000000005  1.0000
  Cu  Cu4       1.0  0.84723  0.0  0.8158700000000002  1.0000
  Cu  Cu5       1.0  0.34723  0.4999999999999999  0.68357  1.0000
  Cu  Cu6       1.0  0.65276  0.4999999999999999  0.3164300000000001  1.0000
  H   H1        1.0  0.76886  0.7181499999999997  0.08784000000000003  1.0000
  H   H2        1.0  0.6621999999999999  0.5962899999999999  0.15036  1.0000
  H   H3        1.0  0.8402699999999999  0.5992899999999998  0.37469000000000013  1.0000
  H   H4        1.0  0.95633  0.7215899999999997  0.32072  1.0000
  H   H5        1.0  0.23113  0.7181499999999997  0.9121600000000002  1.0000
  H   H6        1.0  0.3378  0.5962899999999999  0.8496400000000002  1.0000
  H   H7        1.0  0.15972  0.5992899999999998  0.62531  1.0000
  H   H8        1.0  0.04367  0.7215899999999997  0.67928  1.0000
  H   H9        1.0  0.7309299999999999  0.7813499999999998  0.5877000000000002  1.0000
  H   H10       1.0  0.8377399999999999  0.9034099999999998  0.64963  1.0000
  H   H11       1.0  0.6603  0.9008699999999997  0.8743100000000003  1.0000
  H   H12       1.0  0.54416  0.7784099999999998  0.8208400000000002  1.0000
  H   H13       1.0  0.26905999999999997  0.7813499999999998  0.4123000000000001  1.0000
  H   H14       1.0  0.16226  0.9034099999999998  0.35037  1.0000
  H   H15       1.0  0.3397  0.9008699999999997  0.12570000000000006  1.0000
  H   H16       1.0  0.45583999999999997  0.7784099999999998  0.17916000000000007  1.0000
  H   H17       1.0  0.23113  0.28185  0.9121600000000002  1.0000
  H   H18       1.0  0.3378  0.4037099999999999  0.8496400000000002  1.0000
  H   H19       1.0  0.15972  0.4007099999999999  0.62531  1.0000
  H   H20       1.0  0.04367  0.27841  0.67928  1.0000
  H   H21       1.0  0.76886  0.28185  0.08784000000000003  1.0000
  H   H22       1.0  0.6621999999999999  0.4037099999999999  0.15036  1.0000
  H   H23       1.0  0.8402699999999999  0.4007099999999999  0.37469000000000013  1.0000
  H   H24       1.0  0.95633  0.27841  0.32072  1.0000
  H   H25       1.0  0.26905999999999997  0.21864999999999996  0.4123000000000001  1.0000
  H   H26       1.0  0.16226  0.09659  0.35037  1.0000
  H   H27       1.0  0.3397  0.09913  0.12570000000000006  1.0000
  H   H28       1.0  0.45583999999999997  0.22158999999999995  0.17916000000000007  1.0000
  H   H29       1.0  0.7309299999999999  0.21864999999999996  0.5877000000000002  1.0000
  H   H30       1.0  0.8377399999999999  0.09659  0.64963  1.0000
  H   H31       1.0  0.6603  0.09913  0.8743100000000003  1.0000
  H   H32       1.0  0.54416  0.22158999999999995  0.8208400000000002  1.0000
  C   C1        1.0  0.93033  0.8039999999999998  0.16900000000000007  1.0000
  C   C2        1.0  0.87061  0.72985  0.20015  1.0000
  C   C3        1.0  0.78755  0.69283  0.15106000000000006  1.0000
  C   C4        1.0  0.72901  0.6251299999999997  0.18530000000000005  1.0000
  C   C5        1.0  0.82973  0.62717  0.31114  1.0000
  C   C6        1.0  0.89209  0.6948899999999998  0.28133000000000014  1.0000
  C   C7        1.0  0.06966  0.8039899999999998  0.8310000000000001  1.0000
  C   C8        1.0  0.12939  0.72985  0.79985  1.0000
  C   C9        1.0  0.21244  0.69283  0.8489400000000002  1.0000
  C   C10       1.0  0.27099  0.6251299999999997  0.8147  1.0000
  C   C11       1.0  0.17026  0.62717  0.68886  1.0000
  C   C12       1.0  0.1079  0.6948899999999998  0.7186800000000002  1.0000
  C   C13       1.0  0.56961  0.6958099999999998  0.6690200000000002  1.0000
  C   C14       1.0  0.6295  0.7699  0.7001400000000002  1.0000
  C   C15       1.0  0.71245  0.8068099999999998  0.6508900000000002  1.0000
  C   C16       1.0  0.7711199999999999  0.8746099999999998  0.6848300000000003  1.0000
  C   C17       1.0  0.67071  0.87282  0.8108200000000002  1.0000
  C   C18       1.0  0.60825  0.8050099999999998  0.78127  1.0000
  C   C19       1.0  0.43039  0.6958099999999998  0.3309800000000001  1.0000
  C   C20       1.0  0.37049  0.7699  0.2998600000000001  1.0000
  C   C21       1.0  0.28755  0.8068099999999998  0.3491100000000001  1.0000
  C   C22       1.0  0.22888  0.8746099999999998  0.31518  1.0000
  C   C23       1.0  0.32929  0.87282  0.18919000000000005  1.0000
  C   C24       1.0  0.39174  0.8050099999999998  0.21873000000000006  1.0000
  C   C25       1.0  0.06966  0.19600999999999993  0.8310000000000001  1.0000
  C   C26       1.0  0.12939  0.27015  0.79985  1.0000
  C   C27       1.0  0.21244  0.30717  0.8489400000000002  1.0000
  C   C28       1.0  0.27099  0.37487  0.8147  1.0000
  C   C29       1.0  0.17026  0.3728299999999999  0.68886  1.0000
  C   C30       1.0  0.1079  0.30511  0.7186800000000002  1.0000
  C   C31       1.0  0.93033  0.19599999999999995  0.16900000000000007  1.0000
  C   C32       1.0  0.87061  0.27015  0.20015  1.0000
  C   C33       1.0  0.78755  0.30717  0.15106000000000006  1.0000
  C   C34       1.0  0.72901  0.37487  0.18530000000000005  1.0000
  C   C35       1.0  0.82973  0.3728299999999999  0.31114  1.0000
  C   C36       1.0  0.89209  0.30511  0.28133000000000014  1.0000
  C   C37       1.0  0.43039  0.3041899999999999  0.3309800000000001  1.0000
  C   C38       1.0  0.37049  0.23009999999999994  0.2998600000000001  1.0000
  C   C39       1.0  0.28755  0.19319  0.3491100000000001  1.0000
  C   C40       1.0  0.22888  0.12539  0.31518  1.0000
  C   C41       1.0  0.32929  0.12717999999999993  0.18919000000000005  1.0000
  C   C42       1.0  0.39174  0.19499  0.21873000000000006  1.0000
  C   C43       1.0  0.56961  0.3041899999999999  0.6690200000000002  1.0000
  C   C44       1.0  0.6295  0.23009999999999994  0.7001400000000002  1.0000
  C   C45       1.0  0.71245  0.19319  0.6508900000000002  1.0000
  C   C46       1.0  0.7711199999999999  0.12539  0.6848300000000003  1.0000
  C   C47       1.0  0.67071  0.12717999999999993  0.8108200000000002  1.0000
  C   C48       1.0  0.60825  0.19499  0.78127  1.0000
  N   N1        1.0  0.9802899999999999  0.9075299999999997  0.09160000000000003  1.0000
  N   N2        1.0  0.03645  0.9097399999999998  0.1652  1.0000
  N   N3        1.0  0.00674  0.8454699999999998  0.21541000000000005  1.0000
  N   N4        1.0  0.9131  0.8415799999999998  0.09205000000000003  1.0000
  N   N5        1.0  0.749  0.5928999999999998  0.26401000000000013  1.0000
  N   N6        1.0  0.01971  0.9075299999999997  0.9084000000000002  1.0000
  N   N7        1.0  0.96355  0.9097399999999998  0.8348100000000003  1.0000
  N   N8        1.0  0.99325  0.8454699999999998  0.7846000000000002  1.0000
  N   N9        1.0  0.0869  0.8415799999999998  0.9079500000000003  1.0000
  N   N10       1.0  0.25099  0.5928999999999998  0.7359900000000003  1.0000
  N   N11       1.0  0.5197  0.5923599999999998  0.5915300000000002  1.0000
  N   N12       1.0  0.4632  0.59027  0.6649200000000002  1.0000
  N   N13       1.0  0.49277  0.6545599999999998  0.7151400000000002  1.0000
  N   N14       1.0  0.58713  0.6581099999999998  0.5921900000000002  1.0000
  N   N15       1.0  0.75129  0.9070099999999998  0.76349  1.0000
  N   N16       1.0  0.48029  0.5923499999999998  0.40847000000000006  1.0000
  N   N17       1.0  0.5368  0.59027  0.3350800000000001  1.0000
  N   N18       1.0  0.50723  0.6545599999999998  0.28486  1.0000
  N   N19       1.0  0.41287  0.6581099999999998  0.4078200000000001  1.0000
  N   N20       1.0  0.24870999999999993  0.9070099999999998  0.23651000000000005  1.0000
  N   N21       1.0  0.01971  0.09247  0.9084000000000002  1.0000
  N   N22       1.0  0.96355  0.09025999999999998  0.8348100000000003  1.0000
  N   N23       1.0  0.99325  0.15452999999999995  0.7846000000000002  1.0000
  N   N24       1.0  0.0869  0.15842  0.9079500000000003  1.0000
  N   N25       1.0  0.25099  0.4070999999999999  0.7359900000000003  1.0000
  N   N26       1.0  0.9802899999999999  0.09247  0.09160000000000003  1.0000
  N   N27       1.0  0.03645  0.09025999999999998  0.1652  1.0000
  N   N28       1.0  0.00674  0.15452999999999995  0.21541000000000005  1.0000
  N   N29       1.0  0.9131  0.15842  0.09205000000000003  1.0000
  N   N30       1.0  0.749  0.4070999999999999  0.26401000000000013  1.0000
  N   N31       1.0  0.48029  0.4076499999999999  0.40847000000000006  1.0000
  N   N32       1.0  0.5368  0.40973  0.3350800000000001  1.0000
  N   N33       1.0  0.50723  0.3454399999999999  0.28486  1.0000
  N   N34       1.0  0.41287  0.34189  0.4078200000000001  1.0000
  N   N35       1.0  0.24870999999999993  0.09298999999999998  0.23651000000000005  1.0000
  N   N36       1.0  0.5197  0.4076399999999999  0.5915300000000002  1.0000
  N   N37       1.0  0.4632  0.40973  0.6649200000000002  1.0000
  N   N38       1.0  0.49277  0.3454399999999999  0.7151400000000002  1.0000
  N   N39       1.0  0.58713  0.34189  0.5921900000000002  1.0000
  N   N40       1.0  0.75129  0.09298999999999998  0.76349  1.0000
  Cl  Cl1       1.0  0.21445  0.0  0.03804000000000001  1.0000
  Cl  Cl2       1.0  0.78556  0.0  0.9619700000000002  1.0000
  Cl  Cl3       1.0  0.28508  0.4999999999999999  0.5374900000000002  1.0000
  Cl  Cl4       1.0  0.71492  0.4999999999999999  0.4625100000000001  1.0000
