data_image0
_chemical_formula_structural       Co8H28C72N12O32
_chemical_formula_sum              "Co8 H28 C72 N12 O32"
_cell_length_a       10.16409
_cell_length_b       18.09579
_cell_length_c       28.02799
_cell_angle_alpha    90.26631
_cell_angle_beta     97.37109
_cell_angle_gamma    90.09862

_symmetry_space_group_name_H-M    'P 1'
_symmetry_Int_Tables_number       1

loop_
  _symmetry_equiv_pos_as_xyz
  'x,y,z'

loop_
  _atom_site_type_symbol
  _atom_site_label
  _atom_site_symmetry_multiplicity
  _atom_site_fract_x
  _atom_site_fract_y
  _atom_site_fract_z
  _atom_site_occupancy
  Co  Co1       1.0  0.19584000000000001  0.62224  0.17532  1.0000
  Co  Co2       1.0  0.08035000000000002  0.5651  0.23686  1.0000
  Co  Co3       1.0  0.3054  0.12399  0.32452  1.0000
  Co  Co4       1.0  0.4172600000000001  0.0656  0.26312  1.0000
  Co  Co5       1.0  0.8106300000000001  0.37844  0.82429  1.0000
  Co  Co6       1.0  0.9270400000000002  0.43434  0.76204  1.0000
  Co  Co7       1.0  0.69426  0.87772  0.67601  1.0000
  Co  Co8       1.0  0.5834600000000001  0.9348799999999999  0.7367900000000002  1.0000
  H   H1        1.0  0.22007000000000002  0.33567  0.24663000000000002  1.0000
  H   H2        1.0  0.3531900000000001  0.1909  0.13979000000000005  1.0000
  H   H3        1.0  0.2565500000000001  0.41804  0.10494  1.0000
  H   H4        1.0  0.19445  0.35646  0.025280000000000007  1.0000
  H   H5        1.0  0.3349600000000001  0.39005  0.8103300000000002  1.0000
  H   H6        1.0  0.56651  0.31683  0.94085  1.0000
  H   H7        1.0  0.13964  0.32635000000000003  0.93162  1.0000
  H   H8        1.0  0.27743  0.83759  0.25373  1.0000
  H   H9        1.0  0.14582  0.69246  0.3601100000000001  1.0000
  H   H10       1.0  0.23830000000000007  0.92046  0.39556000000000013  1.0000
  H   H11       1.0  0.30403  0.85876  0.47481  1.0000
  H   H12       1.0  0.1709200000000001  0.8880999999999999  0.6913600000000002  1.0000
  H   H13       1.0  0.9370900000000002  0.81464  0.5607900000000002  1.0000
  H   H14       1.0  0.36308  0.82946  0.56804  1.0000
  H   H15       1.0  0.78757  0.66499  0.75337  1.0000
  H   H16       1.0  0.63939  0.80576  0.85934  1.0000
  H   H17       1.0  0.74818  0.58026  0.8941800000000002  1.0000
  H   H18       1.0  0.8048000000000002  0.64007  0.9731500000000002  1.0000
  H   H19       1.0  0.6753  0.61162  0.19011000000000006  1.0000
  H   H20       1.0  0.43716  0.68091  0.06011  1.0000
  H   H21       1.0  0.86329  0.66849  0.06581  1.0000
  H   H22       1.0  0.7208600000000001  0.1654  0.74582  1.0000
  H   H23       1.0  0.85612  0.30856  0.63914  1.0000
  H   H24       1.0  0.7653  0.08007  0.605  1.0000
  H   H25       1.0  0.6954100000000001  0.1429  0.5257000000000002  1.0000
  H   H26       1.0  0.8289000000000002  0.11131999999999999  0.3089800000000001  1.0000
  H   H27       1.0  0.06284000000000002  0.18493  0.43944  1.0000
  H   H28       1.0  0.6368100000000001  0.16969  0.43233  1.0000
  C   C1        1.0  0.19281000000000006  0.45931  0.19001  1.0000
  C   C2        1.0  0.2316  0.38376  0.17662  1.0000
  C   C3        1.0  0.24317000000000005  0.3264  0.21025  1.0000
  C   C4        1.0  0.28817000000000004  0.25716  0.19681000000000007  1.0000
  C   C5        1.0  0.31801  0.24467  0.1499  1.0000
  C   C6        1.0  0.3036400000000001  0.30215  0.11661000000000003  1.0000
  C   C7        1.0  0.26241  0.37194  0.12985  1.0000
  C   C8        1.0  0.28243000000000007  0.32244  0.027540000000000005  1.0000
  C   C9        1.0  0.3544  0.32048  0.94285  1.0000
  C   C10       1.0  0.58541  0.36504  0.8500000000000002  1.0000
  C   C11       1.0  0.4625900000000001  0.35372  0.87312  1.0000
  C   C12       1.0  0.3392900000000001  0.36994  0.8469900000000002  1.0000
  C   C13       1.0  0.47016  0.32873  0.92071  1.0000
  C   C14       1.0  0.30935  0.19621  0.23222  1.0000
  C   C15       1.0  0.09131000000000013  0.37347  0.8412300000000003  1.0000
  C   C16       1.0  0.2233300000000001  0.35929  0.8683300000000003  1.0000
  C   C17       1.0  0.2311300000000001  0.33464  0.9160200000000001  1.0000
  C   C18       1.0  0.36272000000000004  0.3003  0.99376  1.0000
  C   C19       1.0  0.30327  0.9616700000000001  0.31094  1.0000
  C   C20       1.0  0.26454  0.8859099999999999  0.32386  1.0000
  C   C21       1.0  0.2539600000000001  0.82817  0.29001  1.0000
  C   C22       1.0  0.20975  0.75863  0.30313  1.0000
  C   C23       1.0  0.17999000000000004  0.74638  0.35003  1.0000
  C   C24       1.0  0.19324000000000002  0.80416  0.3834600000000001  1.0000
  C   C25       1.0  0.23349000000000003  0.87417  0.37052  1.0000
  C   C26       1.0  0.2165400000000001  0.82423  0.4726100000000001  1.0000
  C   C27       1.0  0.14843  0.82081  0.5578  1.0000
  C   C28       1.0  0.91844  0.86177  0.65122  1.0000
  C   C29       1.0  0.04199999999999999  0.85137  0.62853  1.0000
  C   C30       1.0  0.16545000000000015  0.86858  0.6544100000000003  1.0000
  C   C31       1.0  0.03368000000000004  0.82718  0.58063  1.0000
  C   C32       1.0  0.18830000000000005  0.69679  0.26777000000000006  1.0000
  C   C33       1.0  0.4132900000000002  0.87502  0.6588400000000002  1.0000
  C   C34       1.0  0.28065  0.85989  0.63227  1.0000
  C   C35       1.0  0.2720400000000001  0.83609  0.5842200000000002  1.0000
  C   C36       1.0  0.1379400000000001  0.8014  0.5066400000000001  1.0000
  C   C37       1.0  0.81831  0.54093  0.80976  1.0000
  C   C38       1.0  0.7751100000000001  0.61578  0.8229300000000003  1.0000
  C   C39       1.0  0.76176  0.67343  0.78946  1.0000
  C   C40       1.0  0.71153  0.74166  0.80266  1.0000
  C   C41       1.0  0.6783000000000002  0.75285  0.8492700000000002  1.0000
  C   C42       1.0  0.69443  0.6951  0.8823700000000002  1.0000
  C   C43       1.0  0.7407500000000004  0.62642  0.8693100000000002  1.0000
  C   C44       1.0  0.7163200000000003  0.67357  0.9711500000000002  1.0000
  C   C45       1.0  0.6483700000000001  0.67561  0.05627000000000001  1.0000
  C   C46       1.0  0.42178  0.63686  0.15094  1.0000
  C   C47       1.0  0.54441  0.64608  0.12751  1.0000
  C   C48       1.0  0.6685700000000002  0.63014  0.15304000000000004  1.0000
  C   C49       1.0  0.53442  0.669  0.07951  1.0000
  C   C50       1.0  0.6887300000000001  0.8032  0.7675600000000002  1.0000
  C   C51       1.0  0.91551  0.62467  0.15722000000000005  1.0000
  C   C52       1.0  0.78302  0.63899  0.13050000000000003  1.0000
  C   C53       1.0  0.77288  0.66168  0.08234  1.0000
  C   C54       1.0  0.63642  0.69476  0.00522  1.0000
  C   C55       1.0  0.69423  0.04032  0.6887  1.0000
  C   C56       1.0  0.7359100000000001  0.11566999999999998  0.67615  1.0000
  C   C57       1.0  0.7457700000000002  0.17385  0.70964  1.0000
  C   C58       1.0  0.7909100000000002  0.24305999999999997  0.69624  1.0000
  C   C59       1.0  0.8221  0.25474  0.6495100000000003  1.0000
  C   C60       1.0  0.8096400000000001  0.19646  0.61656  1.0000
  C   C61       1.0  0.7691800000000003  0.12669  0.6297400000000002  1.0000
  C   C62       1.0  0.7842900000000002  0.17629  0.5276400000000001  1.0000
  C   C63       1.0  0.85155  0.17842  0.4424300000000001  1.0000
  C   C64       1.0  0.0815  0.13872  0.34919  1.0000
  C   C65       1.0  0.95785  0.14805  0.3718300000000001  1.0000
  C   C66       1.0  0.8344500000000001  0.1308  0.34593  1.0000
  C   C67       1.0  0.96625  0.17215  0.4196500000000001  1.0000
  C   C68       1.0  0.81155  0.30524  0.7311900000000001  1.0000
  C   C69       1.0  0.58683  0.12494999999999999  0.34124  1.0000
  C   C70       1.0  0.7192600000000002  0.1395  0.3680400000000001  1.0000
  C   C71       1.0  0.7278300000000001  0.16309  0.4161300000000001  1.0000
  C   C72       1.0  0.86315  0.19802  0.4934800000000001  1.0000
  N   N1        1.0  0.3370400000000001  0.29073  0.06945000000000001  1.0000
  N   N2        1.0  0.44760000000000005  0.25017  0.062160000000000014  1.0000
  N   N3        1.0  0.4620000000000001  0.25654  0.016620000000000006  1.0000
  N   N4        1.0  0.16039000000000003  0.79272  0.43061000000000005  1.0000
  N   N5        1.0  0.05038  0.75171  0.43808  1.0000
  N   N6        1.0  0.03789000000000002  0.75759  0.4838400000000001  1.0000
  N   N7        1.0  0.6595900000000001  0.70496  0.9294100000000002  1.0000
  N   N8        1.0  0.5479100000000001  0.74415  0.93709  1.0000
  N   N9        1.0  0.53488  0.73738  0.9827300000000002  1.0000
  N   N10       1.0  0.84242  0.20728  0.56947  1.0000
  N   N11       1.0  0.95376  0.24685  0.5618700000000001  1.0000
  N   N12       1.0  0.9653  0.24065  0.51605  1.0000
  O   O1        1.0  0.69857  0.34668  0.87388  1.0000
  O   O2        1.0  0.58167  0.39233  0.80838  1.0000
  O   O3        1.0  0.20606000000000002  0.51191  0.1612  1.0000
  O   O4        1.0  0.14618000000000003  0.46758  0.23066000000000003  1.0000
  O   O5        1.0  0.28849  0.20586  0.27547  1.0000
  O   O6        1.0  0.35369  0.13484  0.21622000000000005  1.0000
  O   O7        1.0  0.08633999999999997  0.40433  0.79909  1.0000
  O   O8        1.0  0.98774  0.35567  0.8594200000000002  1.0000
  O   O9        1.0  0.80631  0.84413  0.6262800000000002  1.0000
  O   O10       1.0  0.91993  0.8885899999999999  0.69312  1.0000
  O   O11       1.0  0.29402000000000006  0.014239999999999997  0.34044  1.0000
  O   O12       1.0  0.34663  0.96998  0.2697  1.0000
  O   O13       1.0  0.21316  0.70429  0.22486000000000006  1.0000
  O   O14       1.0  0.13930000000000003  0.63674  0.28359  1.0000
  O   O15       1.0  0.42007  0.9079  0.7005000000000001  1.0000
  O   O16       1.0  0.5160500000000001  0.85584  0.6405400000000002  1.0000
  O   O17       1.0  0.30921  0.65509  0.12649  1.0000
  O   O18       1.0  0.4246500000000001  0.61113  0.19293  1.0000
  O   O19       1.0  0.80652  0.48828999999999995  0.8386800000000002  1.0000
  O   O20       1.0  0.8663700000000001  0.53296  0.7693600000000003  1.0000
  O   O21       1.0  0.7128600000000003  0.79529  0.7245500000000002  1.0000
  O   O22       1.0  0.6397600000000001  0.86339  0.78349  1.0000
  O   O23       1.0  0.9207600000000001  0.59232  0.19889000000000007  1.0000
  O   O24       1.0  0.018789999999999998  0.64372  0.13925  1.0000
  O   O25       1.0  0.19362000000000001  0.15562  0.3744300000000001  1.0000
  O   O26       1.0  0.08026000000000001  0.11411999999999999  0.3068  1.0000
  O   O27       1.0  0.70593  0.98756  0.65958  1.0000
  O   O28       1.0  0.6463100000000002  0.03254  0.7291000000000001  1.0000
  O   O29       1.0  0.7927  0.29654  0.77468  1.0000
  O   O30       1.0  0.8541800000000002  0.36647  0.7145500000000002  1.0000
  O   O31       1.0  0.5800900000000001  0.0922  0.2995000000000001  1.0000
  O   O32       1.0  0.48439000000000004  0.14462  0.35946  1.0000
