data_image0
_chemical_formula_structural       Cu4H48C44N4O16
_chemical_formula_sum              "Cu4 H48 C44 N4 O16"
_cell_length_a       8.62933
_cell_length_b       13.21682
_cell_length_c       14.31035
_cell_angle_alpha    117.56585
_cell_angle_beta     93.92599000000001
_cell_angle_gamma    89.58666

_space_group_name_H-M_alt    "P 1"
_space_group_IT_number       1

loop_
  _space_group_symop_operation_xyz
  'x, y, z'

loop_
  _atom_site_type_symbol
  _atom_site_label
  _atom_site_symmetry_multiplicity
  _atom_site_fract_x
  _atom_site_fract_y
  _atom_site_fract_z
  _atom_site_occupancy
  Cu  Cu1       1.0  0.94099  0.4132700000000001  0.41610000000000014  1.0000
  Cu  Cu2       1.0  0.55887  0.99626  0.58394  1.0000
  Cu  Cu3       1.0  0.05901  0.58672  0.5839  1.0000
  Cu  Cu4       1.0  0.44114  0.003729999999999997  0.41606  1.0000
  H   H1        1.0  0.50933  0.58843  0.62118  1.0000
  H   H2        1.0  0.6187800000000001  0.5830200000000001  0.7277800000000001  1.0000
  H   H3        1.0  0.41079  0.42803  0.64487  1.0000
  H   H4        1.0  0.48806  0.37792000000000003  0.52099  1.0000
  H   H5        1.0  0.7404499999999998  0.33753  0.59446  1.0000
  H   H6        1.0  0.6576999999999998  0.37323  0.71526  1.0000
  H   H7        1.0  0.77233  0.37291000000000013  0.20577  1.0000
  H   H8        1.0  0.57339  0.23868000000000003  0.06944  1.0000
  H   H9        1.0  0.6185699999999998  0.027770000000000013  0.22710000000000002  1.0000
  H   H10       1.0  0.81409  0.16932000000000008  0.3544600000000001  1.0000
  H   H11       1.0  0.4129799999999999  0.98133  0.08166  1.0000
  H   H12       1.0  0.36706  0.08413  0.03879  1.0000
  H   H13       1.0  0.98974  0.96682  0.3789100000000001  1.0000
  H   H14       1.0  0.8813299999999997  0.85513  0.27225  1.0000
  H   H15       1.0  0.08955  0.78168  0.35563000000000006  1.0000
  H   H16       1.0  0.011870000000000009  0.85681  0.47939000000000004  1.0000
  H   H17       1.0  0.7594099999999998  0.7453800000000002  0.40566  1.0000
  H   H18       1.0  0.84226  0.65899  0.28512  1.0000
  H   H19       1.0  0.72535  0.16688000000000006  0.793  1.0000
  H   H20       1.0  0.9254200000000001  0.16897000000000006  0.9296  1.0000
  H   H21       1.0  0.88302  0.80052  0.77369  1.0000
  H   H22       1.0  0.68619  0.8148200000000003  0.6461500000000002  1.0000
  H   H23       1.0  0.0883  0.8992500000000003  0.9189200000000001  1.0000
  H   H24       1.0  0.13267  0.04471000000000003  0.96158  1.0000
  H   H25       1.0  0.49066  0.41155  0.37881  1.0000
  H   H26       1.0  0.38121  0.41697  0.27222  1.0000
  H   H27       1.0  0.5891999999999997  0.57196  0.3551300000000001  1.0000
  H   H28       1.0  0.51194  0.62206  0.47901  1.0000
  H   H29       1.0  0.2595499999999999  0.6624700000000001  0.4055500000000001  1.0000
  H   H30       1.0  0.34229999999999994  0.6267700000000002  0.28475  1.0000
  H   H31       1.0  0.2276700000000001  0.6270900000000001  0.7942200000000001  1.0000
  H   H32       1.0  0.4265999999999999  0.7613200000000001  0.9305600000000003  1.0000
  H   H33       1.0  0.38142999999999994  0.97222  0.7729000000000001  1.0000
  H   H34       1.0  0.18591  0.8306800000000001  0.64554  1.0000
  H   H35       1.0  0.58701  0.018670000000000117  0.9183400000000003  1.0000
  H   H36       1.0  0.63294  0.9158600000000003  0.9612100000000002  1.0000
  H   H37       1.0  0.01025000000000001  0.03317999999999994  0.62109  1.0000
  H   H38       1.0  0.11867000000000003  0.14486000000000004  0.7277400000000002  1.0000
  H   H39       1.0  0.91045  0.21832  0.64437  1.0000
  H   H40       1.0  0.9881199999999999  0.14319  0.52061  1.0000
  H   H41       1.0  0.24059  0.25462  0.59434  1.0000
  H   H42       1.0  0.15773  0.3410100000000001  0.7148900000000001  1.0000
  H   H43       1.0  0.27464  0.83311  0.207  1.0000
  H   H44       1.0  0.07457  0.83102  0.07040000000000002  1.0000
  H   H45       1.0  0.11698  0.19948  0.22631  1.0000
  H   H46       1.0  0.3138  0.18517000000000003  0.35385  1.0000
  H   H47       1.0  0.9116999999999997  0.10075000000000002  0.08108  1.0000
  H   H48       1.0  0.86733  0.95529  0.03842  1.0000
  C   C1        1.0  0.7422799999999998  0.53271  0.58977  1.0000
  C   C2        1.0  0.5929  0.53719  0.64187  1.0000
  C   C3        1.0  0.51953  0.41828  0.60618  1.0000
  C   C4        1.0  0.63006  0.3404300000000001  0.63006  1.0000
  C   C5        1.0  0.57506  0.21663  0.58337  1.0000
  C   C6        1.0  0.73601  0.2941400000000001  0.20565000000000005  1.0000
  C   C7        1.0  0.62491  0.21951  0.13088  1.0000
  C   C8        1.0  0.5796299999999999  0.12019  0.13525  1.0000
  C   C9        1.0  0.64922  0.10176  0.21713  1.0000
  C   C10       1.0  0.75928  0.18091  0.28937  1.0000
  C   C11       1.0  0.46325999999999984  0.03685000000000001  0.05292000000000001  1.0000
  C   C12       1.0  0.75752  0.9435300000000001  0.4101900000000001  1.0000
  C   C13       1.0  0.90711  0.89514  0.35818  1.0000
  C   C14       1.0  0.9807499999999999  0.8116600000000003  0.39417  1.0000
  C   C15       1.0  0.8698099999999999  0.71112  0.3703300000000001  1.0000
  C   C16       1.0  0.9235199999999997  0.6334200000000001  0.41715  1.0000
  C   C17       1.0  0.7627099999999998  0.08839000000000016  0.7936600000000001  1.0000
  C   C18       1.0  0.87431  0.08842  0.86849  1.0000
  C   C19       1.0  0.9206300000000001  0.98474  0.86464  1.0000
  C   C20       1.0  0.85153  0.8844400000000002  0.78319  1.0000
  C   C21       1.0  0.7409  0.8914000000000002  0.7108700000000001  1.0000
  C   C22       1.0  0.03707000000000003  0.9836700000000002  0.9472600000000002  1.0000
  C   C23       1.0  0.25769  0.46725  0.4102  1.0000
  C   C24       1.0  0.4070899999999999  0.4628  0.35813  1.0000
  C   C25       1.0  0.48045999999999994  0.58171  0.39381000000000005  1.0000
  C   C26       1.0  0.36994  0.65957  0.36994  1.0000
  C   C27       1.0  0.4249499999999999  0.78337  0.4166300000000001  1.0000
  C   C28       1.0  0.26399  0.7058500000000001  0.79435  1.0000
  C   C29       1.0  0.37509  0.7804800000000001  0.86912  1.0000
  C   C30       1.0  0.42036  0.8798100000000001  0.8647500000000002  1.0000
  C   C31       1.0  0.3507699999999999  0.89823  0.78287  1.0000
  C   C32       1.0  0.24071999999999996  0.81909  0.71063  1.0000
  C   C33       1.0  0.53674  0.9631400000000001  0.9470800000000003  1.0000
  C   C34       1.0  0.24245  0.05646  0.58977  1.0000
  C   C35       1.0  0.09289000000000003  0.10486000000000013  0.6418100000000002  1.0000
  C   C36       1.0  0.01924999999999999  0.18834  0.60582  1.0000
  C   C37       1.0  0.13018  0.28888  0.62967  1.0000
  C   C38       1.0  0.07646999999999997  0.36656  0.58284  1.0000
  C   C39       1.0  0.23729000000000003  0.9116  0.20634000000000005  1.0000
  C   C40       1.0  0.12568  0.91157  0.1315  1.0000
  C   C41       1.0  0.07937  0.015250000000000012  0.13536  1.0000
  C   C42       1.0  0.14845999999999995  0.11555  0.21681  1.0000
  C   C43       1.0  0.25909  0.10860000000000003  0.28914  1.0000
  C   C44       1.0  0.96293  0.01632  0.05274  1.0000
  N   N1        1.0  0.8039299999999998  0.27539  0.28385  1.0000
  N   N2        1.0  0.6954  0.9913900000000002  0.7158500000000001  1.0000
  N   N3        1.0  0.19607000000000002  0.7246  0.71615  1.0000
  N   N4        1.0  0.3045899999999999  0.008600000000000003  0.28415  1.0000
  O   O1        1.0  0.74903  0.45424  0.4952  1.0000
  O   O2        1.0  0.85078  0.60608  0.64405  1.0000
  O   O3        1.0  0.60603  0.16587  0.63946  1.0000
  O   O4        1.0  0.50681  0.17129000000000003  0.49064  1.0000
  O   O5        1.0  0.75069  0.95933  0.50468  1.0000
  O   O6        1.0  0.6490899999999997  0.9634600000000002  0.35593  1.0000
  O   O7        1.0  0.89066  0.52691  0.36139  1.0000
  O   O8        1.0  0.9927099999999999  0.68008  0.50962  1.0000
  O   O9        1.0  0.25097  0.54577  0.50482  1.0000
  O   O10       1.0  0.14923000000000003  0.39392000000000005  0.3559600000000001  1.0000
  O   O11       1.0  0.3940699999999998  0.83411  0.36054  1.0000
  O   O12       1.0  0.49319  0.82871  0.50938  1.0000
  O   O13       1.0  0.24930999999999998  0.04066000000000003  0.49533000000000005  1.0000
  O   O14       1.0  0.35093  0.03653000000000005  0.6440700000000001  1.0000
  O   O15       1.0  0.10933  0.47311000000000014  0.6386300000000003  1.0000
  O   O16       1.0  0.007290000000000011  0.31993  0.4904000000000001  1.0000
