data_image0
_chemical_formula_structural       Co3H32C52N10O16
_chemical_formula_sum              "Co3 H32 C52 N10 O16"
_cell_length_a       10.02161
_cell_length_b       11.23793
_cell_length_c       13.928109999999998
_cell_angle_alpha    89.15019999999998
_cell_angle_beta     87.0451
_cell_angle_gamma    66.94181

_symmetry_space_group_name_H-M    'P 1'
_symmetry_Int_Tables_number       1

loop_
  _symmetry_equiv_pos_as_xyz
  'x,y,z'

loop_
  _atom_site_type_symbol
  _atom_site_label
  _atom_site_symmetry_multiplicity
  _atom_site_fract_x
  _atom_site_fract_y
  _atom_site_fract_z
  _atom_site_occupancy
  Co  Co1       1.0  0.81378  0.06553  0.41504000000000013  1.0000
  Co  Co2       1.0  0.18484999999999996  0.93523  0.58479  1.0000
  Co  Co3       1.0  0.9979899999999998  0.50035  0.99924  1.0000
  H   H1        1.0  0.6135  0.96642  0.58521  1.0000
  H   H2        1.0  0.56531  0.7105900000000002  0.80558  1.0000
  H   H3        1.0  0.9696699999999999  0.75958  0.7633200000000001  1.0000
  H   H4        1.0  0.07223999999999998  0.21869000000000002  0.97312  1.0000
  H   H5        1.0  0.26244  0.025710000000000004  0.88656  1.0000
  H   H6        1.0  0.44485  0.06194  0.77498  1.0000
  H   H7        1.0  0.23062999999999995  0.47114000000000006  0.8367300000000002  1.0000
  H   H8        1.0  0.5888  0.19137  0.56269  1.0000
  H   H9        1.0  0.83167  0.33713  0.39121  1.0000
  H   H10       1.0  0.57711  0.56889  0.63323  1.0000
  H   H11       1.0  0.07788  0.50925  0.28729  1.0000
  H   H12       1.0  0.16298000000000004  0.66822  0.20873  1.0000
  H   H13       1.0  0.04788000000000003  0.90205  0.26366  1.0000
  H   H14       1.0  0.7681800000000001  0.82257  0.45884  1.0000
  H   H15       1.0  0.52445  0.19964000000000004  0.69844  1.0000
  H   H16       1.0  0.9299999999999999  0.46675  0.4021100000000001  1.0000
  H   H17       1.0  0.38592  0.03482  0.41403  1.0000
  H   H18       1.0  0.43312  0.28996  0.19257000000000002  1.0000
  H   H19       1.0  0.02928999999999998  0.2407  0.23584  1.0000
  H   H20       1.0  0.92633  0.7815300000000001  0.02567  1.0000
  H   H21       1.0  0.73822  0.97431  0.11419  1.0000
  H   H22       1.0  0.5562899999999998  0.9378400000000001  0.22598  1.0000
  H   H23       1.0  0.7680199999999999  0.52912  0.16207  1.0000
  H   H24       1.0  0.40968  0.8096  0.43672000000000005  1.0000
  H   H25       1.0  0.16742999999999997  0.66367  0.60849  1.0000
  H   H26       1.0  0.42264  0.4313600000000001  0.36691  1.0000
  H   H27       1.0  0.9217899999999999  0.49110000000000004  0.71251  1.0000
  H   H28       1.0  0.83604  0.33221  0.7907200000000002  1.0000
  H   H29       1.0  0.95102  0.09848000000000001  0.7356  1.0000
  H   H30       1.0  0.23078000000000004  0.17794  0.54048  1.0000
  H   H31       1.0  0.47559  0.80052  0.30153  1.0000
  H   H32       1.0  0.06970000000000003  0.53357  0.5978  1.0000
  C   C1        1.0  0.89657  0.92699  0.61677  1.0000
  C   C2        1.0  0.80155  0.87131  0.66927  1.0000
  C   C3        1.0  0.6586200000000002  0.90158  0.6447  1.0000
  C   C4        1.0  0.5729499999999998  0.84504  0.6942000000000002  1.0000
  C   C5        1.0  0.4218699999999999  0.88085  0.6628100000000001  1.0000
  C   C6        1.0  0.63129  0.75561  0.7678500000000001  1.0000
  C   C7        1.0  0.7757700000000001  0.72436  0.79168  1.0000
  C   C8        1.0  0.8507600000000001  0.63048  0.86787  1.0000
  C   C9        1.0  0.8590000000000002  0.78326  0.7429700000000001  1.0000
  C   C10       1.0  0.15271999999999997  0.22895  0.9219900000000001  1.0000
  C   C11       1.0  0.25879  0.12287  0.87491  1.0000
  C   C12       1.0  0.35977999999999993  0.14311  0.81201  1.0000
  C   C13       1.0  0.3514  0.26938  0.79595  1.0000
  C   C14       1.0  0.24162000000000003  0.3718  0.84615  1.0000
  C   C15       1.0  0.46411  0.39679  0.69562  1.0000
  C   C16       1.0  0.57435  0.37927  0.61387  1.0000
  C   C17       1.0  0.62552  0.27017  0.55391  1.0000
  C   C18       1.0  0.7614099999999999  0.35315  0.4561  1.0000
  C   C19       1.0  0.71411  0.46723  0.51049  1.0000
  C   C20       1.0  0.6190599999999999  0.48001000000000005  0.5908  1.0000
  C   C21       1.0  0.7475099999999999  0.58213  0.48195000000000005  1.0000
  C   C22       1.0  0.91671  0.65263  0.38042  1.0000
  C   C23       1.0  0.029529999999999987  0.61047  0.30911  1.0000
  C   C24       1.0  0.07781000000000003  0.69954  0.26569  1.0000
  C   C25       1.0  0.014539999999999945  0.8284100000000001  0.29543  1.0000
  C   C26       1.0  0.8576400000000001  0.7843700000000001  0.40591  1.0000
  C   C27       1.0  0.10337999999999997  0.07356  0.3833  1.0000
  C   C28       1.0  0.19755  0.12947  0.33017  1.0000
  C   C29       1.0  0.34055  0.09937  0.35441  1.0000
  C   C30       1.0  0.42604999999999993  0.15565  0.30446  1.0000
  C   C31       1.0  0.57751  0.11947  0.33534  1.0000
  C   C32       1.0  0.36736  0.24502  0.23072  1.0000
  C   C33       1.0  0.22269  0.27611  0.20717  1.0000
  C   C34       1.0  0.14692  0.37016000000000004  0.13102  1.0000
  C   C35       1.0  0.13982  0.21726  0.25636  1.0000
  C   C36       1.0  0.8463400000000001  0.77135  0.07728000000000002  1.0000
  C   C37       1.0  0.74126  0.87724  0.12518  1.0000
  C   C38       1.0  0.64057  0.85687  0.18826  1.0000
  C   C39       1.0  0.64826  0.73072  0.20381  1.0000
  C   C40       1.0  0.75728  0.62844  0.15306  1.0000
  C   C41       1.0  0.5356600000000001  0.60341  0.30435  1.0000
  C   C42       1.0  0.42518999999999996  0.62111  0.38601  1.0000
  C   C43       1.0  0.37335  0.73056  0.44561  1.0000
  C   C44       1.0  0.2376199999999999  0.6475000000000001  0.54354  1.0000
  C   C45       1.0  0.28539999999999993  0.5331400000000001  0.48944  1.0000
  C   C46       1.0  0.38058999999999993  0.5203400000000001  0.4092  1.0000
  C   C47       1.0  0.25216  0.41818  0.51799  1.0000
  C   C48       1.0  0.08263  0.34777  0.61923  1.0000
  C   C49       1.0  0.96983  0.38994000000000006  0.6905500000000002  1.0000
  C   C50       1.0  0.92128  0.30096  0.7338000000000001  1.0000
  C   C51       1.0  0.98443  0.17215  0.70397  1.0000
  C   C52       1.0  0.14148000000000002  0.21612  0.59353  1.0000
  N   N1        1.0  0.14536999999999997  0.35044  0.9082700000000001  1.0000
  N   N2        1.0  0.4539500000000001  0.28397  0.7290400000000001  1.0000
  N   N3        1.0  0.71904  0.25583  0.4779000000000001  1.0000
  N   N4        1.0  0.8694599999999998  0.55979  0.42231  1.0000
  N   N5        1.0  0.9072199999999998  0.86976  0.36467  1.0000
  N   N6        1.0  0.8530800000000001  0.64999  0.09066000000000002  1.0000
  N   N7        1.0  0.5459099999999999  0.71617  0.27089  1.0000
  N   N8        1.0  0.27945999999999993  0.74502  0.52143  1.0000
  N   N9        1.0  0.13012  0.44054  0.57753  1.0000
  N   N10       1.0  0.09178000000000001  0.1308  0.63473  1.0000
  O   O1        1.0  0.8443099999999999  0.01068  0.55184  1.0000
  O   O2        1.0  0.027480000000000022  0.88683  0.64255  1.0000
  O   O3        1.0  0.97418  0.63018  0.89155  1.0000
  O   O4        1.0  0.8003700000000001  0.55364  0.90766  1.0000
  O   O5        1.0  0.38758  0.9463300000000001  0.58472  1.0000
  O   O6        1.0  0.3295999999999999  0.8486200000000002  0.7099000000000002  1.0000
  O   O7        1.0  0.66635  0.69144  0.51001  1.0000
  O   O8        1.0  0.38674  0.50473  0.7280400000000001  1.0000
  O   O9        1.0  0.15731999999999996  0.98958  0.44776  1.0000
  O   O10       1.0  0.97194  0.11392000000000001  0.3584900000000001  1.0000
  O   O11       1.0  0.02355  0.37019  0.10730000000000002  1.0000
  O   O12       1.0  0.19695999999999997  0.44721  0.09126  1.0000
  O   O13       1.0  0.61188  0.05461  0.4139  1.0000
  O   O14       1.0  0.66958  0.15089  0.28729  1.0000
  O   O15       1.0  0.33342  0.3088  0.48998  1.0000
  O   O16       1.0  0.61304  0.49543  0.27198  1.0000
