data_image0
_chemical_formula_structural       K4Gd4H24C64O36
_chemical_formula_sum              "K4 Gd4 H24 C64 O36"
_cell_length_a       10.99714
_cell_length_b       12.70703
_cell_length_c       15.86119
_cell_angle_alpha    101.53125999999999
_cell_angle_beta     105.73291
_cell_angle_gamma    95.39065

_symmetry_space_group_name_H-M    'P 1'
_symmetry_Int_Tables_number       1

loop_
  _symmetry_equiv_pos_as_xyz
  'x,y,z'

loop_
  _atom_site_type_symbol
  _atom_site_label
  _atom_site_symmetry_multiplicity
  _atom_site_fract_x
  _atom_site_fract_y
  _atom_site_fract_z
  _atom_site_occupancy
  K   K1        1.0  0.7816499999999997  0.01912999999999998  0.4421799999999999  1.0000
  K   K2        1.0  0.26998  0.48908000000000007  0.93612  1.0000
  K   K3        1.0  0.21836  0.9808700000000001  0.55782  1.0000
  K   K4        1.0  0.7300299999999997  0.51092  0.06388  1.0000
  Gd  Gd1       1.0  0.051069999999999977  0.23038  0.6287  1.0000
  Gd  Gd2       1.0  0.4923699999999999  0.7315400000000001  0.11720999999999997  1.0000
  Gd  Gd3       1.0  0.94893  0.76962  0.37131  1.0000
  Gd  Gd4       1.0  0.50763  0.26846  0.8828  1.0000
  H   H1        1.0  0.9222899999999999  0.028579999999999984  0.81416  1.0000
  H   H2        1.0  0.88605  0.65047  0.63797  1.0000
  H   H3        1.0  0.85303  0.6838000000000001  0.79109  1.0000
  H   H4        1.0  0.08999999999999991  0.81943  0.92575  1.0000
  H   H5        1.0  0.07144  0.73369  0.17266  1.0000
  H   H6        1.0  0.7483599999999999  0.84187  0.00831  1.0000
  H   H7        1.0  0.43712999999999974  0.5241  0.3151599999999999  1.0000
  H   H8        1.0  0.46826999999999996  0.15317  0.15707  1.0000
  H   H9        1.0  0.4374999999999999  0.18481999999999998  0.3108599999999999  1.0000
  H   H10       1.0  0.65744  0.35000999999999993  0.4470899999999999  1.0000
  H   H11       1.0  0.64593  0.24476000000000006  0.6877799999999998  1.0000
  H   H12       1.0  0.30217999999999995  0.31309  0.51239  1.0000
  H   H13       1.0  0.07771  0.97142  0.18584  1.0000
  H   H14       1.0  0.11396000000000002  0.34953  0.36203  1.0000
  H   H15       1.0  0.14697  0.3162  0.20891  1.0000
  H   H16       1.0  0.9100099999999999  0.18057  0.07426  1.0000
  H   H17       1.0  0.9285699999999998  0.26631  0.82734  1.0000
  H   H18       1.0  0.25164999999999993  0.15813  0.9916899999999998  1.0000
  H   H19       1.0  0.5628700000000001  0.47590000000000005  0.68484  1.0000
  H   H20       1.0  0.53174  0.84683  0.84293  1.0000
  H   H21       1.0  0.5625  0.81518  0.6891399999999998  1.0000
  H   H22       1.0  0.34256  0.64999  0.55291  1.0000
  H   H23       1.0  0.35406999999999994  0.75524  0.3122299999999999  1.0000
  H   H24       1.0  0.6978199999999997  0.68691  0.48761  1.0000
  C   C1        1.0  0.8857799999999999  0.85843  0.80998  1.0000
  C   C2        1.0  0.9160799999999998  0.9464500000000001  0.77515  1.0000
  C   C3        1.0  0.9377199999999999  0.9275000000000002  0.69102  1.0000
  C   C4        1.0  0.9259099999999998  0.8201399999999999  0.6409499999999998  1.0000
  C   C5        1.0  0.8965699999999998  0.73285  0.6780199999999997  1.0000
  C   C6        1.0  0.8775899999999999  0.7511  0.76272  1.0000
  C   C7        1.0  0.9763699999999998  0.025759999999999967  0.6595499999999999  1.0000
  C   C8        1.0  0.937  0.79951  0.54808  1.0000
  C   C9        1.0  0.91341  0.83624  0.95979  1.0000
  C   C10       1.0  0.03695000000000003  0.81018  0.97327  1.0000
  C   C11       1.0  0.09431  0.77539  0.05101999999999999  1.0000
  C   C12       1.0  0.026969999999999997  0.76111  0.11237  1.0000
  C   C13       1.0  0.9005899999999999  0.7823600000000002  0.09514  1.0000
  C   C14       1.0  0.8447699999999999  0.82233  0.019849999999999993  1.0000
  C   C15       1.0  0.23082999999999995  0.75782  0.06903  1.0000
  C   C16       1.0  0.8207599999999999  0.75988  0.15458  1.0000
  C   C17       1.0  0.43744999999999995  0.35708  0.32139  1.0000
  C   C18       1.0  0.44507  0.44353  0.28003  1.0000
  C   C19       1.0  0.4634799999999999  0.42577  0.19494  1.0000
  C   C20       1.0  0.47233  0.32036  0.15022999999999997  1.0000
  C   C21       1.0  0.46353999999999995  0.23437  0.19310999999999998  1.0000
  C   C22       1.0  0.44678999999999996  0.25174  0.27853  1.0000
  C   C23       1.0  0.4759499999999999  0.52476  0.15773  1.0000
  C   C24       1.0  0.48701  0.29955  0.05818  1.0000
  C   C25       1.0  0.47403  0.33797  0.47329  1.0000
  C   C26       1.0  0.6040399999999999  0.3306100000000001  0.4920099999999999  1.0000
  C   C27       1.0  0.66588  0.29859  0.57024  1.0000
  C   C28       1.0  0.5978999999999998  0.27062999999999987  0.6274999999999997  1.0000
  C   C29       1.0  0.46561  0.27253  0.60466  1.0000
  C   C30       1.0  0.40375999999999995  0.30809000000000003  0.52823  1.0000
  C   C31       1.0  0.8038999999999997  0.2874  0.58746  1.0000
  C   C32       1.0  0.38842  0.23259  0.66005  1.0000
  C   C33       1.0  0.11422999999999998  0.14157  0.19001999999999994  1.0000
  C   C34       1.0  0.08391999999999997  0.05355  0.22485  1.0000
  C   C35       1.0  0.06228999999999998  0.0725  0.30898  1.0000
  C   C36       1.0  0.07408999999999995  0.17985999999999996  0.35904999999999987  1.0000
  C   C37       1.0  0.10344  0.26715  0.32199  1.0000
  C   C38       1.0  0.12241999999999996  0.2489  0.23727999999999994  1.0000
  C   C39       1.0  0.02364000000000003  0.9742400000000002  0.34045  1.0000
  C   C40       1.0  0.06299999999999996  0.20049  0.45192  1.0000
  C   C41       1.0  0.08658999999999999  0.16376  0.040209999999999996  1.0000
  C   C42       1.0  0.9630499999999999  0.18982  0.02673  1.0000
  C   C43       1.0  0.9056899999999998  0.22460999999999995  0.9489799999999998  1.0000
  C   C44       1.0  0.9730299999999998  0.23889000000000002  0.88763  1.0000
  C   C45       1.0  0.09942  0.21764000000000003  0.90487  1.0000
  C   C46       1.0  0.15522999999999992  0.17767000000000005  0.98015  1.0000
  C   C47       1.0  0.7691699999999998  0.24217999999999998  0.93097  1.0000
  C   C48       1.0  0.1792399999999999  0.24012  0.8454199999999997  1.0000
  C   C49       1.0  0.5625599999999998  0.64292  0.67861  1.0000
  C   C50       1.0  0.5549299999999999  0.55647  0.7199699999999998  1.0000
  C   C51       1.0  0.53652  0.57423  0.80506  1.0000
  C   C52       1.0  0.5276699999999999  0.67964  0.84977  1.0000
  C   C53       1.0  0.5364599999999999  0.76563  0.8069  1.0000
  C   C54       1.0  0.55322  0.7482600000000001  0.72148  1.0000
  C   C55       1.0  0.5240499999999999  0.47524  0.8422699999999999  1.0000
  C   C56       1.0  0.51299  0.70045  0.9418199999999999  1.0000
  C   C57       1.0  0.52598  0.66203  0.52671  1.0000
  C   C58       1.0  0.39596  0.66939  0.50799  1.0000
  C   C59       1.0  0.33411999999999986  0.70141  0.42975999999999986  1.0000
  C   C60       1.0  0.4021  0.72937  0.3724999999999999  1.0000
  C   C61       1.0  0.53439  0.72747  0.39535  1.0000
  C   C62       1.0  0.59624  0.69191  0.47177  1.0000
  C   C63       1.0  0.19610999999999995  0.7126  0.4125399999999999  1.0000
  C   C64       1.0  0.6115799999999998  0.7674  0.3399599999999999  1.0000
  O   O1        1.0  0.85554  0.88295  0.89039  1.0000
  O   O2        1.0  0.89115  0.07967  0.62542  1.0000
  O   O3        1.0  0.09523999999999992  0.059829999999999973  0.6750599999999999  1.0000
  O   O4        1.0  0.9609899999999998  0.88296  0.51606  1.0000
  O   O5        1.0  0.91974  0.70311  0.50029  1.0000
  O   O6        1.0  0.30952  0.80445  0.14616  1.0000
  O   O7        1.0  0.26643  0.69933  0.00736  1.0000
  O   O8        1.0  0.71047  0.78706  0.13816999999999993  1.0000
  O   O9        1.0  0.8668699999999999  0.7087500000000001  0.21529  1.0000
  O   O10       1.0  0.4105799999999999  0.3809  0.4028599999999999  1.0000
  O   O11       1.0  0.58685  0.57751  0.17136999999999994  1.0000
  O   O12       1.0  0.37479999999999997  0.56084  0.12107999999999998  1.0000
  O   O13       1.0  0.48926999999999987  0.38092  0.02008  1.0000
  O   O14       1.0  0.49568  0.20497  0.01734  1.0000
  O   O15       1.0  0.88373  0.32345000000000007  0.66604  1.0000
  O   O16       1.0  0.8377799999999997  0.23779  0.52105  1.0000
  O   O17       1.0  0.44852  0.20031  0.72864  1.0000
  O   O18       1.0  0.26774  0.22763  0.63329  1.0000
  O   O19       1.0  0.14446  0.11705  0.10960999999999997  1.0000
  O   O20       1.0  0.10885999999999993  0.92033  0.37458999999999987  1.0000
  O   O21       1.0  0.90477  0.9401700000000001  0.3249499999999999  1.0000
  O   O22       1.0  0.03900999999999999  0.11704  0.4839399999999999  1.0000
  O   O23       1.0  0.08026999999999992  0.29689  0.4997099999999999  1.0000
  O   O24       1.0  0.69048  0.19555000000000003  0.85384  1.0000
  O   O25       1.0  0.7335799999999999  0.30066999999999994  0.9926399999999999  1.0000
  O   O26       1.0  0.2895299999999999  0.2129399999999999  0.8618299999999998  1.0000
  O   O27       1.0  0.13313999999999995  0.29125  0.78472  1.0000
  O   O28       1.0  0.5894299999999999  0.6191  0.59714  1.0000
  O   O29       1.0  0.4131499999999999  0.4224899999999999  0.8286299999999999  1.0000
  O   O30       1.0  0.6252  0.43916000000000005  0.87892  1.0000
  O   O31       1.0  0.5107299999999999  0.61908  0.9799199999999999  1.0000
  O   O32       1.0  0.5043199999999999  0.79503  0.9826599999999999  1.0000
  O   O33       1.0  0.11626999999999998  0.67655  0.33396  1.0000
  O   O34       1.0  0.16222  0.7622100000000002  0.47894999999999993  1.0000
  O   O35       1.0  0.55148  0.79969  0.27136  1.0000
  O   O36       1.0  0.7322599999999999  0.77237  0.3667099999999999  1.0000
