data_image0
_chemical_formula_structural       Cu4Si2H32C56O16
_chemical_formula_sum              "Cu4 Si2 H32 C56 O16"
_cell_length_a       12.81826
_cell_length_b       12.81826
_cell_length_c       23.75432
_cell_angle_alpha    90.0
_cell_angle_beta     90.0
_cell_angle_gamma    90.0

_symmetry_space_group_name_H-M    'P 1'
_symmetry_Int_Tables_number       1

loop_
  _symmetry_equiv_pos_as_xyz
  'x,y,z'

loop_
  _atom_site_type_symbol
  _atom_site_label
  _atom_site_symmetry_multiplicity
  _atom_site_fract_x
  _atom_site_fract_y
  _atom_site_fract_z
  _atom_site_occupancy
  Cu  Cu1       1.0  0.9046799999999999  0.5  0.0  1.0000
  Cu  Cu2       1.0  0.09531999999999997  0.5  0.0  1.0000
  Cu  Cu3       1.0  0.5  0.9046799999999999  0.5  1.0000
  Cu  Cu4       1.0  0.5  0.09531999999999997  0.5  1.0000
  Si  Si1       1.0  0.0  0.0  0.75  1.0000
  Si  Si2       1.0  0.0  0.0  0.25  1.0000
  H   H1        1.0  0.8315099999999997  0.87204  0.8031100000000002  1.0000
  H   H2        1.0  0.83267  0.73224  0.87557  1.0000
  H   H3        1.0  0.16848999999999995  0.12796  0.8031100000000002  1.0000
  H   H4        1.0  0.16732999999999998  0.26776  0.87557  1.0000
  H   H5        1.0  0.12796  0.8315099999999997  0.3031  1.0000
  H   H6        1.0  0.26776  0.83267  0.37557  1.0000
  H   H7        1.0  0.87204  0.16848999999999995  0.3031  1.0000
  H   H8        1.0  0.73224  0.16732999999999998  0.37557  1.0000
  H   H9        1.0  0.16848999999999995  0.87204  0.1969  1.0000
  H   H10       1.0  0.16732999999999998  0.73224  0.12443000000000001  1.0000
  H   H11       1.0  0.8315099999999997  0.12796  0.1969  1.0000
  H   H12       1.0  0.83267  0.26776  0.12443000000000001  1.0000
  H   H13       1.0  0.87204  0.8315099999999997  0.6969000000000001  1.0000
  H   H14       1.0  0.73224  0.83267  0.6244300000000002  1.0000
  H   H15       1.0  0.12796  0.16848999999999995  0.6969000000000001  1.0000
  H   H16       1.0  0.26776  0.16732999999999998  0.6244300000000002  1.0000
  H   H17       1.0  0.16848999999999995  0.12796  0.1969  1.0000
  H   H18       1.0  0.16732999999999998  0.26776  0.12443000000000001  1.0000
  H   H19       1.0  0.8315099999999997  0.87204  0.1969  1.0000
  H   H20       1.0  0.83267  0.73224  0.12443000000000001  1.0000
  H   H21       1.0  0.87204  0.16848999999999995  0.6969000000000001  1.0000
  H   H22       1.0  0.73224  0.16732999999999998  0.6244300000000002  1.0000
  H   H23       1.0  0.12796  0.8315099999999997  0.6969000000000001  1.0000
  H   H24       1.0  0.26776  0.83267  0.6244300000000002  1.0000
  H   H25       1.0  0.8315099999999997  0.12796  0.8031100000000002  1.0000
  H   H26       1.0  0.83267  0.26776  0.87557  1.0000
  H   H27       1.0  0.16848999999999995  0.87204  0.8031100000000002  1.0000
  H   H28       1.0  0.16732999999999998  0.73224  0.87557  1.0000
  H   H29       1.0  0.12796  0.16848999999999995  0.3031  1.0000
  H   H30       1.0  0.26776  0.16732999999999998  0.37557  1.0000
  H   H31       1.0  0.87204  0.8315099999999997  0.3031  1.0000
  H   H32       1.0  0.73224  0.83267  0.37557  1.0000
  C   C1        1.0  0.90569  0.8419399999999999  0.81845  1.0000
  C   C2        1.0  0.9053599999999998  0.7634599999999999  0.8591  1.0000
  C   C3        1.0  0.09431  0.15806  0.81845  1.0000
  C   C4        1.0  0.09463999999999997  0.23654999999999998  0.8591  1.0000
  C   C5        1.0  0.15806  0.90569  0.31845000000000007  1.0000
  C   C6        1.0  0.23654999999999998  0.9053599999999998  0.35910000000000003  1.0000
  C   C7        1.0  0.8419399999999999  0.09431  0.31845000000000007  1.0000
  C   C8        1.0  0.7634599999999999  0.09463999999999997  0.35910000000000003  1.0000
  C   C9        1.0  0.09431  0.8419399999999999  0.18155  1.0000
  C   C10       1.0  0.09463999999999997  0.7634599999999999  0.1409  1.0000
  C   C11       1.0  0.90569  0.15806  0.18155  1.0000
  C   C12       1.0  0.9053599999999998  0.23654999999999998  0.1409  1.0000
  C   C13       1.0  0.8419399999999999  0.90569  0.6815500000000001  1.0000
  C   C14       1.0  0.7634599999999999  0.9053599999999998  0.6409  1.0000
  C   C15       1.0  0.15806  0.09431  0.6815500000000001  1.0000
  C   C16       1.0  0.23654999999999998  0.09463999999999997  0.6409  1.0000
  C   C17       1.0  0.09431  0.15806  0.18155  1.0000
  C   C18       1.0  0.09463999999999997  0.23654999999999998  0.1409  1.0000
  C   C19       1.0  0.90569  0.8419399999999999  0.18155  1.0000
  C   C20       1.0  0.9053599999999998  0.7634599999999999  0.1409  1.0000
  C   C21       1.0  0.8419399999999999  0.09431  0.6815500000000001  1.0000
  C   C22       1.0  0.7634599999999999  0.09463999999999997  0.6409  1.0000
  C   C23       1.0  0.15806  0.90569  0.6815500000000001  1.0000
  C   C24       1.0  0.23654999999999998  0.9053599999999998  0.6409  1.0000
  C   C25       1.0  0.90569  0.15806  0.81845  1.0000
  C   C26       1.0  0.9053599999999998  0.23654999999999998  0.8591  1.0000
  C   C27       1.0  0.09431  0.8419399999999999  0.81845  1.0000
  C   C28       1.0  0.09463999999999997  0.7634599999999999  0.8591  1.0000
  C   C29       1.0  0.15806  0.09431  0.31845000000000007  1.0000
  C   C30       1.0  0.23654999999999998  0.09463999999999997  0.35910000000000003  1.0000
  C   C31       1.0  0.8419399999999999  0.90569  0.31845000000000007  1.0000
  C   C32       1.0  0.7634599999999999  0.9053599999999998  0.35910000000000003  1.0000
  C   C33       1.0  0.0  0.8827699999999999  0.79741  1.0000
  C   C34       1.0  0.0  0.72395  0.8797200000000001  1.0000
  C   C35       1.0  0.0  0.64065  0.9236  1.0000
  C   C36       1.0  0.0  0.11723  0.79741  1.0000
  C   C37       1.0  0.0  0.27606  0.8797200000000001  1.0000
  C   C38       1.0  0.0  0.35935999999999996  0.9236  1.0000
  C   C39       1.0  0.11723  0.0  0.29741000000000006  1.0000
  C   C40       1.0  0.27606  0.0  0.3797200000000001  1.0000
  C   C41       1.0  0.35935999999999996  0.0  0.42359  1.0000
  C   C42       1.0  0.8827699999999999  0.0  0.29741000000000006  1.0000
  C   C43       1.0  0.72395  0.0  0.3797200000000001  1.0000
  C   C44       1.0  0.64065  0.0  0.42359  1.0000
  C   C45       1.0  0.0  0.8827699999999999  0.20259  1.0000
  C   C46       1.0  0.0  0.72395  0.12028000000000001  1.0000
  C   C47       1.0  0.0  0.64065  0.07641  1.0000
  C   C48       1.0  0.0  0.11723  0.20259  1.0000
  C   C49       1.0  0.0  0.27606  0.12028000000000001  1.0000
  C   C50       1.0  0.0  0.35935999999999996  0.07641  1.0000
  C   C51       1.0  0.8827699999999999  0.0  0.70259  1.0000
  C   C52       1.0  0.72395  0.0  0.62028  1.0000
  C   C53       1.0  0.64065  0.0  0.5764100000000001  1.0000
  C   C54       1.0  0.11723  0.0  0.70259  1.0000
  C   C55       1.0  0.27606  0.0  0.62028  1.0000
  C   C56       1.0  0.35935999999999996  0.0  0.5764100000000001  1.0000
  O   O1        1.0  0.9108399999999999  0.60828  0.9407600000000003  1.0000
  O   O2        1.0  0.08915999999999999  0.39172  0.9407600000000003  1.0000
  O   O3        1.0  0.39172  0.9108399999999999  0.44076  1.0000
  O   O4        1.0  0.60828  0.08915999999999999  0.44076  1.0000
  O   O5        1.0  0.08915999999999999  0.60828  0.05924  1.0000
  O   O6        1.0  0.9108399999999999  0.39172  0.05924  1.0000
  O   O7        1.0  0.60828  0.9108399999999999  0.55924  1.0000
  O   O8        1.0  0.39172  0.08915999999999999  0.55924  1.0000
  O   O9        1.0  0.08915999999999999  0.39172  0.05924  1.0000
  O   O10       1.0  0.9108399999999999  0.60828  0.05924  1.0000
  O   O11       1.0  0.60828  0.08915999999999999  0.55924  1.0000
  O   O12       1.0  0.39172  0.9108399999999999  0.55924  1.0000
  O   O13       1.0  0.9108399999999999  0.39172  0.9407600000000003  1.0000
  O   O14       1.0  0.08915999999999999  0.60828  0.9407600000000003  1.0000
  O   O15       1.0  0.39172  0.08915999999999999  0.44076  1.0000
  O   O16       1.0  0.60828  0.9108399999999999  0.44076  1.0000
