data_image0
_chemical_formula_structural       Dy4H32C48N12O36
_chemical_formula_sum              "Dy4 H32 C48 N12 O36"
_cell_length_a       10.20109
_cell_length_b       11.43027
_cell_length_c       17.260699999999996
_cell_angle_alpha    90.00029
_cell_angle_beta     89.9991
_cell_angle_gamma    108.74659

_space_group_name_H-M_alt    "P 1"
_space_group_IT_number       1

loop_
  _space_group_symop_operation_xyz
  'x, y, z'

loop_
  _atom_site_type_symbol
  _atom_site_label
  _atom_site_symmetry_multiplicity
  _atom_site_fract_x
  _atom_site_fract_y
  _atom_site_fract_z
  _atom_site_occupancy
  Dy  Dy1       1.0  0.9892700000000002  0.31183  0.9963400000000001  1.0000
  Dy  Dy2       1.0  0.015190000000000004  0.19354  0.49213  1.0000
  Dy  Dy3       1.0  0.018039999999999935  0.6823499999999999  0.0038699999999999997  1.0000
  Dy  Dy4       1.0  0.98914  0.8264499999999998  0.50662  1.0000
  H   H1        1.0  0.57483  0.55457  0.11642000000000001  1.0000
  H   H2        1.0  0.31263  0.47971  0.13482  1.0000
  H   H3        1.0  0.27419  0.1514  0.02257  1.0000
  H   H4        1.0  0.17566  0.77897  0.6855  1.0000
  H   H5        1.0  0.53197  0.2072  0.00443  1.0000
  H   H6        1.0  0.12368999999999998  0.68828  0.81959  1.0000
  H   H7        1.0  0.87761  0.34718  0.71119  1.0000
  H   H8        1.0  0.93381  0.45563  0.58324  1.0000
  H   H9        1.0  0.42530999999999997  0.94493  0.61656  1.0000
  H   H10       1.0  0.68765  0.020109999999999996  0.63504  1.0000
  H   H11       1.0  0.72582  0.3483399999999999  0.5229199999999999  1.0000
  H   H12       1.0  0.82403  0.72117  0.18527  1.0000
  H   H13       1.0  0.4682599999999999  0.2919999999999999  0.5046  1.0000
  H   H14       1.0  0.87652  0.8114599999999998  0.31976  1.0000
  H   H15       1.0  0.12299000000000002  0.15331  0.21154999999999996  1.0000
  H   H16       1.0  0.06608  0.04496  0.08317  1.0000
  H   H17       1.0  0.42516  0.44505  0.88345  1.0000
  H   H18       1.0  0.68707  0.52005  0.86507  1.0000
  H   H19       1.0  0.72501  0.84829  0.9773900000000001  1.0000
  H   H20       1.0  0.82452  0.22190999999999997  0.31419  1.0000
  H   H21       1.0  0.46782  0.79234  0.99551  1.0000
  H   H22       1.0  0.87688  0.31194999999999995  0.18  1.0000
  H   H23       1.0  0.12324999999999998  0.65405  0.28859  1.0000
  H   H24       1.0  0.06600999999999992  0.5455399999999999  0.41667  1.0000
  H   H25       1.0  0.57433  0.05501  0.38327  1.0000
  H   H26       1.0  0.31198  0.98019  0.3649  1.0000
  H   H27       1.0  0.27359999999999995  0.6514999999999999  0.47737  1.0000
  H   H28       1.0  0.17545  0.27877  0.81483  1.0000
  H   H29       1.0  0.53145  0.70796  0.49524  1.0000
  H   H30       1.0  0.12324  0.18860999999999997  0.68024  1.0000
  H   H31       1.0  0.87709  0.8468099999999997  0.78842  1.0000
  H   H32       1.0  0.93379  0.95503  0.91651  1.0000
  C   C1        1.0  0.57416  0.38734  0.05824000000000001  1.0000
  C   C2        1.0  0.51158  0.46393999999999996  0.09627  1.0000
  C   C3        1.0  0.36966  0.42625  0.10677  1.0000
  C   C4        1.0  0.72685  0.4305999999999999  0.03943  1.0000
  C   C5        1.0  0.34708  0.23709999999999998  0.04321  1.0000
  C   C6        1.0  0.10858  0.68585  0.69695  1.0000
  C   C7        1.0  0.48883000000000004  0.27112  0.03338  1.0000
  C   C8        1.0  0.07822  0.6328  0.7693399999999999  1.0000
  C   C9        1.0  0.9653  0.45097999999999994  0.85492  1.0000
  C   C10       1.0  0.9403199999999999  0.44408999999999993  0.70915  1.0000
  C   C11       1.0  0.96995  0.50136  0.63768  1.0000
  C   C12       1.0  0.9922300000000001  0.5099699999999999  0.77688  1.0000
  C   C13       1.0  0.42645999999999995  0.11228999999999999  0.55825  1.0000
  C   C14       1.0  0.48856999999999995  0.035609999999999996  0.59648  1.0000
  C   C15       1.0  0.63046  0.07333  0.60694  1.0000
  C   C16       1.0  0.27468  0.07013999999999998  0.53924  1.0000
  C   C17       1.0  0.65337  0.26245  0.5435  1.0000
  C   C18       1.0  0.8908  0.81442  0.19677999999999998  1.0000
  C   C19       1.0  0.5117  0.22844999999999993  0.53365  1.0000
  C   C20       1.0  0.9217  0.8668799999999999  0.2693  1.0000
  C   C21       1.0  0.03455  0.05  0.35384  1.0000
  C   C22       1.0  0.06022  0.05639  0.20911  1.0000
  C   C23       1.0  0.029930000000000026  0.99958  0.13768  1.0000
  C   C24       1.0  0.007790000000000024  0.98975  0.2765  1.0000
  C   C25       1.0  0.42596  0.6121499999999999  0.94145  1.0000
  C   C26       1.0  0.48841  0.5357199999999999  0.90352  1.0000
  C   C27       1.0  0.63024  0.57358  0.89313  1.0000
  C   C28       1.0  0.27455999999999997  0.5686399999999999  0.96063  1.0000
  C   C29       1.0  0.65251  0.7625599999999999  0.9566199999999999  1.0000
  C   C30       1.0  0.8911800000000001  0.31517  0.30275  1.0000
  C   C31       1.0  0.51081  0.7284899999999999  0.96636  1.0000
  C   C32       1.0  0.9219999999999999  0.3678  0.23027999999999998  1.0000
  C   C33       1.0  0.035110000000000016  0.54954  0.14514  1.0000
  C   C34       1.0  0.060009999999999966  0.55723  0.29055  1.0000
  C   C35       1.0  0.029780000000000004  0.5003  0.36205  1.0000
  C   C36       1.0  0.007579999999999966  0.49081999999999987  0.22305  1.0000
  C   C37       1.0  0.57309  0.8881399999999999  0.44160999999999995  1.0000
  C   C38       1.0  0.51061  0.96458  0.40357  1.0000
  C   C39       1.0  0.3687799999999999  0.9268899999999998  0.3932899999999999  1.0000
  C   C40       1.0  0.72556  0.9320399999999999  0.45989  1.0000
  C   C41       1.0  0.34593  0.73762  0.45675  1.0000
  C   C42       1.0  0.10899  0.18554  0.8031  1.0000
  C   C43       1.0  0.4878299999999999  0.7717199999999997  0.4663999999999999  1.0000
  C   C44       1.0  0.07835  0.13312  0.73056  1.0000
  C   C45       1.0  0.9648299999999999  0.95138  0.64544  1.0000
  C   C46       1.0  0.93988  0.94365  0.79041  1.0000
  C   C47       1.0  0.9698399999999999  0.00029  0.86193  1.0000
  C   C48       1.0  0.9923899999999999  0.010479999999999998  0.72313  1.0000
  N   N1        1.0  0.7749399999999997  0.08896999999999998  0.04787  1.0000
  N   N2        1.0  0.28876  0.31486  0.07852  1.0000
  N   N3        1.0  0.052589999999999984  0.6213  0.63192  1.0000
  N   N4        1.0  0.22454  0.41026  0.54764  1.0000
  N   N5        1.0  0.7118400000000001  0.18435  0.57832  1.0000
  N   N6        1.0  0.94655  0.8799099999999997  0.13192  1.0000
  N   N7        1.0  0.22450999999999993  0.9113499999999999  0.9519700000000001  1.0000
  N   N8        1.0  0.71157  0.6849299999999999  0.92152  1.0000
  N   N9        1.0  0.9463699999999999  0.3810299999999999  0.36729  1.0000
  N   N10       1.0  0.77626  0.59165  0.45292  1.0000
  N   N11       1.0  0.28732  0.81579  0.42181  1.0000
  N   N12       1.0  0.05346  0.11962999999999999  0.86765  1.0000
  O   O1        1.0  0.77487  0.3476099999999999  0.014940000000000002  1.0000
  O   O2        1.0  0.15301  0.28096  0.08603  1.0000
  O   O3        1.0  0.79537  0.11002  0.97546  1.0000
  O   O4        1.0  0.67814  0.00067  0.07347  1.0000
  O   O5        1.0  0.8618500000000001  0.16414  0.09405  1.0000
  O   O6        1.0  0.93892  0.33456  0.86043  1.0000
  O   O7        1.0  0.7913  0.54556  0.04726  1.0000
  O   O8        1.0  0.9747  0.52023  0.91418  1.0000
  O   O9        1.0  0.08234  0.67456  0.56338  1.0000
  O   O10       1.0  0.22704  0.15235  0.51329  1.0000
  O   O11       1.0  0.84757  0.21692  0.58524  1.0000
  O   O12       1.0  0.20634000000000002  0.38962  0.47473  1.0000
  O   O13       1.0  0.31878  0.49741  0.57399  1.0000
  O   O14       1.0  0.13574  0.333  0.59241  1.0000
  O   O15       1.0  0.06223  0.16679  0.35818  1.0000
  O   O16       1.0  0.20952999999999997  0.95538  0.54856  1.0000
  O   O17       1.0  0.024619999999999986  0.98287  0.41408  1.0000
  O   O18       1.0  0.9168000000000001  0.8276599999999998  0.06318  1.0000
  O   O19       1.0  0.22764999999999996  0.6518799999999999  0.9856  1.0000
  O   O20       1.0  0.847  0.7186099999999999  0.91411  1.0000
  O   O21       1.0  0.20428999999999994  0.8903999999999999  0.02468  1.0000
  O   O22       1.0  0.32002  0.99881  0.92591  1.0000
  O   O23       1.0  0.13679  0.83448  0.90643  1.0000
  O   O24       1.0  0.06231  0.66602  0.13952  1.0000
  O   O25       1.0  0.20893  0.45393  0.9531099999999999  1.0000
  O   O26       1.0  0.026189999999999998  0.48057  0.08566  1.0000
  O   O27       1.0  0.9154699999999998  0.32869  0.43623  1.0000
  O   O28       1.0  0.77312  0.8493899999999998  0.48529  1.0000
  O   O29       1.0  0.15189  0.78347  0.41457  1.0000
  O   O30       1.0  0.79201  0.6119299999999999  0.52556  1.0000
  O   O31       1.0  0.6830299999999999  0.50296  0.42583  1.0000
  O   O32       1.0  0.8643299999999999  0.66922  0.4083899999999999  1.0000
  O   O33       1.0  0.93731  0.83471  0.64073  1.0000
  O   O34       1.0  0.79104  0.0466  0.45034  1.0000
  O   O35       1.0  0.97473  0.01849  0.58506  1.0000
  O   O36       1.0  0.08457  0.17121  0.93677  1.0000
