data_image0
_chemical_formula_structural       Cu4H28C44S4N8O16
_chemical_formula_sum              "Cu4 H28 C44 S4 N8 O16"
_cell_length_a       8.35888
_cell_length_b       10.33865
_cell_length_c       17.124860000000005
_cell_angle_alpha    90.0
_cell_angle_beta     98.87746
_cell_angle_gamma    90.0

_space_group_name_H-M_alt    "P 1"
_space_group_IT_number       1

loop_
  _space_group_symop_operation_xyz
  'x, y, z'

loop_
  _atom_site_type_symbol
  _atom_site_label
  _atom_site_symmetry_multiplicity
  _atom_site_fract_x
  _atom_site_fract_y
  _atom_site_fract_z
  _atom_site_occupancy
  Cu  Cu1       1.0  0.00987  0.66609  0.0926  1.0000
  Cu  Cu2       1.0  0.49013000000000007  0.16609  0.4074000000000001  1.0000
  Cu  Cu3       1.0  0.99013  0.33391  0.9074  1.0000
  Cu  Cu4       1.0  0.50987  0.83391  0.5926000000000002  1.0000
  H   H1        1.0  0.44689  0.37466  0.02116  1.0000
  H   H2        1.0  0.50838  0.26618  0.1544  1.0000
  H   H3        1.0  0.14419  0.50712  0.2328  1.0000
  H   H4        1.0  0.71303  0.72577  0.14835  1.0000
  H   H5        1.0  0.47064000000000017  0.86377  0.10983  1.0000
  H   H6        1.0  0.71797  0.022649999999999997  0.92487  1.0000
  H   H7        1.0  0.9417  0.8710599999999998  0.96971  1.0000
  H   H8        1.0  0.053110000000000025  0.87466  0.47884  1.0000
  H   H9        1.0  0.99162  0.7661799999999999  0.3456  1.0000
  H   H10       1.0  0.3558200000000001  0.00712  0.2672  1.0000
  H   H11       1.0  0.7869800000000002  0.22576999999999994  0.35165  1.0000
  H   H12       1.0  0.029370000000000045  0.36377  0.39017000000000013  1.0000
  H   H13       1.0  0.7820300000000002  0.52265  0.57513  1.0000
  H   H14       1.0  0.55831  0.37106  0.53029  1.0000
  H   H15       1.0  0.55312  0.62534  0.97884  1.0000
  H   H16       1.0  0.49162  0.73383  0.8456  1.0000
  H   H17       1.0  0.85582  0.49288  0.7672  1.0000
  H   H18       1.0  0.28697  0.27423  0.85165  1.0000
  H   H19       1.0  0.52937  0.13622999999999996  0.89017  1.0000
  H   H20       1.0  0.2820300000000001  0.9773499999999999  0.07513  1.0000
  H   H21       1.0  0.05831  0.12894  0.03029  1.0000
  H   H22       1.0  0.9468900000000002  0.12534  0.52116  1.0000
  H   H23       1.0  0.00839  0.23383  0.6544  1.0000
  H   H24       1.0  0.6441900000000002  0.9928799999999999  0.73281  1.0000
  H   H25       1.0  0.21303  0.77423  0.64835  1.0000
  H   H26       1.0  0.97064  0.63623  0.6098300000000002  1.0000
  H   H27       1.0  0.21797000000000005  0.4773499999999999  0.42487  1.0000
  H   H28       1.0  0.4417  0.62894  0.46971  1.0000
  C   C1        1.0  0.26751  0.50008  0.05947000000000001  1.0000
  C   C2        1.0  0.3842100000000001  0.4028399999999999  0.06957  1.0000
  C   C3        1.0  0.41699000000000014  0.34163999999999994  0.14293  1.0000
  C   C4        1.0  0.33085  0.37799  0.20336  1.0000
  C   C5        1.0  0.36035  0.31670999999999994  0.28413  1.0000
  C   C6        1.0  0.21458  0.4755  0.18799  1.0000
  C   C7        1.0  0.7062700000000001  0.79341  0.09935000000000002  1.0000
  C   C8        1.0  0.5720100000000002  0.8714499999999998  0.07699  1.0000
  C   C9        1.0  0.57026  0.95721  0.0129  1.0000
  C   C10       1.0  0.70739  0.95877  0.97445  1.0000
  C   C11       1.0  0.8358  0.87581  0.9994200000000001  1.0000
  C   C12       1.0  0.23250000000000004  7e-05  0.4405300000000001  1.0000
  C   C13       1.0  0.11579  0.90284  0.43043  1.0000
  C   C14       1.0  0.08300999999999999  0.8416399999999999  0.35707  1.0000
  C   C15       1.0  0.16915  0.87799  0.29664  1.0000
  C   C16       1.0  0.13966000000000003  0.81671  0.21588000000000004  1.0000
  C   C17       1.0  0.28542  0.9755  0.31201  1.0000
  C   C18       1.0  0.79374  0.2934  0.40065  1.0000
  C   C19       1.0  0.92799  0.37144999999999995  0.42301  1.0000
  C   C20       1.0  0.9297400000000005  0.45720999999999995  0.48710000000000003  1.0000
  C   C21       1.0  0.7926200000000002  0.45877  0.52556  1.0000
  C   C22       1.0  0.6642  0.3758  0.50058  1.0000
  C   C23       1.0  0.7324900000000001  0.49992999999999993  0.9405300000000001  1.0000
  C   C24       1.0  0.6157900000000003  0.59716  0.9304300000000002  1.0000
  C   C25       1.0  0.58301  0.65837  0.85707  1.0000
  C   C26       1.0  0.66915  0.62202  0.79664  1.0000
  C   C27       1.0  0.63966  0.68329  0.71587  1.0000
  C   C28       1.0  0.78543  0.52451  0.81201  1.0000
  C   C29       1.0  0.2937400000000001  0.20659  0.90065  1.0000
  C   C30       1.0  0.42799  0.12855  0.92301  1.0000
  C   C31       1.0  0.4297400000000002  0.042789999999999995  0.9871000000000001  1.0000
  C   C32       1.0  0.29262  0.041229999999999996  0.02555  1.0000
  C   C33       1.0  0.1642  0.12418999999999998  0.00059  1.0000
  C   C34       1.0  0.76751  0.9999299999999999  0.55947  1.0000
  C   C35       1.0  0.88421  0.09716  0.56957  1.0000
  C   C36       1.0  0.9169900000000002  0.15836  0.64293  1.0000
  C   C37       1.0  0.8308600000000003  0.12202  0.70337  1.0000
  C   C38       1.0  0.8603499999999998  0.18329999999999996  0.78412  1.0000
  C   C39       1.0  0.7145800000000002  0.0245  0.68799  1.0000
  C   C40       1.0  0.20627  0.7066  0.59935  1.0000
  C   C41       1.0  0.07201000000000007  0.62855  0.5769900000000002  1.0000
  C   C42       1.0  0.07026000000000003  0.5428  0.5129  1.0000
  C   C43       1.0  0.20739000000000005  0.54123  0.47445  1.0000
  C   C44       1.0  0.3358  0.6242  0.49942  1.0000
  S   S1        1.0  0.2231  0.5932  0.96661  1.0000
  S   S2        1.0  0.2769100000000001  0.0932  0.53339  1.0000
  S   S3        1.0  0.7769000000000003  0.40679999999999994  0.03339  1.0000
  S   S4        1.0  0.7231  0.9067999999999999  0.46661000000000014  1.0000
  N   N1        1.0  0.83529  0.79435  0.06074000000000001  1.0000
  N   N2        1.0  0.18613  0.53595  0.11772000000000002  1.0000
  N   N3        1.0  0.66472  0.29434999999999995  0.43926000000000004  1.0000
  N   N4        1.0  0.31388000000000005  0.03595  0.3822800000000001  1.0000
  N   N5        1.0  0.16472  0.20565  0.93926  1.0000
  N   N6        1.0  0.81388  0.46404999999999996  0.88228  1.0000
  N   N7        1.0  0.3352900000000001  0.7056499999999999  0.5607400000000002  1.0000
  N   N8        1.0  0.68613  0.96405  0.61772  1.0000
  O   O1        1.0  0.46876  0.22650999999999993  0.2932500000000001  1.0000
  O   O2        1.0  0.28114  0.35552999999999996  0.3361000000000001  1.0000
  O   O3        1.0  0.18185  0.48686  0.90533  1.0000
  O   O4        1.0  0.07058000000000005  0.66743  0.98289  1.0000
  O   O5        1.0  0.031240000000000004  0.72651  0.20675  1.0000
  O   O6        1.0  0.21888  0.8555199999999998  0.1639  1.0000
  O   O7        1.0  0.3181600000000001  0.9868599999999997  0.5946700000000003  1.0000
  O   O8        1.0  0.4294300000000001  0.16743  0.51711  1.0000
  O   O9        1.0  0.5312400000000002  0.7734899999999999  0.7067500000000001  1.0000
  O   O10       1.0  0.71887  0.64447  0.6639  1.0000
  O   O11       1.0  0.81816  0.51314  0.09467  1.0000
  O   O12       1.0  0.9294300000000002  0.33257  0.01711  1.0000
  O   O13       1.0  0.96877  0.27349  0.79325  1.0000
  O   O14       1.0  0.78112  0.14448  0.8361  1.0000
  O   O15       1.0  0.6818500000000002  0.013139999999999999  0.40533000000000013  1.0000
  O   O16       1.0  0.57057  0.8325799999999999  0.48289000000000004  1.0000
