data_image0
_chemical_formula_structural       Cu4H48C50N8O8
_chemical_formula_sum              "Cu4 H48 C50 N8 O8"
_cell_length_a       9.5751
_cell_length_b       17.04852
_cell_length_c       17.04929
_cell_angle_alpha    85.33322000000001
_cell_angle_beta     73.48396
_cell_angle_gamma    73.46588999999999

_symmetry_space_group_name_H-M    'P 1'
_symmetry_Int_Tables_number       1

loop_
  _symmetry_equiv_pos_as_xyz
  'x,y,z'

loop_
  _atom_site_type_symbol
  _atom_site_label
  _atom_site_symmetry_multiplicity
  _atom_site_fract_x
  _atom_site_fract_y
  _atom_site_fract_z
  _atom_site_occupancy
  Cu  Cu1       1.0  0.5000000000000001  0.5  0.5  1.0000
  Cu  Cu2       1.0  0.5  0.0  0.0  1.0000
  Cu  Cu3       1.0  0.5000000000000001  0.5  0.0  1.0000
  Cu  Cu4       1.0  0.0  0.0  0.5  1.0000
  H   H1        1.0  0.3508500000000001  0.4655399999999999  0.38769  1.0000
  H   H2        1.0  0.15847999999999998  0.54592  0.32123  1.0000
  H   H3        1.0  0.18183000000000002  0.76459  0.42415  1.0000
  H   H4        1.0  0.37281  0.67603  0.48849  1.0000
  H   H5        1.0  0.08452000000000004  0.65132  0.23152  1.0000
  H   H6        1.0  0.9295900000000002  0.6325499999999997  0.31146  1.0000
  H   H7        1.0  0.20145  0.03411  0.11341  1.0000
  H   H8        1.0  0.024360000000000038  0.95289  0.17909  1.0000
  H   H9        1.0  0.37548000000000004  0.73517  0.0741  1.0000
  H   H10       1.0  0.5398  0.82479  0.01075  1.0000
  H   H11       1.0  0.96484  0.84756  0.26757  1.0000
  H   H12       1.0  0.8728500000000002  0.8653599999999998  0.18728  1.0000
  H   H13       1.0  0.31458  0.38742  0.03465  1.0000
  H   H14       1.0  0.20419000000000018  0.32104  0.9541099999999998  1.0000
  H   H15       1.0  0.4486200000000002  0.4248399999999999  0.73566  1.0000
  H   H16       1.0  0.54911  0.48903  0.82439  1.0000
  H   H17       1.0  0.23276000000000005  0.23263  0.84886  1.0000
  H   H18       1.0  0.06019000000000004  0.3134599999999999  0.86692  1.0000
  H   H19       1.0  0.73736  0.11297999999999997  0.466  1.0000
  H   H20       1.0  0.47787999999999997  0.17904999999999993  0.54712  1.0000
  H   H21       1.0  0.6082199999999999  0.07485  0.76504  1.0000
  H   H22       1.0  0.8637799999999999  0.011009999999999997  0.67554  1.0000
  H   H23       1.0  0.31462  0.26855  0.65236  1.0000
  H   H24       1.0  0.23892000000000005  0.18904  0.6343  1.0000
  H   H25       1.0  0.6491499999999999  0.53446  0.61231  1.0000
  H   H26       1.0  0.84152  0.45408  0.67877  1.0000
  H   H27       1.0  0.81817  0.23540999999999995  0.57585  1.0000
  H   H28       1.0  0.62718  0.32397  0.51151  1.0000
  H   H29       1.0  0.9154700000000002  0.34869  0.76848  1.0000
  H   H30       1.0  0.07040000000000005  0.3674599999999999  0.68854  1.0000
  H   H31       1.0  0.7985400000000005  0.9658999999999998  0.88659  1.0000
  H   H32       1.0  0.9756300000000001  0.04712  0.82091  1.0000
  H   H33       1.0  0.62452  0.26483  0.9259  1.0000
  H   H34       1.0  0.46019  0.17521  0.98925  1.0000
  H   H35       1.0  0.035160000000000025  0.15243999999999996  0.73243  1.0000
  H   H36       1.0  0.12714000000000003  0.13465  0.81273  1.0000
  H   H37       1.0  0.6854100000000002  0.61259  0.96535  1.0000
  H   H38       1.0  0.7958  0.67897  0.04589  1.0000
  H   H39       1.0  0.5513799999999999  0.57516  0.26434  1.0000
  H   H40       1.0  0.45088  0.51098  0.17561  1.0000
  H   H41       1.0  0.7672400000000003  0.7673799999999997  0.15114  1.0000
  H   H42       1.0  0.93981  0.68655  0.13308  1.0000
  H   H43       1.0  0.26263000000000003  0.8870299999999998  0.534  1.0000
  H   H44       1.0  0.52212  0.82096  0.45288  1.0000
  H   H45       1.0  0.3917700000000002  0.9251599999999998  0.23496  1.0000
  H   H46       1.0  0.1362200000000001  0.9889899999999999  0.32446  1.0000
  H   H47       1.0  0.6853800000000002  0.73145  0.34764  1.0000
  H   H48       1.0  0.76107  0.81096  0.3657  1.0000
  C   C1        1.0  0.30960999999999994  0.53146  0.39518  1.0000
  C   C2        1.0  0.20152  0.57726  0.35805  1.0000
  C   C3        1.0  0.14917  0.66248  0.3694  1.0000
  C   C4        1.0  0.21490000000000004  0.69859  0.41633  1.0000
  C   C5        1.0  0.32175  0.64962  0.45172  1.0000
  C   C6        1.0  0.9862999999999998  0.67943  0.28216999999999987  1.0000
  C   C7        1.0  0.23511999999999997  0.96828  0.10527  1.0000
  C   C8        1.0  0.13645999999999997  0.92201  0.14195  1.0000
  C   C9        1.0  0.18251000000000012  0.83688  0.12991999999999995  1.0000
  C   C10       1.0  0.33245000000000013  0.8010899999999997  0.08269  1.0000
  C   C11       1.0  0.4246900000000001  0.85059  0.04779  1.0000
  C   C12       1.0  0.9481800000000002  0.8190099999999998  0.21657  1.0000
  C   C13       1.0  0.34027  0.39513999999999994  0.96877  1.0000
  C   C14       1.0  0.2786799999999999  0.35806  0.92285  1.0000
  C   C15       1.0  0.31234  0.36975  0.83765  1.0000
  C   C16       1.0  0.41469000000000017  0.41673  0.80164  1.0000
  C   C17       1.0  0.47166999999999987  0.45205  0.85076  1.0000
  C   C18       1.0  0.16448999999999997  0.28371  0.82034  1.0000
  C   C19       1.0  0.7042300000000001  0.10526  0.5319  1.0000
  C   C20       1.0  0.5588  0.14213  0.57808  1.0000
  C   C21       1.0  0.5187899999999999  0.1304  0.66322  1.0000
  C   C22       1.0  0.63235  0.08319  0.6991  1.0000
  C   C23       1.0  0.77472  0.048079999999999984  0.64974  1.0000
  C   C24       1.0  0.2675  0.21804  0.68076  1.0000
  C   C25       1.0  0.69038  0.4685399999999999  0.60482  1.0000
  C   C26       1.0  0.7984700000000001  0.4227399999999999  0.64195  1.0000
  C   C27       1.0  0.85082  0.33753  0.6306  1.0000
  C   C28       1.0  0.7851  0.30141  0.58367  1.0000
  C   C29       1.0  0.6782400000000001  0.35039  0.54828  1.0000
  C   C30       1.0  0.013689999999999944  0.32058  0.71783  1.0000
  C   C31       1.0  0.76487  0.03172  0.89473  1.0000
  C   C32       1.0  0.8635300000000002  0.078  0.85805  1.0000
  C   C33       1.0  0.8174900000000003  0.16313  0.87008  1.0000
  C   C34       1.0  0.66754  0.19892  0.91731  1.0000
  C   C35       1.0  0.5753  0.14941  0.95221  1.0000
  C   C36       1.0  0.05181000000000005  0.181  0.78343  1.0000
  C   C37       1.0  0.6597300000000001  0.6048599999999997  0.03123  1.0000
  C   C38       1.0  0.7213100000000001  0.64194  0.07715  1.0000
  C   C39       1.0  0.6876600000000002  0.6302599999999998  0.16235  1.0000
  C   C40       1.0  0.58531  0.58327  0.19836  1.0000
  C   C41       1.0  0.5283200000000001  0.54796  0.14924  1.0000
  C   C42       1.0  0.8354999999999999  0.71629  0.17966  1.0000
  C   C43       1.0  0.29576  0.89474  0.4681  1.0000
  C   C44       1.0  0.4411900000000004  0.8578799999999998  0.42192  1.0000
  C   C45       1.0  0.4812100000000001  0.86961  0.33678  1.0000
  C   C46       1.0  0.36764  0.91682  0.3009  1.0000
  C   C47       1.0  0.22527000000000003  0.95193  0.35026  1.0000
  C   C48       1.0  0.7324900000000002  0.7819699999999998  0.31924  1.0000
  C   C49       1.0  0.87572  0.74899  0.24932  1.0000
  C   C50       1.0  0.12428000000000002  0.25101  0.75068  1.0000
  N   N1        1.0  0.3701900000000001  0.56538  0.44417  1.0000
  N   N2        1.0  0.37958  0.93478  0.05598  1.0000
  N   N3        1.0  0.4349400000000001  0.44435  0.93501  1.0000
  N   N4        1.0  0.81461  0.05611  0.56557  1.0000
  N   N5        1.0  0.6298000000000004  0.43463  0.55584  1.0000
  N   N6        1.0  0.6204200000000001  0.06523  0.9440199999999997  1.0000
  N   N7        1.0  0.56505  0.55566  0.065  1.0000
  N   N8        1.0  0.18538000000000007  0.9439  0.43443  1.0000
  O   O1        1.0  0.03601000000000012  0.7139499999999998  0.3401  1.0000
  O   O2        1.0  0.09189000000000004  0.78531  0.1589  1.0000
  O   O3        1.0  0.25079  0.34096  0.78608  1.0000
  O   O4        1.0  0.3761500000000001  0.15970999999999994  0.7147399999999998  1.0000
  O   O5        1.0  0.96398  0.28606  0.6599  1.0000
  O   O6        1.0  0.9081  0.2147  0.8411  1.0000
  O   O7        1.0  0.7492100000000002  0.6590499999999998  0.21392  1.0000
  O   O8        1.0  0.6238400000000002  0.8402899999999998  0.28526  1.0000
