data_image0
_chemical_formula_structural       Cu2H48C32N24
_chemical_formula_sum              "Cu2 H48 C32 N24"
_cell_length_a       10.61851
_cell_length_b       10.62495
_cell_length_c       14.62306
_cell_angle_alpha    106.9291
_cell_angle_beta     106.32210999999998
_cell_angle_gamma    103.0966

_symmetry_space_group_name_H-M    'P 1'
_symmetry_Int_Tables_number       1

loop_
  _symmetry_equiv_pos_as_xyz
  'x,y,z'

loop_
  _atom_site_type_symbol
  _atom_site_label
  _atom_site_symmetry_multiplicity
  _atom_site_fract_x
  _atom_site_fract_y
  _atom_site_fract_z
  _atom_site_occupancy
  Cu  Cu1       1.0  0.12349  0.37673  0.75007  1.0000
  Cu  Cu2       1.0  0.8764999999999998  0.62327  0.24992999999999996  1.0000
  H   H1        1.0  0.97743  0.06859999999999988  0.6832899999999997  1.0000
  H   H2        1.0  0.81791  0.31948  0.53885  1.0000
  H   H3        1.0  0.5991  0.93525  0.37172  1.0000
  H   H4        1.0  0.6138299999999999  0.10652999999999994  0.37430999999999987  1.0000
  H   H5        1.0  0.52905  0.15614999999999996  0.51997  1.0000
  H   H6        1.0  0.40356999999999993  0.01882000000000003  0.40812  1.0000
  H   H7        1.0  0.20742  0.6166  0.68405  1.0000
  H   H8        1.0  0.22314999999999996  0.21898999999999996  0.53681  1.0000
  H   H9        1.0  0.27152  0.43595  0.37209  1.0000
  H   H10       1.0  0.25883999999999996  0.26587999999999995  0.37209999999999993  1.0000
  H   H11       1.0  0.49035999999999996  0.36141  0.51547  1.0000
  H   H12       1.0  0.5028799999999999  0.39037  0.40552999999999995  1.0000
  H   H13       1.0  0.4320399999999998  0.5215099999999998  0.8160899999999998  1.0000
  H   H14       1.0  0.18163999999999986  0.6831499999999999  0.9629199999999998  1.0000
  H   H15       1.0  0.56534  0.9028199999999998  0.12840999999999997  1.0000
  H   H16       1.0  0.39473999999999987  0.8887099999999998  0.12724  1.0000
  H   H17       1.0  0.3443599999999999  0.9710999999999999  0.9814699999999997  1.0000
  H   H18       1.0  0.48147  0.09780999999999998  0.09254999999999998  1.0000
  H   H19       1.0  0.8841  0.29115  0.81627  1.0000
  H   H20       1.0  0.28064000000000006  0.2760800000000001  0.9614  1.0000
  H   H21       1.0  0.06470999999999999  0.23009  0.12779  1.0000
  H   H22       1.0  0.23403999999999997  0.24198999999999996  0.12608  1.0000
  H   H23       1.0  0.13774999999999987  0.008519999999999901  0.9828799999999998  1.0000
  H   H24       1.0  0.10974999999999999  0.9981  0.09374999999999999  1.0000
  H   H25       1.0  0.022559999999999993  0.9313999999999999  0.31671  1.0000
  H   H26       1.0  0.18207999999999994  0.6805199999999999  0.4611499999999999  1.0000
  H   H27       1.0  0.4008899999999998  0.06474999999999989  0.6282799999999997  1.0000
  H   H28       1.0  0.38617  0.8934599999999999  0.62569  1.0000
  H   H29       1.0  0.4709399999999999  0.84384  0.4800299999999999  1.0000
  H   H30       1.0  0.59642  0.9811799999999999  0.59188  1.0000
  H   H31       1.0  0.79257  0.3834  0.31595  1.0000
  H   H32       1.0  0.77684  0.7810099999999999  0.46319  1.0000
  H   H33       1.0  0.7284699999999997  0.5640399999999998  0.6279099999999997  1.0000
  H   H34       1.0  0.74115  0.73412  0.6278999999999999  1.0000
  H   H35       1.0  0.50963  0.63859  0.48452999999999996  1.0000
  H   H36       1.0  0.4971099999999999  0.6096299999999999  0.5944799999999999  1.0000
  H   H37       1.0  0.56795  0.47848  0.18390999999999996  1.0000
  H   H38       1.0  0.8183499999999999  0.31684  0.037079999999999995  1.0000
  H   H39       1.0  0.4346499999999999  0.09718000000000003  0.87159  1.0000
  H   H40       1.0  0.60526  0.11127999999999988  0.8727599999999998  1.0000
  H   H41       1.0  0.6556299999999999  0.0289  0.01853  1.0000
  H   H42       1.0  0.51852  0.90219  0.9074499999999998  1.0000
  H   H43       1.0  0.11588999999999998  0.70885  0.18372999999999998  1.0000
  H   H44       1.0  0.71936  0.7239099999999999  0.0386  1.0000
  H   H45       1.0  0.9352799999999999  0.76991  0.87221  1.0000
  H   H46       1.0  0.7659599999999995  0.7580099999999997  0.8739199999999998  1.0000
  H   H47       1.0  0.8622399999999999  0.9914799999999998  0.01712  1.0000
  H   H48       1.0  0.8902399999999998  0.0018999999999998686  0.9062499999999998  1.0000
  C   C1        1.0  0.9121399999999998  0.09987999999999997  0.62893  1.0000
  C   C2        1.0  0.83436  0.23228  0.55922  1.0000
  C   C3        1.0  0.61629  0.042449999999999995  0.42125  1.0000
  C   C4        1.0  0.50511  0.04730999999999996  0.46943999999999997  1.0000
  C   C5        1.0  0.21815999999999983  0.5300499999999998  0.6292199999999998  1.0000
  C   C6        1.0  0.22657  0.3270799999999999  0.55795  1.0000
  C   C7        1.0  0.30408999999999997  0.37792  0.42013999999999996  1.0000
  C   C8        1.0  0.46371999999999997  0.42168999999999995  0.46765  1.0000
  C   C9        1.0  0.40062  0.58714  0.8709599999999998  1.0000
  C   C10       1.0  0.26867999999999986  0.6661399999999997  0.9420099999999998  1.0000
  C   C11       1.0  0.45833  0.8851499999999999  0.07952  1.0000
  C   C12       1.0  0.45307999999999987  0.9955099999999999  0.03117  1.0000
  C   C13       1.0  0.9703599999999999  0.2806999999999999  0.8706199999999997  1.0000
  C   C14       1.0  0.17274999999999985  0.27256999999999987  0.9406699999999999  1.0000
  C   C15       1.0  0.12215999999999999  0.19645  0.07893  1.0000
  C   C16       1.0  0.0782  0.03634  0.03164  1.0000
  C   C17       1.0  0.08784999999999994  0.9001099999999999  0.37107999999999997  1.0000
  C   C18       1.0  0.16563  0.7677200000000001  0.44078  1.0000
  C   C19       1.0  0.3837  0.95755  0.57875  1.0000
  C   C20       1.0  0.49488  0.95269  0.5305599999999999  1.0000
  C   C21       1.0  0.78184  0.46994  0.37078  1.0000
  C   C22       1.0  0.7734299999999998  0.6729199999999997  0.44205  1.0000
  C   C23       1.0  0.6958999999999999  0.62207  0.5798599999999999  1.0000
  C   C24       1.0  0.5362699999999999  0.5783099999999999  0.5323499999999999  1.0000
  C   C25       1.0  0.59938  0.41285999999999995  0.12904  1.0000
  C   C26       1.0  0.73132  0.33386  0.05799999999999999  1.0000
  C   C27       1.0  0.5416599999999999  0.11483999999999986  0.9204799999999999  1.0000
  C   C28       1.0  0.54691  0.00448999999999995  0.9688299999999999  1.0000
  C   C29       1.0  0.02964  0.7193  0.12938  1.0000
  C   C30       1.0  0.82725  0.7274299999999999  0.05933  1.0000
  C   C31       1.0  0.8778299999999999  0.8035499999999998  0.9210699999999999  1.0000
  C   C32       1.0  0.9217899999999997  0.96366  0.9683599999999999  1.0000
  N   N1        1.0  0.93435  0.2368099999999999  0.6416599999999999  1.0000
  N   N2        1.0  0.80399  0.008720000000000007  0.54434  1.0000
  N   N3        1.0  0.7564599999999999  0.09505999999999998  0.49824  1.0000
  N   N4        1.0  0.20960999999999996  0.40567  0.64089  1.0000
  N   N5        1.0  0.2404399999999999  0.5357699999999999  0.5447599999999999  1.0000
  N   N6        1.0  0.2425099999999999  0.4029099999999999  0.49791999999999986  1.0000
  N   N7        1.0  0.26403999999999983  0.5654599999999999  0.8589799999999997  1.0000
  N   N8        1.0  0.49164999999999986  0.6955999999999998  0.9556399999999999  1.0000
  N   N9        1.0  0.40562  0.74399  0.00259  1.0000
  N   N10       1.0  0.0946  0.28932999999999987  0.85831  1.0000
  N   N11       1.0  0.9643499999999998  0.2585499999999998  0.9549399999999998  1.0000
  N   N12       1.0  0.09686  0.25673  0.00101  1.0000
  N   N13       1.0  0.06564999999999996  0.7631799999999999  0.35834  1.0000
  N   N14       1.0  0.19600999999999993  0.9912799999999998  0.45565999999999995  1.0000
  N   N15       1.0  0.24353999999999992  0.9049299999999999  0.5017599999999999  1.0000
  N   N16       1.0  0.79038  0.59433  0.35911  1.0000
  N   N17       1.0  0.75956  0.46421999999999997  0.45524  1.0000
  N   N18       1.0  0.7574799999999999  0.59708  0.50208  1.0000
  N   N19       1.0  0.7359599999999998  0.4345399999999999  0.14102  1.0000
  N   N20       1.0  0.50835  0.3044  0.04435999999999999  1.0000
  N   N21       1.0  0.5943799999999999  0.2560099999999999  0.99741  1.0000
  N   N22       1.0  0.9053999999999999  0.71066  0.14169  1.0000
  N   N23       1.0  0.03563999999999999  0.7414499999999999  0.04506  1.0000
  N   N24       1.0  0.9031299999999998  0.7432699999999999  0.9989899999999999  1.0000
