data_image0
_chemical_formula_structural       Mn6H32C56N4O20
_chemical_formula_sum              "Mn6 H32 C56 N4 O20"
_cell_length_a       11.65354
_cell_length_b       12.475989999999998
_cell_length_c       12.651970000000002
_cell_angle_alpha    90.83507999999999
_cell_angle_beta     100.52854
_cell_angle_gamma    88.08292000000002

_symmetry_space_group_name_H-M    'P 1'
_symmetry_Int_Tables_number       1

loop_
  _symmetry_equiv_pos_as_xyz
  'x,y,z'

loop_
  _atom_site_type_symbol
  _atom_site_label
  _atom_site_symmetry_multiplicity
  _atom_site_fract_x
  _atom_site_fract_y
  _atom_site_fract_z
  _atom_site_occupancy
  Mn  Mn1       1.0  0.3055700000000001  0.94008  0.37232  1.0000
  Mn  Mn2       1.0  0.67095  0.40872  0.14823  1.0000
  Mn  Mn3       1.0  0.73428  0.050189999999999985  0.6169899999999999  1.0000
  Mn  Mn4       1.0  0.32200999999999996  0.56654  0.7950399999999997  1.0000
  Mn  Mn5       1.0  0.48877  0.50464  0.5034899999999999  1.0000
  Mn  Mn6       1.0  0.51258  0.99751  0.00942  1.0000
  H   H1        1.0  0.45815  0.63432  0.27761  1.0000
  H   H2        1.0  0.48405  0.76949  0.13897  1.0000
  H   H3        1.0  0.5252600000000001  0.016489999999999998  0.3832499999999999  1.0000
  H   H4        1.0  0.50357  0.8807899999999999  0.52161  1.0000
  H   H5        1.0  0.25747999999999993  0.62897  0.3883999999999999  1.0000
  H   H6        1.0  0.04366999999999997  0.63963  0.3893799999999999  1.0000
  H   H7        1.0  0.09648000000000001  0.36923  0.60505  1.0000
  H   H8        1.0  0.30633  0.36724  0.59012  1.0000
  H   H9        1.0  0.54601  0.13373  0.23338999999999993  1.0000
  H   H10       1.0  0.5254099999999999  0.2741199999999999  0.3744999999999999  1.0000
  H   H11       1.0  0.44993  0.51456  0.1277  1.0000
  H   H12       1.0  0.46914000000000006  0.37411  0.9871699999999999  1.0000
  H   H13       1.0  0.72137  0.15523  0.04399  1.0000
  H   H14       1.0  0.9307199999999999  0.16325  0.03439  1.0000
  H   H15       1.0  0.92798  0.82068  0.9741699999999998  1.0000
  H   H16       1.0  0.71999  0.8273199999999999  0.9924599999999999  1.0000
  H   H17       1.0  0.61476  0.3389099999999999  0.7354  1.0000
  H   H18       1.0  0.60371  0.19878999999999997  0.87284  1.0000
  H   H19       1.0  0.38486000000000004  0.01095  0.63217  1.0000
  H   H20       1.0  0.39459  0.15176  0.49479  1.0000
  H   H21       1.0  0.7008  0.34745  0.52999  1.0000
  H   H22       1.0  0.91259  0.33581  0.52011  1.0000
  H   H23       1.0  0.8994100000000002  0.68094  0.48922999999999994  1.0000
  H   H24       1.0  0.68684  0.67647  0.49563  1.0000
  H   H25       1.0  0.40793  0.84885  0.7847599999999999  1.0000
  H   H26       1.0  0.40482  0.70576  0.6414899999999999  1.0000
  H   H27       1.0  0.59043  0.4867  0.8782099999999998  1.0000
  H   H28       1.0  0.60355  0.63204  0.01858  1.0000
  H   H29       1.0  0.31796  0.8311199999999999  0.00495  1.0000
  H   H30       1.0  0.10916999999999999  0.8215799999999999  0.015269999999999999  1.0000
  H   H31       1.0  0.07917999999999996  0.16397  0.9597399999999998  1.0000
  H   H32       1.0  0.2916  0.15855999999999998  0.95513  1.0000
  C   C1        1.0  0.47145  0.7471799999999998  0.40839  1.0000
  C   C2        1.0  0.46754  0.7190799999999998  0.29784  1.0000
  C   C3        1.0  0.48079000000000005  0.79368  0.22137  1.0000
  C   C4        1.0  0.49845999999999985  0.90462  0.24733999999999995  1.0000
  C   C5        1.0  0.49330000000000007  0.93735  0.35759  1.0000
  C   C6        1.0  0.48106  0.8603699999999997  0.4363699999999999  1.0000
  C   C7        1.0  0.26926  0.87588  0.4932299999999999  1.0000
  C   C8        1.0  0.21375999999999998  0.8451899999999998  0.2753  1.0000
  C   C9        1.0  0.29126  0.06542  0.28896999999999995  1.0000
  C   C10       1.0  0.21777  0.57274  0.43483  1.0000
  C   C11       1.0  0.09860999999999992  0.57887  0.43678  1.0000
  C   C12       1.0  0.05073  0.50507  0.4981  1.0000
  C   C13       1.0  0.12732  0.42744999999999994  0.55432  1.0000
  C   C14       1.0  0.24526  0.42679  0.54769  1.0000
  C   C15       1.0  0.50739  0.24206  0.10011  1.0000
  C   C16       1.0  0.52614  0.21748999999999993  0.21249  1.0000
  C   C17       1.0  0.515  0.29441  0.28980999999999996  1.0000
  C   C18       1.0  0.4856599999999999  0.40454  0.26284  1.0000
  C   C19       1.0  0.47894  0.43315  0.15137999999999996  1.0000
  C   C20       1.0  0.48925  0.35398  0.07211999999999999  1.0000
  C   C21       1.0  0.7225699999999999  0.34829999999999994  0.011379999999999996  1.0000
  C   C22       1.0  0.8121  0.34221  0.24156999999999995  1.0000
  C   C23       1.0  0.70096  0.56028  0.21461999999999995  1.0000
  C   C24       1.0  0.77092  0.08247999999999997  0.029819999999999992  1.0000
  C   C25       1.0  0.88845  0.08648  0.02318  1.0000
  C   C26       1.0  0.94977  0.9921999999999997  0.0015599999999999995  1.0000
  C   C27       1.0  0.88732  0.8970699999999998  0.99137  1.0000
  C   C28       1.0  0.77008  0.8998499999999998  0.00032  1.0000
  C   C29       1.0  0.50505  0.25613  0.60527  1.0000
  C   C30       1.0  0.56574  0.26657  0.7146  1.0000
  C   C31       1.0  0.55983  0.18946999999999994  0.78991  1.0000
  C   C32       1.0  0.49346000000000007  0.09426  0.76299  1.0000
  C   C33       1.0  0.43503  0.08276999999999998  0.6527699999999999  1.0000
  C   C34       1.0  0.44053  0.15995  0.5775399999999999  1.0000
  C   C35       1.0  0.7438  0.12245  0.48711999999999994  1.0000
  C   C36       1.0  0.82661  0.14039  0.72125  1.0000
  C   C37       1.0  0.7225299999999999  0.9213399999999999  0.6943899999999997  1.0000
  C   C38       1.0  0.7488100000000001  0.41895999999999994  0.52069  1.0000
  C   C39       1.0  0.86717  0.4135999999999999  0.5164199999999999  1.0000
  C   C40       1.0  0.92522  0.50811  0.50382  1.0000
  C   C41       1.0  0.85904  0.60472  0.49671  1.0000
  C   C42       1.0  0.74061  0.60304  0.50118  1.0000
  C   C43       1.0  0.5094600000000001  0.7522199999999998  0.91088  1.0000
  C   C44       1.0  0.44733  0.76948  0.80371  1.0000
  C   C45       1.0  0.44193  0.6891  0.72507  1.0000
  C   C46       1.0  0.4998199999999999  0.58593  0.7484199999999998  1.0000
  C   C47       1.0  0.5514  0.56609  0.8594399999999999  1.0000
  C   C48       1.0  0.5598700000000001  0.64666  0.93622  1.0000
  C   C49       1.0  0.28555  0.58762  0.9301799999999998  1.0000
  C   C50       1.0  0.19204  0.65403  0.73814  1.0000
  C   C51       1.0  0.30354999999999993  0.4167199999999999  0.8036999999999999  1.0000
  C   C52       1.0  0.26194  0.90312  0.99603  1.0000
  C   C53       1.0  0.14409  0.89857  0.0008599999999999999  1.0000
  C   C54       1.0  0.07417  0.99309  0.99102  1.0000
  C   C55       1.0  0.12847  0.08822  0.9722999999999998  1.0000
  C   C56       1.0  0.24714999999999998  0.08592  0.9684399999999997  1.0000
  N   N1        1.0  0.29101  0.4983  0.48947999999999997  1.0000
  N   N2        1.0  0.71075  0.99132  0.01728  1.0000
  N   N3        1.0  0.6853399999999998  0.51186  0.51274  1.0000
  N   N4        1.0  0.31431999999999993  0.9951599999999999  0.9815599999999999  1.0000
  O   O1        1.0  0.46843  0.67711  0.48237  1.0000
  O   O2        1.0  0.51984  0.97406  0.17964  1.0000
  O   O3        1.0  0.24518000000000004  0.83087  0.56602  1.0000
  O   O4        1.0  0.14307  0.79332  0.22343  1.0000
  O   O5        1.0  0.27943  0.14266  0.23746  1.0000
  O   O6        1.0  0.50914  0.16948999999999997  0.026099999999999995  1.0000
  O   O7        1.0  0.46859  0.4763999999999999  0.33313  1.0000
  O   O8        1.0  0.76637  0.36536  0.93676  1.0000
  O   O9        1.0  0.9099400000000001  0.3223499999999999  0.27536999999999995  1.0000
  O   O10       1.0  0.74886  0.64025  0.20667  1.0000
  O   O11       1.0  0.50762  0.32802  0.53326  1.0000
  O   O12       1.0  0.48556000000000005  0.020779999999999996  0.83136  1.0000
  O   O13       1.0  0.7547  0.16805  0.4092  1.0000
  O   O14       1.0  0.8855299999999998  0.19522999999999993  0.7827199999999997  1.0000
  O   O15       1.0  0.71962  0.8413999999999999  0.74077  1.0000
  O   O16       1.0  0.52008  0.82561  0.98484  1.0000
  O   O17       1.0  0.50797  0.51264  0.6756499999999999  1.0000
  O   O18       1.0  0.25099  0.59805  0.011209999999999996  1.0000
  O   O19       1.0  0.10862  0.70904  0.71398  1.0000
  O   O20       1.0  0.28036  0.32789999999999997  0.8151199999999997  1.0000
