data_image0
_chemical_formula_structural       Zn2H48C30N48
_chemical_formula_sum              "Zn2 H48 C30 N48"
_cell_length_a       12.18586
_cell_length_b       12.185960000000001
_cell_length_c       12.185910000000002
_cell_angle_alpha    90.87773999999999
_cell_angle_beta     90.87693999999999
_cell_angle_gamma    90.87693

_symmetry_space_group_name_H-M    'P 1'
_symmetry_Int_Tables_number       1

loop_
  _symmetry_equiv_pos_as_xyz
  'x,y,z'

loop_
  _atom_site_type_symbol
  _atom_site_label
  _atom_site_symmetry_multiplicity
  _atom_site_fract_x
  _atom_site_fract_y
  _atom_site_fract_z
  _atom_site_occupancy
  Zn  Zn1       1.0  0.7253899999999999  0.72538  0.72539  1.0000
  Zn  Zn2       1.0  0.22014  0.22014000000000003  0.22014  1.0000
  H   H1        1.0  0.25603  0.07326000000000002  0.9855800000000001  1.0000
  H   H2        1.0  0.73189  0.45029000000000013  0.7925700000000001  1.0000
  H   H3        1.0  0.45753999999999995  0.1928  0.37106  1.0000
  H   H4        1.0  0.68576  0.71234  0.00273  1.0000
  H   H5        1.0  0.71048  0.28825  0.08625  1.0000
  H   H6        1.0  0.60167  0.28995  0.9851200000000001  1.0000
  H   H7        1.0  0.70123  0.08920000000000003  0.09982000000000002  1.0000
  H   H8        1.0  0.7217499999999999  0.12506000000000003  0.96142  1.0000
  H   H9        1.0  0.50156  0.05016  0.060180000000000004  1.0000
  H   H10       1.0  0.51761  0.09334000000000003  0.92253  1.0000
  H   H11       1.0  0.14932  0.45432000000000006  0.83317  1.0000
  H   H12       1.0  0.16107  0.34966000000000014  0.72837  1.0000
  H   H13       1.0  0.36307  0.3491500000000001  0.7528100000000001  1.0000
  H   H14       1.0  0.31546  0.47766  0.7085300000000001  1.0000
  H   H15       1.0  0.33536999999999995  0.55479  0.90015  1.0000
  H   H16       1.0  0.3758  0.42380000000000007  0.9486400000000001  1.0000
  H   H17       1.0  0.9855699999999998  0.25602  0.07327  1.0000
  H   H18       1.0  0.7925699999999999  0.7318900000000003  0.4503000000000001  1.0000
  H   H19       1.0  0.37106  0.4575400000000001  0.19281  1.0000
  H   H20       1.0  0.002730000000000001  0.68576  0.7123500000000001  1.0000
  H   H21       1.0  0.08625  0.7104800000000002  0.28825  1.0000
  H   H22       1.0  0.9851199999999999  0.60167  0.28995  1.0000
  H   H23       1.0  0.09982  0.70123  0.08920000000000002  1.0000
  H   H24       1.0  0.96141  0.72175  0.12507  1.0000
  H   H25       1.0  0.06018  0.50156  0.05015  1.0000
  H   H26       1.0  0.9225199999999999  0.5176200000000001  0.09334  1.0000
  H   H27       1.0  0.83316  0.14932000000000004  0.45432  1.0000
  H   H28       1.0  0.7283599999999999  0.16107000000000002  0.34966  1.0000
  H   H29       1.0  0.75281  0.36307  0.34915  1.0000
  H   H30       1.0  0.70852  0.3154600000000001  0.47766  1.0000
  H   H31       1.0  0.90015  0.33536  0.55479  1.0000
  H   H32       1.0  0.9486299999999998  0.37579  0.4238000000000001  1.0000
  H   H33       1.0  0.07326  0.9855700000000001  0.25603  1.0000
  H   H34       1.0  0.4503  0.79257  0.7319  1.0000
  H   H35       1.0  0.1928  0.37105  0.45754  1.0000
  H   H36       1.0  0.7123399999999998  0.0027200000000000037  0.6857700000000001  1.0000
  H   H37       1.0  0.28824999999999995  0.08625  0.71048  1.0000
  H   H38       1.0  0.28995  0.98511  0.60167  1.0000
  H   H39       1.0  0.0892  0.09981000000000002  0.7012300000000001  1.0000
  H   H40       1.0  0.12507000000000001  0.9614100000000002  0.72175  1.0000
  H   H41       1.0  0.05015  0.06017  0.50156  1.0000
  H   H42       1.0  0.09334  0.9225200000000002  0.51762  1.0000
  H   H43       1.0  0.45432999999999996  0.8331600000000001  0.14933  1.0000
  H   H44       1.0  0.34966  0.7283600000000001  0.16107  1.0000
  H   H45       1.0  0.34915  0.7528100000000001  0.36307  1.0000
  H   H46       1.0  0.47766  0.7085200000000001  0.31546  1.0000
  H   H47       1.0  0.55479  0.90014  0.33537  1.0000
  H   H48       1.0  0.4238  0.9486300000000002  0.3758  1.0000
  C   C1        1.0  0.23251  0.15628  0.96702  1.0000
  C   C2        1.0  0.65193  0.4839800000000001  0.80798  1.0000
  C   C3        1.0  0.47503  0.21538  0.28749  1.0000
  C   C4        1.0  0.6572  0.7902300000000002  0.97276  1.0000
  C   C5        1.0  0.6355  0.24628  0.05580000000000001  1.0000
  C   C6        1.0  0.6619  0.12636  0.02806  1.0000
  C   C7        1.0  0.5602599999999999  0.05768  0.9931700000000001  1.0000
  C   C8        1.0  0.19862  0.38573  0.80322  1.0000
  C   C9        1.0  0.31687  0.42161  0.77838  1.0000
  C   C10       1.0  0.37501  0.47768  0.87725  1.0000
  C   C11       1.0  0.9670099999999999  0.23251000000000005  0.15628  1.0000
  C   C12       1.0  0.8079799999999999  0.6519300000000001  0.48399  1.0000
  C   C13       1.0  0.28749  0.4750200000000001  0.21538  1.0000
  C   C14       1.0  0.9727599999999997  0.6572  0.7902400000000003  1.0000
  C   C15       1.0  0.055789999999999985  0.6355000000000001  0.24628000000000003  1.0000
  C   C16       1.0  0.028059999999999998  0.6619  0.12636  1.0000
  C   C17       1.0  0.99316  0.56026  0.05768000000000001  1.0000
  C   C18       1.0  0.80321  0.19862000000000005  0.38573  1.0000
  C   C19       1.0  0.77837  0.31687  0.42161  1.0000
  C   C20       1.0  0.8772499999999998  0.375  0.47769  1.0000
  C   C21       1.0  0.15628  0.9670100000000003  0.23251  1.0000
  C   C22       1.0  0.4839799999999999  0.8079800000000001  0.65193  1.0000
  C   C23       1.0  0.21538  0.28748  0.4750300000000001  1.0000
  C   C24       1.0  0.7902300000000002  0.9727500000000001  0.65721  1.0000
  C   C25       1.0  0.24627999999999997  0.055800000000000016  0.6355  1.0000
  C   C26       1.0  0.12636  0.028050000000000005  0.6619  1.0000
  C   C27       1.0  0.05768000000000001  0.9931600000000003  0.56026  1.0000
  C   C28       1.0  0.38573  0.80321  0.19863  1.0000
  C   C29       1.0  0.42161  0.77837  0.31687  1.0000
  C   C30       1.0  0.4776899999999999  0.87724  0.37501000000000007  1.0000
  N   N1        1.0  0.22812  0.19663000000000005  0.8658900000000002  1.0000
  N   N2        1.0  0.19533999999999996  0.30152  0.88628  1.0000
  N   N3        1.0  0.18397999999999995  0.32547  0.99494  1.0000
  N   N4        1.0  0.20623  0.23079000000000005  0.04479  1.0000
  N   N5        1.0  0.56819  0.42732  0.8499  1.0000
  N   N6        1.0  0.48891  0.5046900000000001  0.8535000000000001  1.0000
  N   N7        1.0  0.5207  0.6029500000000001  0.8133700000000001  1.0000
  N   N8        1.0  0.62588  0.5886900000000002  0.7855200000000001  1.0000
  N   N9        1.0  0.57606  0.22369  0.24734  1.0000
  N   N10       1.0  0.5544999999999999  0.25421  0.14183  1.0000
  N   N11       1.0  0.44525  0.2599600000000001  0.11747  1.0000
  N   N12       1.0  0.39622  0.23671000000000006  0.2122  1.0000
  N   N13       1.0  0.6112499999999998  0.8671300000000002  0.03549  1.0000
  N   N14       1.0  0.59042  0.9467100000000002  0.9610100000000001  1.0000
  N   N15       1.0  0.6253  0.92199  0.8584400000000001  1.0000
  N   N16       1.0  0.6664499999999998  0.8205800000000002  0.86698  1.0000
  N   N17       1.0  0.86588  0.22812000000000004  0.19663000000000003  1.0000
  N   N18       1.0  0.88628  0.19534  0.30152  1.0000
  N   N19       1.0  0.99493  0.18398000000000003  0.32548  1.0000
  N   N20       1.0  0.04479  0.20623  0.23079  1.0000
  N   N21       1.0  0.8499  0.5681800000000001  0.42732  1.0000
  N   N22       1.0  0.8535000000000001  0.4889  0.50469  1.0000
  N   N23       1.0  0.8133699999999998  0.5207  0.60295  1.0000
  N   N24       1.0  0.78552  0.6258800000000001  0.58869  1.0000
  N   N25       1.0  0.24734  0.5760500000000001  0.22369000000000003  1.0000
  N   N26       1.0  0.14182  0.5545000000000001  0.25421  1.0000
  N   N27       1.0  0.11747  0.4452500000000001  0.25996  1.0000
  N   N28       1.0  0.21219999999999997  0.39621000000000006  0.23672  1.0000
  N   N29       1.0  0.0355  0.6112400000000001  0.86713  1.0000
  N   N30       1.0  0.96101  0.59041  0.9467200000000001  1.0000
  N   N31       1.0  0.8584299999999999  0.6253000000000001  0.9220000000000002  1.0000
  N   N32       1.0  0.8669799999999998  0.66645  0.82059  1.0000
  N   N33       1.0  0.19663  0.8658800000000002  0.22812  1.0000
  N   N34       1.0  0.30152  0.8862800000000002  0.19535  1.0000
  N   N35       1.0  0.32548  0.9949300000000001  0.18399000000000004  1.0000
  N   N36       1.0  0.23078999999999994  0.04479000000000001  0.20623000000000002  1.0000
  N   N37       1.0  0.42732  0.8498900000000003  0.56819  1.0000
  N   N38       1.0  0.50469  0.8534900000000002  0.48891000000000007  1.0000
  N   N39       1.0  0.60295  0.8133600000000002  0.5207  1.0000
  N   N40       1.0  0.5886899999999999  0.78551  0.62588  1.0000
  N   N41       1.0  0.22367999999999993  0.24734000000000006  0.57606  1.0000
  N   N42       1.0  0.25421  0.14182000000000003  0.5545  1.0000
  N   N43       1.0  0.25996  0.11747000000000002  0.44525000000000003  1.0000
  N   N44       1.0  0.23671  0.21220000000000003  0.39622  1.0000
  N   N45       1.0  0.8671199999999998  0.03549  0.61125  1.0000
  N   N46       1.0  0.9467099999999999  0.9610000000000001  0.59042  1.0000
  N   N47       1.0  0.92199  0.85843  0.6253  1.0000
  N   N48       1.0  0.8205899999999998  0.86698  0.6664600000000002  1.0000
