data_image0
_chemical_formula_structural       Zn8H56C56N16O10
_chemical_formula_sum              "Zn8 H56 C56 N16 O10"
_cell_length_a       11.57677
_cell_length_b       11.57678
_cell_length_c       26.0911
_cell_angle_alpha    90.0
_cell_angle_beta     90.0
_cell_angle_gamma    90.07516000000001

_symmetry_space_group_name_H-M    'P 1'
_symmetry_Int_Tables_number       1

loop_
  _symmetry_equiv_pos_as_xyz
  'x,y,z'

loop_
  _atom_site_type_symbol
  _atom_site_label
  _atom_site_symmetry_multiplicity
  _atom_site_fract_x
  _atom_site_fract_y
  _atom_site_fract_z
  _atom_site_occupancy
  Zn  Zn1       1.0  0.59874  0.59874  0.79278  1.0000
  Zn  Zn2       1.0  0.40126  0.40126  0.79278  1.0000
  Zn  Zn3       1.0  0.40137  0.59862  0.29219999999999996  1.0000
  Zn  Zn4       1.0  0.59862  0.4013699999999999  0.29219999999999996  1.0000
  Zn  Zn5       1.0  0.40137  0.59862  0.70779  1.0000
  Zn  Zn6       1.0  0.59862  0.4013699999999999  0.70779  1.0000
  Zn  Zn7       1.0  0.59874  0.59874  0.20721999999999993  1.0000
  Zn  Zn8       1.0  0.40126  0.40126  0.20721999999999993  1.0000
  H   H1        1.0  0.91196  0.72833  0.8119499999999997  1.0000
  H   H2        1.0  0.82053  0.64767  0.8534599999999998  1.0000
  H   H3        1.0  0.96908  0.61069  0.8469299999999997  1.0000
  H   H4        1.0  0.08804  0.27166  0.8119499999999997  1.0000
  H   H5        1.0  0.17947  0.3523299999999999  0.8534599999999998  1.0000
  H   H6        1.0  0.030910000000000003  0.38931  0.8469299999999997  1.0000
  H   H7        1.0  0.27176  0.91163  0.31191  1.0000
  H   H8        1.0  0.35222000000000003  0.82031  0.3534599999999999  1.0000
  H   H9        1.0  0.38949  0.9689299999999998  0.34689  1.0000
  H   H10       1.0  0.72824  0.08836  0.31191  1.0000
  H   H11       1.0  0.64777  0.17969  0.3534599999999999  1.0000
  H   H12       1.0  0.6105  0.031069999999999997  0.34689  1.0000
  H   H13       1.0  0.08835999999999998  0.72824  0.68809  1.0000
  H   H14       1.0  0.17969  0.6477699999999998  0.6465399999999999  1.0000
  H   H15       1.0  0.03107  0.6105  0.6531099999999997  1.0000
  H   H16       1.0  0.91163  0.27176  0.68809  1.0000
  H   H17       1.0  0.82031  0.35222  0.6465399999999999  1.0000
  H   H18       1.0  0.96893  0.3894899999999999  0.6531099999999997  1.0000
  H   H19       1.0  0.72833  0.9119599999999999  0.18804  1.0000
  H   H20       1.0  0.64767  0.8205299999999998  0.14653  1.0000
  H   H21       1.0  0.61069  0.96908  0.15307  1.0000
  H   H22       1.0  0.27166  0.08804  0.18804  1.0000
  H   H23       1.0  0.35233  0.17946999999999994  0.14653  1.0000
  H   H24       1.0  0.38931  0.030909999999999993  0.15307  1.0000
  H   H25       1.0  0.08804  0.27166  0.18804  1.0000
  H   H26       1.0  0.17947  0.3523299999999999  0.14653  1.0000
  H   H27       1.0  0.030910000000000003  0.38931  0.15307  1.0000
  H   H28       1.0  0.91196  0.72833  0.18804  1.0000
  H   H29       1.0  0.82053  0.64767  0.14653  1.0000
  H   H30       1.0  0.96908  0.61069  0.15307  1.0000
  H   H31       1.0  0.72824  0.08836  0.68809  1.0000
  H   H32       1.0  0.64777  0.17969  0.6465399999999999  1.0000
  H   H33       1.0  0.6105  0.031069999999999997  0.6531099999999997  1.0000
  H   H34       1.0  0.27176  0.91163  0.68809  1.0000
  H   H35       1.0  0.35222000000000003  0.82031  0.6465399999999999  1.0000
  H   H36       1.0  0.38949  0.9689299999999998  0.6531099999999997  1.0000
  H   H37       1.0  0.91163  0.27176  0.31191  1.0000
  H   H38       1.0  0.82031  0.35222  0.3534599999999999  1.0000
  H   H39       1.0  0.96893  0.3894899999999999  0.34689  1.0000
  H   H40       1.0  0.08835999999999998  0.72824  0.31191  1.0000
  H   H41       1.0  0.17969  0.6477699999999998  0.3534599999999999  1.0000
  H   H42       1.0  0.03107  0.6105  0.34689  1.0000
  H   H43       1.0  0.27166  0.08804  0.8119499999999997  1.0000
  H   H44       1.0  0.35233  0.17946999999999994  0.8534599999999998  1.0000
  H   H45       1.0  0.38931  0.030909999999999993  0.8469299999999997  1.0000
  H   H46       1.0  0.72833  0.9119599999999999  0.8119499999999997  1.0000
  H   H47       1.0  0.64767  0.8205299999999998  0.8534599999999998  1.0000
  H   H48       1.0  0.61069  0.96908  0.8469299999999997  1.0000
  H   H49       1.0  0.63097  0.6309699999999999  0.9518199999999998  1.0000
  H   H50       1.0  0.36903  0.36903  0.9518199999999998  1.0000
  H   H51       1.0  0.3692099999999999  0.63078  0.45183999999999996  1.0000
  H   H52       1.0  0.63078  0.3692099999999999  0.45183999999999996  1.0000
  H   H53       1.0  0.3692099999999999  0.63078  0.54816  1.0000
  H   H54       1.0  0.63078  0.3692099999999999  0.54816  1.0000
  H   H55       1.0  0.63097  0.6309699999999999  0.04818  1.0000
  H   H56       1.0  0.36903  0.36903  0.04818  1.0000
  C   C1        1.0  0.89238  0.64098  0.82614  1.0000
  C   C2        1.0  0.86266  0.56063  0.78331  1.0000
  C   C3        1.0  0.10761  0.35900999999999994  0.82614  1.0000
  C   C4        1.0  0.13734  0.43936  0.78331  1.0000
  C   C5        1.0  0.35906  0.8921499999999999  0.32613  1.0000
  C   C6        1.0  0.43942  0.8625  0.2833  1.0000
  C   C7        1.0  0.64093  0.10784999999999999  0.32613  1.0000
  C   C8        1.0  0.56057  0.13749  0.2833  1.0000
  C   C9        1.0  0.10785  0.64093  0.6738699999999997  1.0000
  C   C10       1.0  0.13749  0.5605699999999999  0.7166999999999998  1.0000
  C   C11       1.0  0.89215  0.35905999999999993  0.6738699999999997  1.0000
  C   C12       1.0  0.8625000000000002  0.43942  0.7166999999999998  1.0000
  C   C13       1.0  0.64098  0.8923799999999997  0.17384999999999995  1.0000
  C   C14       1.0  0.56063  0.8626599999999998  0.21669  1.0000
  C   C15       1.0  0.35901  0.10760999999999998  0.17384999999999995  1.0000
  C   C16       1.0  0.43936  0.13733999999999996  0.21669  1.0000
  C   C17       1.0  0.10761  0.35900999999999994  0.17384999999999995  1.0000
  C   C18       1.0  0.13734  0.43936  0.21669  1.0000
  C   C19       1.0  0.89238  0.64098  0.17384999999999995  1.0000
  C   C20       1.0  0.86266  0.56063  0.21669  1.0000
  C   C21       1.0  0.64093  0.10784999999999999  0.6738699999999997  1.0000
  C   C22       1.0  0.56057  0.13749  0.7166999999999998  1.0000
  C   C23       1.0  0.35906  0.8921499999999999  0.6738699999999997  1.0000
  C   C24       1.0  0.43942  0.8625  0.7166999999999998  1.0000
  C   C25       1.0  0.89215  0.35905999999999993  0.32613  1.0000
  C   C26       1.0  0.8625000000000002  0.43942  0.2833  1.0000
  C   C27       1.0  0.10785  0.64093  0.32613  1.0000
  C   C28       1.0  0.13749  0.5605699999999999  0.2833  1.0000
  C   C29       1.0  0.35901  0.10760999999999998  0.82614  1.0000
  C   C30       1.0  0.43936  0.13733999999999996  0.78331  1.0000
  C   C31       1.0  0.64098  0.8923799999999997  0.82614  1.0000
  C   C32       1.0  0.56063  0.8626599999999998  0.78331  1.0000
  C   C33       1.0  0.57416  0.57416  0.9733499999999998  1.0000
  C   C34       1.0  0.42584  0.42584  0.9733499999999998  1.0000
  C   C35       1.0  0.4260300000000001  0.5739699999999999  0.4733199999999999  1.0000
  C   C36       1.0  0.57397  0.42603  0.4733199999999999  1.0000
  C   C37       1.0  0.4260300000000001  0.5739699999999999  0.52668  1.0000
  C   C38       1.0  0.57397  0.42603  0.52668  1.0000
  C   C39       1.0  0.57416  0.57416  0.02665  1.0000
  C   C40       1.0  0.42584  0.42584  0.02665  1.0000
  C   C41       1.0  0.93664  0.50002  0.75001  1.0000
  C   C42       1.0  0.06336  0.49997999999999987  0.75001  1.0000
  C   C43       1.0  0.50002  0.9366399999999998  0.24998999999999996  1.0000
  C   C44       1.0  0.49998  0.06336  0.24998999999999996  1.0000
  C   C45       1.0  0.06336  0.49997999999999987  0.24998999999999996  1.0000
  C   C46       1.0  0.93664  0.50002  0.24998999999999996  1.0000
  C   C47       1.0  0.49998  0.06336  0.75001  1.0000
  C   C48       1.0  0.50002  0.9366399999999998  0.75001  1.0000
  C   C49       1.0  0.5  0.4999999999999999  0.8890699999999998  1.0000
  C   C50       1.0  0.5  0.4999999999999999  0.94638  1.0000
  C   C51       1.0  0.5  0.4999999999999999  0.38867  1.0000
  C   C52       1.0  0.5  0.4999999999999999  0.4461699999999999  1.0000
  C   C53       1.0  0.5  0.4999999999999999  0.6113299999999999  1.0000
  C   C54       1.0  0.5  0.4999999999999999  0.55383  1.0000
  C   C55       1.0  0.5  0.4999999999999999  0.11093  1.0000
  C   C56       1.0  0.5  0.4999999999999999  0.05361999999999999  1.0000
  N   N1        1.0  0.7518100000000001  0.5372699999999999  0.77062  1.0000
  N   N2        1.0  0.24818  0.46273  0.77062  1.0000
  N   N3        1.0  0.46286000000000005  0.7517299999999998  0.27058999999999994  1.0000
  N   N4        1.0  0.53713  0.24826  0.27058999999999994  1.0000
  N   N5        1.0  0.24826  0.53713  0.7294099999999998  1.0000
  N   N6        1.0  0.75173  0.4628599999999999  0.7294099999999998  1.0000
  N   N7        1.0  0.53727  0.7518099999999999  0.22938  1.0000
  N   N8        1.0  0.46273  0.24817999999999996  0.22938  1.0000
  N   N9        1.0  0.24818  0.46273  0.22938  1.0000
  N   N10       1.0  0.7518100000000001  0.5372699999999999  0.22938  1.0000
  N   N11       1.0  0.53713  0.24826  0.7294099999999998  1.0000
  N   N12       1.0  0.46286000000000005  0.7517299999999998  0.7294099999999998  1.0000
  N   N13       1.0  0.75173  0.4628599999999999  0.27058999999999994  1.0000
  N   N14       1.0  0.24826  0.53713  0.27058999999999994  1.0000
  N   N15       1.0  0.46273  0.24817999999999996  0.77062  1.0000
  N   N16       1.0  0.53727  0.7518099999999999  0.77062  1.0000
  O   O1        1.0  0.57007  0.57007  0.86731  1.0000
  O   O2        1.0  0.42992  0.4299199999999999  0.86731  1.0000
  O   O3        1.0  0.43014  0.56986  0.36674  1.0000
  O   O4        1.0  0.56986  0.4301399999999999  0.36674  1.0000
  O   O5        1.0  0.43014  0.56986  0.63326  1.0000
  O   O6        1.0  0.56986  0.4301399999999999  0.63326  1.0000
  O   O7        1.0  0.57007  0.57007  0.13269  1.0000
  O   O8        1.0  0.42992  0.4299199999999999  0.13269  1.0000
  O   O9        1.0  0.5  0.4999999999999999  0.7503699999999998  1.0000
  O   O10       1.0  0.5  0.4999999999999999  0.24961999999999995  1.0000
