data_image0
_chemical_formula_structural       Zn4H24C68S8N8O24
_chemical_formula_sum              "Zn4 H24 C68 S8 N8 O24"
_cell_length_a       7.95176
_cell_length_b       13.07688
_cell_length_c       21.31497
_cell_angle_alpha    89.98584
_cell_angle_beta     89.87812
_cell_angle_gamma    95.72087

_space_group_name_H-M_alt    "P 1"
_space_group_IT_number       1

loop_
  _space_group_symop_operation_xyz
  'x, y, z'

loop_
  _atom_site_type_symbol
  _atom_site_label
  _atom_site_symmetry_multiplicity
  _atom_site_fract_x
  _atom_site_fract_y
  _atom_site_fract_z
  _atom_site_occupancy
  Zn  Zn1       1.0  0.32914  0.13681  0.7068100000000002  1.0000
  Zn  Zn2       1.0  0.6712  0.36394  0.20801000000000003  1.0000
  Zn  Zn3       1.0  0.67086  0.8631900000000002  0.29320000000000007  1.0000
  Zn  Zn4       1.0  0.3288  0.6360500000000002  0.792  1.0000
  H   H1        1.0  0.25669  0.64544  0.3968  1.0000
  H   H2        1.0  0.26647  0.4654800000000001  0.35574000000000006  1.0000
  H   H3        1.0  0.25819  0.7625600000000001  0.6513400000000001  1.0000
  H   H4        1.0  0.54954  0.10022  0.59416  1.0000
  H   H5        1.0  0.20512  0.9231700000000002  0.70763  1.0000
  H   H6        1.0  0.62307  0.9439200000000002  0.53627  1.0000
  H   H7        1.0  0.74332  0.8554200000000001  0.8958600000000002  1.0000
  H   H8        1.0  0.73315  0.03569  0.85546  1.0000
  H   H9        1.0  0.74145  0.73754  0.15106000000000003  1.0000
  H   H10       1.0  0.4503  0.3995600000000001  0.09521  1.0000
  H   H11       1.0  0.79287  0.5776500000000001  0.20826000000000006  1.0000
  H   H12       1.0  0.37835  0.55515  0.03643  1.0000
  H   H13       1.0  0.74331  0.35455000000000003  0.6032  1.0000
  H   H14       1.0  0.73353  0.53452  0.6442700000000001  1.0000
  H   H15       1.0  0.74181  0.23744  0.34866  1.0000
  H   H16       1.0  0.45046  0.8997800000000001  0.40584000000000003  1.0000
  H   H17       1.0  0.79488  0.07683000000000002  0.29237  1.0000
  H   H18       1.0  0.37693  0.05608  0.46373000000000003  1.0000
  H   H19       1.0  0.25668  0.14458000000000001  0.10414000000000001  1.0000
  H   H20       1.0  0.26685  0.96431  0.14454  1.0000
  H   H21       1.0  0.25855  0.26245  0.84894  1.0000
  H   H22       1.0  0.5497  0.60044  0.90479  1.0000
  H   H23       1.0  0.20712999999999998  0.42235  0.7917400000000001  1.0000
  H   H24       1.0  0.62165  0.44485000000000013  0.9635700000000001  1.0000
  C   C1        1.0  0.49711  0.55086  0.51163  1.0000
  C   C2        1.0  0.44448  0.8423800000000002  0.58966  1.0000
  C   C3        1.0  0.39206  0.72461  0.50176  1.0000
  C   C4        1.0  0.21046  0.88245  0.89595  1.0000
  C   C5        1.0  0.5785  0.6846  0.59299  1.0000
  C   C6        1.0  0.40571000000000007  0.6203100000000001  0.47764000000000006  1.0000
  C   C7        1.0  0.32489  0.59006  0.42179  1.0000
  C   C8        1.0  0.58447  0.5802700000000001  0.56768  1.0000
  C   C9        1.0  0.32951  0.48995  0.3991300000000001  1.0000
  C   C10       1.0  0.28239000000000003  0.7881600000000002  0.87196  1.0000
  C   C11       1.0  0.32456  0.83599  0.63768  1.0000
  C   C12       1.0  0.49023  0.024050000000000005  0.6062000000000001  1.0000
  C   C13       1.0  0.29463  0.9252100000000002  0.66898  1.0000
  C   C14       1.0  0.52892  0.9372300000000002  0.57351  1.0000
  C   C15       1.0  0.21552  0.97896  0.8710800000000001  1.0000
  C   C16       1.0  0.04115999999999998  0.98456  0.9742500000000002  1.0000
  C   C17       1.0  0.31069  0.01919  0.81439  1.0000
  C   C18       1.0  0.503  0.94904  0.01147  1.0000
  C   C19       1.0  0.55638  0.6572800000000001  0.08940000000000001  1.0000
  C   C20       1.0  0.60789  0.77525  0.00112  1.0000
  C   C21       1.0  0.78951  0.61725  0.3962200000000001  1.0000
  C   C22       1.0  0.42218  0.81498  0.09291  1.0000
  C   C23       1.0  0.59444  0.87979  0.9772200000000001  1.0000
  C   C24       1.0  0.67523  0.91048  0.9212900000000003  1.0000
  C   C25       1.0  0.41571  0.9192800000000002  0.0676  1.0000
  C   C26       1.0  0.6704199999999998  0.010780000000000003  0.8989400000000002  1.0000
  C   C27       1.0  0.71802  0.7111000000000002  0.37151  1.0000
  C   C28       1.0  0.67542  0.664  0.13756  1.0000
  C   C29       1.0  0.50985  0.4757600000000001  0.10689  1.0000
  C   C30       1.0  0.7044  0.57512  0.16939  1.0000
  C   C31       1.0  0.4721  0.56225  0.07366000000000002  1.0000
  C   C32       1.0  0.78553  0.52066  0.37162000000000006  1.0000
  C   C33       1.0  0.9589  0.51552  0.4743600000000001  1.0000
  C   C34       1.0  0.6922900000000002  0.47921000000000014  0.31508  1.0000
  C   C35       1.0  0.5028900000000002  0.4491400000000001  0.4883700000000001  1.0000
  C   C36       1.0  0.55552  0.15762000000000007  0.41034  1.0000
  C   C37       1.0  0.60794  0.27539  0.49825000000000014  1.0000
  C   C38       1.0  0.78954  0.11755000000000003  0.10405000000000002  1.0000
  C   C39       1.0  0.42151  0.31539  0.40701000000000004  1.0000
  C   C40       1.0  0.59429  0.3796900000000001  0.52236  1.0000
  C   C41       1.0  0.67511  0.40994000000000014  0.5782100000000001  1.0000
  C   C42       1.0  0.41553  0.41973000000000005  0.43232000000000004  1.0000
  C   C43       1.0  0.67049  0.51004  0.60088  1.0000
  C   C44       1.0  0.71761  0.21184000000000006  0.12804  1.0000
  C   C45       1.0  0.67544  0.164  0.36232  1.0000
  C   C46       1.0  0.50977  0.9759500000000001  0.39380000000000004  1.0000
  C   C47       1.0  0.70538  0.07479  0.33102  1.0000
  C   C48       1.0  0.47108  0.06276  0.42649  1.0000
  C   C49       1.0  0.78448  0.02104  0.12892  1.0000
  C   C50       1.0  0.95884  0.015440000000000004  0.025750000000000002  1.0000
  C   C51       1.0  0.6893099999999998  0.98081  0.18562000000000003  1.0000
  C   C52       1.0  0.49701  0.05096  0.98853  1.0000
  C   C53       1.0  0.4436300000000001  0.34272000000000014  0.9106100000000001  1.0000
  C   C54       1.0  0.39212  0.22475000000000006  0.9988900000000001  1.0000
  C   C55       1.0  0.21049000000000004  0.3827500000000001  0.6037900000000002  1.0000
  C   C56       1.0  0.57782  0.18502000000000005  0.90709  1.0000
  C   C57       1.0  0.40556  0.12020000000000003  0.02278  1.0000
  C   C58       1.0  0.32477  0.08952  0.07871000000000002  1.0000
  C   C59       1.0  0.58429  0.08072000000000001  0.93241  1.0000
  C   C60       1.0  0.32958000000000004  0.9892100000000003  0.10106  1.0000
  C   C61       1.0  0.28198  0.2889  0.62849  1.0000
  C   C62       1.0  0.32459  0.33599  0.86244  1.0000
  C   C63       1.0  0.49016  0.52424  0.8931100000000001  1.0000
  C   C64       1.0  0.2956  0.42488  0.8306100000000002  1.0000
  C   C65       1.0  0.5279  0.43775000000000003  0.92634  1.0000
  C   C66       1.0  0.21448  0.4793300000000001  0.62838  1.0000
  C   C67       1.0  0.04110000000000001  0.48447  0.52564  1.0000
  C   C68       1.0  0.30771  0.52079  0.6849200000000001  1.0000
  S   S1        1.0  0.10089  0.06712  0.9106900000000001  1.0000
  S   S2        1.0  0.09627000000000004  0.8580300000000001  0.9652600000000001  1.0000
  S   S3        1.0  0.90045  0.43285  0.41103000000000006  1.0000
  S   S4        1.0  0.90328  0.6420500000000001  0.46548  1.0000
  S   S5        1.0  0.89911  0.9328700000000001  0.08931  1.0000
  S   S6        1.0  0.90373  0.14197  0.03474  1.0000
  S   S7        1.0  0.09955  0.56714  0.58897  1.0000
  S   S8        1.0  0.09672000000000003  0.3579500000000001  0.53452  1.0000
  N   N1        1.0  0.47811  0.7490000000000001  0.55869  1.0000
  N   N2        1.0  0.37582  0.01774  0.6535000000000001  1.0000
  N   N3        1.0  0.52242  0.75057  0.05834000000000001  1.0000
  N   N4        1.0  0.62331  0.48244  0.15433  1.0000
  N   N5        1.0  0.52189  0.251  0.44131000000000004  1.0000
  N   N6        1.0  0.62418  0.98226  0.3465  1.0000
  N   N7        1.0  0.47758  0.24943  0.9416700000000001  1.0000
  N   N8        1.0  0.37669  0.51755  0.84567  1.0000
  O   O1        1.0  0.6499800000000001  0.71694  0.64118  1.0000
  O   O2        1.0  0.30942  0.78805  0.4764700000000001  1.0000
  O   O3        1.0  0.27537  0.77267  0.8114  1.0000
  O   O4        1.0  0.33247000000000004  0.7271000000000001  0.9109600000000001  1.0000
  O   O5        1.0  0.24875  0.10124000000000001  0.79046  1.0000
  O   O6        1.0  0.43396  0.9799  0.7935300000000001  1.0000
  O   O7        1.0  0.35088  0.78287  0.14131000000000002  1.0000
  O   O8        1.0  0.69011  0.712  0.9753200000000001  1.0000
  O   O9        1.0  0.72552  0.72618  0.3109100000000001  1.0000
  O   O10       1.0  0.66729  0.77305  0.40990000000000004  1.0000
  O   O11       1.0  0.75909  0.3991100000000001  0.29074000000000005  1.0000
  O   O12       1.0  0.5656  0.51539  0.29481  1.0000
  O   O13       1.0  0.35003  0.28306  0.35882000000000003  1.0000
  O   O14       1.0  0.69058  0.21195000000000003  0.52353  1.0000
  O   O15       1.0  0.72464  0.22733  0.1886  1.0000
  O   O16       1.0  0.66753  0.2729  0.08904000000000001  1.0000
  O   O17       1.0  0.75126  0.89876  0.20954000000000003  1.0000
  O   O18       1.0  0.56604  0.0201  0.20647000000000001  1.0000
  O   O19       1.0  0.64913  0.21713  0.8586900000000001  1.0000
  O   O20       1.0  0.30989000000000005  0.28800000000000003  0.02469  1.0000
  O   O21       1.0  0.27448  0.27381  0.6890900000000001  1.0000
  O   O22       1.0  0.33271  0.22694000000000006  0.5901000000000001  1.0000
  O   O23       1.0  0.24091  0.6008800000000001  0.70926  1.0000
  O   O24       1.0  0.43440000000000006  0.4846100000000001  0.7051900000000001  1.0000
