data_image0
_chemical_formula_structural       Eu4H24C48O24
_chemical_formula_sum              "Eu4 H24 C48 O24"
_cell_length_a       11.13169
_cell_length_b       11.3332
_cell_length_c       17.4968
_cell_angle_alpha    92.93848999999999
_cell_angle_beta     105.84412
_cell_angle_gamma    119.18539000000001

_symmetry_space_group_name_H-M    'P 1'
_symmetry_Int_Tables_number       1

loop_
  _symmetry_equiv_pos_as_xyz
  'x,y,z'

loop_
  _atom_site_type_symbol
  _atom_site_label
  _atom_site_symmetry_multiplicity
  _atom_site_fract_x
  _atom_site_fract_y
  _atom_site_fract_z
  _atom_site_occupancy
  Eu  Eu1       1.0  0.33035  0.40546  0.38505  1.0000
  Eu  Eu2       1.0  0.009840000000000012  0.09395  0.09924  1.0000
  Eu  Eu3       1.0  0.6696500000000002  0.59454  0.61495  1.0000
  Eu  Eu4       1.0  0.99016  0.9060499999999999  0.90076  1.0000
  H   H1        1.0  0.33902  0.9174  0.24623  1.0000
  H   H2        1.0  0.3661399999999999  0.7152599999999999  0.27562  1.0000
  H   H3        1.0  0.9833100000000002  0.44852999999999993  0.06695  1.0000
  H   H4        1.0  0.9614900000000002  0.65113  0.0339  1.0000
  H   H5        1.0  0.41040000000000015  0.32912  0.71055  1.0000
  H   H6        1.0  0.28688  0.1283  0.77415  1.0000
  H   H7        1.0  0.8819000000000002  0.9678199999999999  0.5762  1.0000
  H   H8        1.0  0.004979999999999974  0.16754  0.51216  1.0000
  H   H9        1.0  0.6900800000000001  0.20218  0.61356  1.0000
  H   H10       1.0  0.32256  0.024769999999999993  0.39008  1.0000
  H   H11       1.0  0.54392  0.54011  0.86883  1.0000
  H   H12       1.0  0.6554200000000001  0.69086  0.12378999999999998  1.0000
  H   H13       1.0  0.66098  0.08259999999999997  0.75377  1.0000
  H   H14       1.0  0.6338600000000001  0.28474  0.72438  1.0000
  H   H15       1.0  0.016689999999999986  0.55147  0.93305  1.0000
  H   H16       1.0  0.038510000000000016  0.34886999999999996  0.96609  1.0000
  H   H17       1.0  0.5896  0.67088  0.28944  1.0000
  H   H18       1.0  0.7131199999999999  0.8716999999999999  0.22585  1.0000
  H   H19       1.0  0.11809999999999997  0.03218000000000001  0.42379  1.0000
  H   H20       1.0  0.9950200000000001  0.83245  0.48784  1.0000
  H   H21       1.0  0.3099200000000001  0.7978100000000001  0.38643  1.0000
  H   H22       1.0  0.6774400000000003  0.97522  0.60992  1.0000
  H   H23       1.0  0.45608  0.45989  0.13116  1.0000
  H   H24       1.0  0.34458  0.30914  0.8762  1.0000
  C   C1        1.0  0.12678999999999996  0.9125199999999999  0.12109  1.0000
  C   C2        1.0  0.14938000000000007  0.7961000000000001  0.13788  1.0000
  C   C3        1.0  0.26323  0.81492  0.20657  1.0000
  C   C4        1.0  0.27776999999999996  0.7026299999999999  0.22324  1.0000
  C   C5        1.0  0.17607  0.57023  0.17285  1.0000
  C   C6        1.0  0.06195999999999992  0.5518799999999999  0.10473  1.0000
  C   C7        1.0  0.049739999999999986  0.6644  0.08654  1.0000
  C   C8        1.0  0.18409999999999996  0.4465299999999999  0.19164  1.0000
  C   C9        1.0  0.28967000000000004  0.3705  0.56563  1.0000
  C   C10       1.0  0.21388999999999997  0.25944  0.60769  1.0000
  C   C11       1.0  0.29477  0.25027  0.68209  1.0000
  C   C12       1.0  0.22676000000000002  0.13933000000000006  0.71729  1.0000
  C   C13       1.0  0.07802000000000005  0.03733000000000003  0.67887  1.0000
  C   C14       1.0  0.9969200000000001  0.047789999999999964  0.60534  1.0000
  C   C15       1.0  0.06477999999999999  0.15864  0.56996  1.0000
  C   C16       1.0  0.00785999999999987  0.9183899999999999  0.7170799999999999  1.0000
  C   C17       1.0  0.5134500000000001  0.26249999999999996  0.50599  1.0000
  C   C18       1.0  0.50689  0.12701  0.50239  1.0000
  C   C19       1.0  0.6073300000000003  0.11321000000000006  0.56416  1.0000
  C   C20       1.0  0.39959000000000006  0.013129999999999998  0.43798  1.0000
  C   C21       1.0  0.72854  0.76582  0.99129  1.0000
  C   C22       1.0  0.6097000000000001  0.62892  0.99582  1.0000
  C   C23       1.0  0.52349  0.52137  0.92572  1.0000
  C   C24       1.0  0.58603  0.60688  0.07002  1.0000
  C   C25       1.0  0.8732100000000002  0.08748  0.8789  1.0000
  C   C26       1.0  0.8506200000000003  0.20389999999999997  0.86212  1.0000
  C   C27       1.0  0.7367700000000001  0.18508  0.79343  1.0000
  C   C28       1.0  0.7222300000000001  0.29737  0.77676  1.0000
  C   C29       1.0  0.8239300000000003  0.42976  0.82714  1.0000
  C   C30       1.0  0.9380399999999999  0.44811999999999996  0.8952699999999999  1.0000
  C   C31       1.0  0.9502600000000002  0.3356  0.91346  1.0000
  C   C32       1.0  0.8159100000000002  0.55347  0.80836  1.0000
  C   C33       1.0  0.71033  0.6295  0.43437  1.0000
  C   C34       1.0  0.78611  0.74056  0.3923  1.0000
  C   C35       1.0  0.70523  0.74973  0.3179  1.0000
  C   C36       1.0  0.77325  0.86067  0.28271  1.0000
  C   C37       1.0  0.92198  0.96267  0.32113  1.0000
  C   C38       1.0  0.003080000000000001  0.9522  0.39466  1.0000
  C   C39       1.0  0.9352200000000003  0.84136  0.43004  1.0000
  C   C40       1.0  0.99214  0.08161  0.28291  1.0000
  C   C41       1.0  0.48655000000000004  0.73749  0.494  1.0000
  C   C42       1.0  0.49311  0.8729899999999999  0.49759999999999993  1.0000
  C   C43       1.0  0.3926700000000003  0.88679  0.43584  1.0000
  C   C44       1.0  0.60041  0.98687  0.56202  1.0000
  C   C45       1.0  0.27146  0.23417999999999997  0.00871  1.0000
  C   C46       1.0  0.3903  0.37108  0.00417  1.0000
  C   C47       1.0  0.47651  0.47861999999999993  0.07428  1.0000
  C   C48       1.0  0.41397000000000006  0.39312  0.92998  1.0000
  O   O1        1.0  0.15419999999999998  0.002539999999999996  0.17975999999999998  1.0000
  O   O2        1.0  0.07156999999999997  0.91507  0.04626  1.0000
  O   O3        1.0  0.28638  0.46225  0.2544  1.0000
  O   O4        1.0  0.08657999999999998  0.32981999999999995  0.1438  1.0000
  O   O5        1.0  0.22332000000000005  0.36227  0.49192  1.0000
  O   O6        1.0  0.42163  0.46765  0.60503  1.0000
  O   O7        1.0  0.87967  0.81646  0.67781  1.0000
  O   O8        1.0  0.07918999999999994  0.92241  0.7889799999999999  1.0000
  O   O9        1.0  0.41644000000000003  0.26829  0.44989  1.0000
  O   O10       1.0  0.61276  0.36362999999999995  0.56495  1.0000
  O   O11       1.0  0.78998  0.86819  0.05194  1.0000
  O   O12       1.0  0.7642900000000002  0.77372  0.92795  1.0000
  O   O13       1.0  0.84579  0.99746  0.82023  1.0000
  O   O14       1.0  0.92843  0.08493  0.95374  1.0000
  O   O15       1.0  0.71363  0.53775  0.7456  1.0000
  O   O16       1.0  0.91342  0.67017  0.8562  1.0000
  O   O17       1.0  0.7766800000000003  0.63773  0.50807  1.0000
  O   O18       1.0  0.5783700000000002  0.53235  0.39497  1.0000
  O   O19       1.0  0.12033  0.18352999999999997  0.32219  1.0000
  O   O20       1.0  0.9208100000000001  0.07758  0.21102  1.0000
  O   O21       1.0  0.5835600000000001  0.7316999999999999  0.55011  1.0000
  O   O22       1.0  0.38724  0.63637  0.43505  1.0000
  O   O23       1.0  0.21001999999999998  0.13181000000000004  0.94806  1.0000
  O   O24       1.0  0.23571  0.22628  0.07205  1.0000
