data_image0
_chemical_formula_structural       Cd10H36C18N90
_chemical_formula_sum              "Cd10 H36 C18 N90"
_cell_length_a       13.19238
_cell_length_b       13.192369999999999
_cell_length_c       13.72543
_cell_angle_alpha    90.0
_cell_angle_beta     90.0
_cell_angle_gamma    120.07124

_space_group_name_H-M_alt    "P 1"
_space_group_IT_number       1

loop_
  _space_group_symop_operation_xyz
  'x, y, z'

loop_
  _atom_site_type_symbol
  _atom_site_label
  _atom_site_symmetry_multiplicity
  _atom_site_fract_x
  _atom_site_fract_y
  _atom_site_fract_z
  _atom_site_occupancy
  Cd  Cd1       1.0  0.33332  0.66656  0.10265  1.0000
  Cd  Cd2       1.0  0.33332  0.66656  0.39735  1.0000
  Cd  Cd3       1.0  0.5091  1e-05  0.49994  1.0000
  Cd  Cd4       1.0  0.5091  1e-05  6.000000000000001e-05  1.0000
  Cd  Cd5       1.0  0.66656  0.33333  0.60265  1.0000
  Cd  Cd6       1.0  9.999999999978122e-06  0.5091  0.50005  1.0000
  Cd  Cd7       1.0  0.66656  0.33333  0.89735  1.0000
  Cd  Cd8       1.0  9.999999999978122e-06  0.5091  0.99994  1.0000
  Cd  Cd9       1.0  0.49087000000000003  0.4908700000000001  0.0  1.0000
  Cd  Cd10      1.0  0.49087000000000003  0.4908700000000001  0.5  1.0000
  H   H1        1.0  0.60235  0.43361  0.18875  1.0000
  H   H2        1.0  0.39755999999999997  0.8309500000000001  0.81124  1.0000
  H   H3        1.0  0.73159  0.03212  0.62844  1.0000
  H   H4        1.0  0.5664899999999999  0.169  0.31125  1.0000
  H   H5        1.0  0.16009  0.20767  0.82778  1.0000
  H   H6        1.0  0.43361  0.6023500000000002  0.81125  1.0000
  H   H7        1.0  0.43361  0.6023500000000002  0.68875  1.0000
  H   H8        1.0  0.20767  0.16009  0.32778  1.0000
  H   H9        1.0  0.16009  0.20767  0.67222  1.0000
  H   H10       1.0  0.8309499999999997  0.39756000000000014  0.31125  1.0000
  H   H11       1.0  0.73159  0.03212  0.87156  1.0000
  H   H12       1.0  0.26865  0.30029  0.37176  1.0000
  H   H13       1.0  0.20767  0.16009  0.17222  1.0000
  H   H14       1.0  0.39755999999999997  0.8309500000000001  0.68875  1.0000
  H   H15       1.0  0.60235  0.43361  0.31125  1.0000
  H   H16       1.0  0.69938  0.9679400000000001  0.12833  1.0000
  H   H17       1.0  0.30028999999999995  0.26865  0.62824  1.0000
  H   H18       1.0  0.9526999999999999  0.79233  0.17217  1.0000
  H   H19       1.0  0.79232  0.9527000000000001  0.67217  1.0000
  H   H20       1.0  0.5664899999999999  0.169  0.18875  1.0000
  H   H21       1.0  0.8309499999999997  0.39756000000000014  0.18875  1.0000
  H   H22       1.0  0.169  0.56649  0.68875  1.0000
  H   H23       1.0  0.0476500000000001  0.8397200000000002  0.82798  1.0000
  H   H24       1.0  0.9679399999999998  0.69938  0.87166  1.0000
  H   H25       1.0  0.26865  0.30029  0.12824  1.0000
  H   H26       1.0  0.9679399999999998  0.69938  0.62833  1.0000
  H   H27       1.0  0.0476500000000001  0.8397200000000002  0.6720200000000001  1.0000
  H   H28       1.0  0.169  0.56649  0.81125  1.0000
  H   H29       1.0  0.9526999999999999  0.79233  0.32783  1.0000
  H   H30       1.0  0.79232  0.9527000000000001  0.8278300000000001  1.0000
  H   H31       1.0  0.69938  0.9679400000000001  0.37166  1.0000
  H   H32       1.0  0.03212000000000008  0.7316000000000001  0.37156  1.0000
  H   H33       1.0  0.8397199999999998  0.047650000000000005  0.17202  1.0000
  H   H34       1.0  0.8397199999999998  0.047650000000000005  0.32798  1.0000
  H   H35       1.0  0.30028999999999995  0.26865  0.8717600000000002  1.0000
  H   H36       1.0  0.03212000000000008  0.7316000000000001  0.12844  1.0000
  C   C1        1.0  0.792  0.13718  0.08261000000000002  1.0000
  C   C2        1.0  0.34506  0.20787000000000005  0.08259  1.0000
  C   C3        1.0  0.13718000000000002  0.7920000000000003  0.91739  1.0000
  C   C4        1.0  0.792  0.13718  0.41739000000000004  1.0000
  C   C5        1.0  0.34506  0.20787000000000005  0.41741  1.0000
  C   C6        1.0  0.9846600000000001  0.50715  0.25  1.0000
  C   C7        1.0  0.13718000000000002  0.7920000000000003  0.58261  1.0000
  C   C8        1.0  0.4928299999999999  0.4775700000000001  0.25  1.0000
  C   C9        1.0  0.50715  0.98466  0.75  1.0000
  C   C10       1.0  0.015379999999999979  0.52246  0.75  1.0000
  C   C11       1.0  0.8630199999999999  0.6549100000000001  0.41737  1.0000
  C   C12       1.0  0.20787  0.34506  0.9174  1.0000
  C   C13       1.0  0.8630199999999999  0.6549100000000001  0.08263  1.0000
  C   C14       1.0  0.47756999999999994  0.49283000000000005  0.75  1.0000
  C   C15       1.0  0.65491  0.8630300000000001  0.58262  1.0000
  C   C16       1.0  0.65491  0.8630300000000001  0.91737  1.0000
  C   C17       1.0  0.5224599999999999  0.015380000000000001  0.25  1.0000
  C   C18       1.0  0.20787  0.34506  0.58259  1.0000
  N   N1        1.0  0.74681  0.96457  0.61838  1.0000
  N   N2        1.0  0.14128  0.7096  0.52649  1.0000
  N   N3        1.0  0.6001599999999999  0.16455  0.7014900000000001  1.0000
  N   N4        1.0  0.50893  0.45734  0.83093  1.0000
  N   N5        1.0  0.5642  0.39977  0.7014900000000001  1.0000
  N   N6        1.0  0.64279  0.7562100000000002  0.90569  1.0000
  N   N7        1.0  0.5451299999999998  0.68458  0.54355  1.0000
  N   N8        1.0  0.75572  0.25561  0.00303  1.0000
  N   N9        1.0  0.8639899999999999  0.44739  0.25  1.0000
  N   N10       1.0  0.4997799999999999  0.24418000000000006  0.49708  1.0000
  N   N11       1.0  0.43585999999999997  0.8354800000000001  0.29851  1.0000
  N   N12       1.0  0.50013  0.7443900000000001  0.50295  1.0000
  N   N13       1.0  0.49111000000000005  0.9484400000000001  0.16907000000000003  1.0000
  N   N14       1.0  0.21742  0.25322  0.88167  1.0000
  N   N15       1.0  0.6845800000000001  0.5451300000000001  0.45644  1.0000
  N   N16       1.0  0.24418000000000004  0.49978000000000006  0.99708  1.0000
  N   N17       1.0  0.24410000000000007  0.8867900000000002  0.5943200000000001  1.0000
  N   N18       1.0  0.44739  0.86399  0.75  1.0000
  N   N19       1.0  0.49111000000000005  0.9484400000000001  0.33093  1.0000
  N   N20       1.0  0.2902699999999999  0.4316000000000001  0.97367  1.0000
  N   N21       1.0  0.74439  0.50013  0.00295  1.0000
  N   N22       1.0  0.2902699999999999  0.4316000000000001  0.52633  1.0000
  N   N23       1.0  0.7562099999999998  0.64279  0.09431  1.0000
  N   N24       1.0  0.24410000000000007  0.8867900000000002  0.90568  1.0000
  N   N25       1.0  0.05160000000000001  0.5426600000000001  0.33093  1.0000
  N   N26       1.0  0.24418000000000004  0.49978000000000006  0.50292  1.0000
  N   N27       1.0  0.21742  0.25322  0.6183300000000002  1.0000
  N   N28       1.0  0.5451299999999998  0.68458  0.95644  1.0000
  N   N29       1.0  0.50013  0.7443900000000001  0.99704  1.0000
  N   N30       1.0  0.05160000000000001  0.5426600000000001  0.16906  1.0000
  N   N31       1.0  0.16454999999999997  0.60016  0.20149  1.0000
  N   N32       1.0  0.4573399999999999  0.50894  0.16906  1.0000
  N   N33       1.0  0.4573399999999999  0.50894  0.33094  1.0000
  N   N34       1.0  0.78222  0.03565  0.11828  1.0000
  N   N35       1.0  0.43585999999999997  0.8354800000000001  0.20149  1.0000
  N   N36       1.0  0.16454999999999997  0.60016  0.29851  1.0000
  N   N37       1.0  0.4315999999999999  0.29027  0.47367  1.0000
  N   N38       1.0  0.75572  0.25561  0.49697  1.0000
  N   N39       1.0  0.8587499999999998  0.5683300000000001  0.02647  1.0000
  N   N40       1.0  0.5683299999999999  0.8587500000000002  0.52647  1.0000
  N   N41       1.0  0.5642  0.39977  0.79851  1.0000
  N   N42       1.0  0.50893  0.45734  0.66906  1.0000
  N   N43       1.0  0.6001599999999999  0.16455  0.79851  1.0000
  N   N44       1.0  0.7096  0.14128000000000002  0.47351  1.0000
  N   N45       1.0  0.25321999999999995  0.21742  0.11833  1.0000
  N   N46       1.0  0.8587499999999998  0.5683300000000001  0.47353  1.0000
  N   N47       1.0  0.74681  0.96457  0.88162  1.0000
  N   N48       1.0  0.39976999999999996  0.5642000000000001  0.29851  1.0000
  N   N49       1.0  0.6845800000000001  0.5451300000000001  0.04356  1.0000
  N   N50       1.0  0.5683299999999999  0.8587500000000002  0.97352  1.0000
  N   N51       1.0  0.7096  0.14128000000000002  0.02649  1.0000
  N   N52       1.0  0.9484399999999998  0.4911100000000001  0.83093  1.0000
  N   N53       1.0  0.83548  0.4358600000000001  0.70148  1.0000
  N   N54       1.0  0.2556099999999999  0.75572  0.50302  1.0000
  N   N55       1.0  0.74439  0.50013  0.49704  1.0000
  N   N56       1.0  0.96457  0.74681  0.38162  1.0000
  N   N57       1.0  0.4315999999999999  0.29027  0.02633  1.0000
  N   N58       1.0  0.45480999999999994  0.13937  0.45631  1.0000
  N   N59       1.0  0.54266  0.0516  0.66906  1.0000
  N   N60       1.0  0.78222  0.03565  0.38172  1.0000
  N   N61       1.0  0.5525499999999999  0.41677  0.25  1.0000
  N   N62       1.0  0.13935999999999998  0.45481000000000005  0.95631  1.0000
  N   N63       1.0  0.8606399999999998  0.31558  0.45637000000000005  1.0000
  N   N64       1.0  0.4997799999999999  0.24418000000000006  0.00292  1.0000
  N   N65       1.0  0.25321999999999995  0.21742  0.38167000000000006  1.0000
  N   N66       1.0  0.03565000000000003  0.78222  0.88172  1.0000
  N   N67       1.0  0.35718999999999995  0.11325000000000002  0.09444  1.0000
  N   N68       1.0  0.31557999999999997  0.86064  0.54363  1.0000
  N   N69       1.0  0.13604999999999995  0.58331  0.75  1.0000
  N   N70       1.0  0.11325000000000002  0.35719000000000006  0.90556  1.0000
  N   N71       1.0  0.45480999999999994  0.13937  0.04368  1.0000
  N   N72       1.0  0.8867899999999997  0.2441  0.40568  1.0000
  N   N73       1.0  0.8606399999999998  0.31558  0.04363  1.0000
  N   N74       1.0  0.11325000000000002  0.35719000000000006  0.59444  1.0000
  N   N75       1.0  0.39976999999999996  0.5642000000000001  0.20149  1.0000
  N   N76       1.0  0.41676999999999986  0.55255  0.75  1.0000
  N   N77       1.0  0.31557999999999997  0.86064  0.95637  1.0000
  N   N78       1.0  0.5833099999999999  0.13604  0.25  1.0000
  N   N79       1.0  0.03565000000000003  0.78222  0.61828  1.0000
  N   N80       1.0  0.7562099999999998  0.64279  0.40569  1.0000
  N   N81       1.0  0.13935999999999998  0.45481000000000005  0.54368  1.0000
  N   N82       1.0  0.8867899999999997  0.2441  0.09432  1.0000
  N   N83       1.0  0.54266  0.0516  0.83093  1.0000
  N   N84       1.0  0.96457  0.74681  0.11838  1.0000
  N   N85       1.0  0.64279  0.7562100000000002  0.59431  1.0000
  N   N86       1.0  0.14128  0.7096  0.9735  1.0000
  N   N87       1.0  0.35718999999999995  0.11325000000000002  0.40556  1.0000
  N   N88       1.0  0.2556099999999999  0.75572  0.99697  1.0000
  N   N89       1.0  0.83548  0.4358600000000001  0.79851  1.0000
  N   N90       1.0  0.9484399999999998  0.4911100000000001  0.66907  1.0000
