data_image0
_chemical_formula_structural       Tb4H32C64N4O24
_chemical_formula_sum              "Tb4 H32 C64 N4 O24"
_cell_length_a       13.51572
_cell_length_b       13.98532
_cell_length_c       15.918539999999998
_cell_angle_alpha    93.9314
_cell_angle_beta     114.78526
_cell_angle_gamma    90.29365

_space_group_name_H-M_alt    "P 1"
_space_group_IT_number       1

loop_
  _space_group_symop_operation_xyz
  'x, y, z'

loop_
  _atom_site_type_symbol
  _atom_site_label
  _atom_site_symmetry_multiplicity
  _atom_site_fract_x
  _atom_site_fract_y
  _atom_site_fract_z
  _atom_site_occupancy
  Tb  Tb1       1.0  0.10569000000000003  0.52566  0.6217500000000001  1.0000
  Tb  Tb2       1.0  0.4848399999999999  0.9766700000000003  0.37937  1.0000
  Tb  Tb3       1.0  0.89463  0.47426000000000007  0.37881  1.0000
  Tb  Tb4       1.0  0.51386  0.022020000000000005  0.622  1.0000
  H   H1        1.0  0.01841000000000008  0.4707500000000001  0.8777500000000003  1.0000
  H   H2        1.0  0.056080000000000005  0.40222  0.030000000000000002  1.0000
  H   H3        1.0  0.38399  0.34706  0.06608  1.0000
  H   H4        1.0  0.34512  0.414  0.91342  1.0000
  H   H5        1.0  0.11838000000000003  0.43729  0.3066  1.0000
  H   H6        1.0  0.33492  0.2199  0.28847  1.0000
  H   H7        1.0  0.33225  0.3045300000000001  0.55244  1.0000
  H   H8        1.0  0.33797  0.32389  0.18947  1.0000
  H   H9        1.0  0.14324  0.02973  0.12557  1.0000
  H   H10       1.0  0.027509999999999972  0.09459999999999999  0.97221  1.0000
  H   H11       1.0  0.31642999999999993  0.15229  0.93098  1.0000
  H   H12       1.0  0.43147  0.08933  0.08468  1.0000
  H   H13       1.0  0.8103800000000001  0.06064000000000002  0.6943900000000001  1.0000
  H   H14       1.0  0.046619999999999974  0.27975  0.71516  1.0000
  H   H15       1.0  0.78492  0.19484000000000004  0.44979  1.0000
  H   H16       1.0  0.14681  0.17393000000000006  0.8093  1.0000
  H   H17       1.0  0.98171  0.52929  0.12262  1.0000
  H   H18       1.0  0.9439799999999999  0.59785  0.97037  1.0000
  H   H19       1.0  0.61607  0.65288  0.93417  1.0000
  H   H20       1.0  0.65497  0.58606  0.08693  1.0000
  H   H21       1.0  0.88206  0.56213  0.6930500000000002  1.0000
  H   H22       1.0  0.6658  0.77899  0.71308  1.0000
  H   H23       1.0  0.66577  0.69454  0.44806  1.0000
  H   H24       1.0  0.66241  0.67546  0.81061  1.0000
  H   H25       1.0  0.85659  0.97219  0.87526  1.0000
  H   H26       1.0  0.97283  0.9047900000000001  0.02718  1.0000
  H   H27       1.0  0.6848  0.84615  0.06942  1.0000
  H   H28       1.0  0.56916  0.9110800000000002  0.91671  1.0000
  H   H29       1.0  0.19001999999999997  0.9403  0.30749000000000004  1.0000
  H   H30       1.0  0.95407  0.72003  0.2847  1.0000
  H   H31       1.0  0.21349  0.8051300000000001  0.55109  1.0000
  H   H32       1.0  0.8540599999999998  0.82566  0.19083  1.0000
  C   C1        1.0  0.15991  0.4924  0.80077  1.0000
  C   C2        1.0  0.18053999999999998  0.4476500000000001  0.88822  1.0000
  C   C3        1.0  0.09766000000000001  0.4428700000000001  0.91968  1.0000
  C   C4        1.0  0.11843  0.40511  0.00371  1.0000
  C   C5        1.0  0.22288  0.37246  0.05820000000000001  1.0000
  C   C6        1.0  0.30391999999999997  0.3737000000000001  0.0244  1.0000
  C   C7        1.0  0.28304  0.4109300000000001  0.93995  1.0000
  C   C8        1.0  0.25315  0.34523  0.15261  1.0000
  C   C9        1.0  0.1805  0.43691  0.49383  1.0000
  C   C10       1.0  0.22231  0.37791  0.4357  1.0000
  C   C11       1.0  0.18207  0.38741  0.34019  1.0000
  C   C12       1.0  0.22619000000000003  0.33427  0.28664000000000006  1.0000
  C   C13       1.0  0.30404  0.26614  0.32905  1.0000
  C   C14       1.0  0.34138  0.25446  0.42422  1.0000
  C   C15       1.0  0.30269  0.31214  0.47844  1.0000
  C   C16       1.0  0.41915  0.17731000000000002  0.46479  1.0000
  C   C17       1.0  0.36112  0.01216  0.2009  1.0000
  C   C18       1.0  0.29363  0.05462000000000001  0.11269000000000001  1.0000
  C   C19       1.0  0.17970999999999995  0.05739  0.08233  1.0000
  C   C20       1.0  0.11580000000000004  0.093  0.9977100000000001  1.0000
  C   C21       1.0  0.16462999999999997  0.12547  0.94158  1.0000
  C   C22       1.0  0.27895  0.1259  0.97403  1.0000
  C   C23       1.0  0.3432  0.09084  0.05908  1.0000
  C   C24       1.0  0.09978999999999995  0.15191  0.84733  1.0000
  C   C25       1.0  0.68744  0.06263  0.5072  1.0000
  C   C26       1.0  0.78797  0.12077  0.56573  1.0000
  C   C27       1.0  0.8418  0.11066000000000001  0.6612000000000001  1.0000
  C   C28       1.0  0.93946  0.16356000000000004  0.71522  1.0000
  C   C29       1.0  0.9758199999999997  0.23298  0.6738  1.0000
  C   C30       1.0  0.9197900000000001  0.24484  0.57869  1.0000
  C   C31       1.0  0.82753  0.18678  0.52374  1.0000
  C   C32       1.0  0.95757  0.32243  0.53834  1.0000
  C   C33       1.0  0.84011  0.50727  0.19956  1.0000
  C   C34       1.0  0.81957  0.55238  0.11222  1.0000
  C   C35       1.0  0.9024499999999998  0.55715  0.08075  1.0000
  C   C36       1.0  0.88169  0.59486  0.99673  1.0000
  C   C37       1.0  0.77719  0.6273100000000003  0.94217  1.0000
  C   C38       1.0  0.69613  0.62622  0.97592  1.0000
  C   C39       1.0  0.71707  0.5891  0.06044  1.0000
  C   C40       1.0  0.74715  0.654  0.84771  1.0000
  C   C41       1.0  0.8204  0.56498  0.50599  1.0000
  C   C42       1.0  0.77734  0.62202  0.56439  1.0000
  C   C43       1.0  0.81801  0.61187  0.65986  1.0000
  C   C44       1.0  0.77413  0.66455  0.71388  1.0000
  C   C45       1.0  0.69611  0.7327600000000002  0.67203  1.0000
  C   C46       1.0  0.65759  0.74438  0.57679  1.0000
  C   C47       1.0  0.69601  0.6871300000000002  0.52211  1.0000
  C   C48       1.0  0.57889  0.82101  0.53667  1.0000
  C   C49       1.0  0.63877  0.98975  0.8007  1.0000
  C   C50       1.0  0.7066900000000002  0.94685  0.8885900000000002  1.0000
  C   C51       1.0  0.8204799999999999  0.9438500000000002  0.91845  1.0000
  C   C52       1.0  0.8846699999999998  0.9070700000000002  0.00242  1.0000
  C   C53       1.0  0.8361899999999998  0.87414  0.05863  1.0000
  C   C54       1.0  0.72191  0.87363  0.02652  1.0000
  C   C55       1.0  0.65739  0.9096100000000003  0.94201  1.0000
  C   C56       1.0  0.9011100000000001  0.8478  0.15288  1.0000
  C   C57       1.0  0.31113  0.9375600000000002  0.49428  1.0000
  C   C58       1.0  0.21118  0.8794000000000001  0.43534  1.0000
  C   C59       1.0  0.15816  0.88978  0.33993  1.0000
  C   C60       1.0  0.06089  0.8367100000000001  0.2854  1.0000
  C   C61       1.0  0.02441999999999999  0.76702  0.32649  1.0000
  C   C62       1.0  0.07971999999999999  0.7551600000000003  0.42166  1.0000
  C   C63       1.0  0.17153000000000002  0.8132900000000001  0.47709  1.0000
  C   C64       1.0  0.04208000000000002  0.67738  0.46175  1.0000
  N   N1        1.0  0.18782  0.35333  0.19285  1.0000
  N   N2        1.0  0.99459  0.14336000000000002  0.8086200000000001  1.0000
  N   N3        1.0  0.81267  0.64543  0.80766  1.0000
  N   N4        1.0  0.006260000000000001  0.8568800000000001  0.19195  1.0000
  O   O1        1.0  0.06593000000000003  0.5259  0.75329  1.0000
  O   O2        1.0  0.23466999999999993  0.49534  0.77057  1.0000
  O   O3        1.0  0.08182000000000003  0.4672  0.4571  1.0000
  O   O4        1.0  0.2402  0.45695  0.57938  1.0000
  O   O5        1.0  0.4546  0.13214  0.4112  1.0000
  O   O6        1.0  0.4448499999999999  0.15902  0.54932  1.0000
  O   O7        1.0  0.31538  0.9805  0.25054  1.0000
  O   O8        1.0  0.4653  0.008960000000000004  0.22947  1.0000
  O   O9        1.0  0.62496  0.03229000000000001  0.54407  1.0000
  O   O10       1.0  0.6615  0.04348  0.42128  1.0000
  O   O11       1.0  0.04405  0.3703900000000001  0.59245  1.0000
  O   O12       1.0  0.9011300000000001  0.33829999999999993  0.45283  1.0000
  O   O13       1.0  0.9336500000000001  0.47279000000000004  0.2465  1.0000
  O   O14       1.0  0.76536  0.50483  0.22979  1.0000
  O   O15       1.0  0.9178399999999999  0.53254  0.54379  1.0000
  O   O16       1.0  0.76275  0.54849  0.41946  1.0000
  O   O17       1.0  0.54503  0.8665600000000001  0.59128  1.0000
  O   O18       1.0  0.5508700000000001  0.8384500000000003  0.45159000000000005  1.0000
  O   O19       1.0  0.68385  0.02367  0.7514  1.0000
  O   O20       1.0  0.53445  0.99068  0.77175  1.0000
  O   O21       1.0  0.37502  0.9670100000000003  0.45837  1.0000
  O   O22       1.0  0.33542999999999995  0.95739  0.57978  1.0000
  O   O23       1.0  0.9559699999999999  0.62934  0.40733  1.0000
  O   O24       1.0  0.09836  0.66148  0.54729  1.0000
