data_image0
_chemical_formula_structural       Hf6H28C48O32
_chemical_formula_sum              "Hf6 H28 C48 O32"
_cell_length_a       14.66775
_cell_length_b       14.6677
_cell_length_c       14.66772
_cell_angle_alpha    60.00256999999999
_cell_angle_beta     60.00179
_cell_angle_gamma    60.001740000000005

_symmetry_space_group_name_H-M    'P 1'
_symmetry_Int_Tables_number       1

loop_
  _symmetry_equiv_pos_as_xyz
  'x,y,z'

loop_
  _atom_site_type_symbol
  _atom_site_label
  _atom_site_symmetry_multiplicity
  _atom_site_fract_x
  _atom_site_fract_y
  _atom_site_fract_z
  _atom_site_occupancy
  Hf  Hf1       1.0  0.11862000000000017  0.8813799999999999  0.88138  1.0000
  Hf  Hf2       1.0  0.88137  0.11862999999999999  0.88138  1.0000
  Hf  Hf3       1.0  0.8813700000000005  0.8813799999999999  0.11863  1.0000
  Hf  Hf4       1.0  0.11862000000000004  0.8813799999999999  0.11863  1.0000
  Hf  Hf5       1.0  0.88137  0.11862999999999999  0.11863  1.0000
  Hf  Hf6       1.0  0.11862000000000006  0.11862999999999999  0.88138  1.0000
  H   H1        1.0  0.59297  0.8466799999999998  0.1391  1.0000
  H   H2        1.0  0.84667  0.1391  0.5929799999999998  1.0000
  H   H3        1.0  0.13910000000000006  0.8466799999999998  0.42124  1.0000
  H   H4        1.0  0.59297  0.1391  0.84668  1.0000
  H   H5        1.0  0.13909999999999995  0.42124  0.84668  1.0000
  H   H6        1.0  0.4212299999999998  0.8466800000000001  0.5929799999999998  1.0000
  H   H7        1.0  0.42123000000000005  0.5929799999999998  0.1391  1.0000
  H   H8        1.0  0.84667  0.13909999999999995  0.42124  1.0000
  H   H9        1.0  0.84667  0.42124  0.5929799999999998  1.0000
  H   H10       1.0  0.09403999999999998  0.09405000000000001  0.71786  1.0000
  H   H11       1.0  0.1391000000000002  0.5929799999999997  0.42124  1.0000
  H   H12       1.0  0.59298  0.42123999999999995  0.1391  1.0000
  H   H13       1.0  0.59297  0.8466799999999998  0.42124  1.0000
  H   H14       1.0  0.09405000000000001  0.09405  0.09405  1.0000
  H   H15       1.0  0.42123000000000005  0.8466799999999998  0.1391  1.0000
  H   H16       1.0  0.42123  0.59298  0.84668  1.0000
  H   H17       1.0  0.71785  0.09405  0.09405  1.0000
  H   H18       1.0  0.5929800000000001  0.13909999999999995  0.42124  1.0000
  H   H19       1.0  0.09404  0.71786  0.09405  1.0000
  H   H20       1.0  0.13909  0.59299  0.84668  1.0000
  H   H21       1.0  0.84667  0.5929799999999998  0.1391  1.0000
  H   H22       1.0  0.42123000000000005  0.1391  0.5929799999999998  1.0000
  H   H23       1.0  0.8466700000000001  0.42123999999999995  0.1391  1.0000
  H   H24       1.0  0.8466700000000001  0.5929799999999997  0.42124  1.0000
  H   H25       1.0  0.13909000000000007  0.8466800000000001  0.5929799999999998  1.0000
  H   H26       1.0  0.59297  0.42124  0.84668  1.0000
  H   H27       1.0  0.42123  0.1391  0.84668  1.0000
  H   H28       1.0  0.1391  0.42124  0.5929799999999998  1.0000
  C   C1        1.0  0.9099799999999999  0.0757  0.5546  1.0000
  C   C2        1.0  0.3073500000000001  0.99552  0.9955199999999997  1.0000
  C   C3        1.0  0.9099800000000005  0.5546  0.07569  1.0000
  C   C4        1.0  0.45971000000000006  0.5546000000000001  0.9099899999999997  1.0000
  C   C5        1.0  0.41132000000000013  0.6021299999999999  0.9932699999999999  1.0000
  C   C6        1.0  0.45972  0.5546  0.07569  1.0000
  C   C7        1.0  0.9099800000000001  0.5546000000000001  0.45971999999999996  1.0000
  C   C8        1.0  0.45972  0.0757  0.5546  1.0000
  C   C9        1.0  0.07569  0.90999  0.45971999999999996  1.0000
  C   C10       1.0  0.5545900000000002  0.07570000000000007  0.9099899999999997  1.0000
  C   C11       1.0  0.99327  0.60213  0.41133  1.0000
  C   C12       1.0  0.07569  0.5546000000000001  0.45971999999999996  1.0000
  C   C13       1.0  0.9932700000000002  0.99328  0.41133  1.0000
  C   C14       1.0  0.7016  0.99552  0.30736  1.0000
  C   C15       1.0  0.70159  0.9955299999999997  0.9955199999999997  1.0000
  C   C16       1.0  0.7016000000000002  0.30736000000000013  0.9955199999999997  1.0000
  C   C17       1.0  0.99551  0.30736  0.70161  1.0000
  C   C18       1.0  0.5545900000000004  0.90999  0.45971999999999996  1.0000
  C   C19       1.0  0.9955099999999999  0.99552  0.30736  1.0000
  C   C20       1.0  0.45971000000000023  0.07570000000000007  0.9099899999999997  1.0000
  C   C21       1.0  0.5545900000000001  0.90999  0.07569  1.0000
  C   C22       1.0  0.5546  0.45971999999999996  0.07569  1.0000
  C   C23       1.0  0.41132000000000013  0.99328  0.6021299999999999  1.0000
  C   C24       1.0  0.9932700000000001  0.41133  0.99328  1.0000
  C   C25       1.0  0.41131000000000006  0.9932799999999996  0.99328  1.0000
  C   C26       1.0  0.9932700000000001  0.4113299999999999  0.6021299999999999  1.0000
  C   C27       1.0  0.07569000000000012  0.45972  0.9099899999999997  1.0000
  C   C28       1.0  0.9932600000000003  0.99328  0.6021299999999999  1.0000
  C   C29       1.0  0.9099800000000001  0.07570000000000003  0.45971999999999996  1.0000
  C   C30       1.0  0.60212  0.99328  0.41133  1.0000
  C   C31       1.0  0.9932600000000001  0.6021299999999999  0.9932699999999999  1.0000
  C   C32       1.0  0.6021200000000002  0.4113299999999999  0.9932699999999999  1.0000
  C   C33       1.0  0.07569000000000006  0.5546000000000001  0.9099899999999997  1.0000
  C   C34       1.0  0.60212  0.9932800000000002  0.9932699999999999  1.0000
  C   C35       1.0  0.45971000000000006  0.90999  0.07569  1.0000
  C   C36       1.0  0.5545900000000002  0.45972  0.9099899999999997  1.0000
  C   C37       1.0  0.90998  0.45972  0.5546  1.0000
  C   C38       1.0  0.9955100000000002  0.9955299999999999  0.7016  1.0000
  C   C39       1.0  0.45971000000000006  0.90999  0.5546  1.0000
  C   C40       1.0  0.5546  0.07570000000000003  0.45971999999999996  1.0000
  C   C41       1.0  0.9955099999999999  0.30736000000000013  0.9955199999999997  1.0000
  C   C42       1.0  0.07568999999999994  0.45972  0.5546  1.0000
  C   C43       1.0  0.07569  0.90999  0.5546  1.0000
  C   C44       1.0  0.30734999999999985  0.99552  0.70161  1.0000
  C   C45       1.0  0.99551  0.70161  0.30736  1.0000
  C   C46       1.0  0.90998  0.45971999999999996  0.07569  1.0000
  C   C47       1.0  0.3073500000000001  0.7016100000000001  0.9955199999999997  1.0000
  C   C48       1.0  0.9955099999999999  0.7016100000000001  0.9955199999999997  1.0000
  O   O1        1.0  0.07487000000000003  0.91942  0.26597999999999994  1.0000
  O   O2        1.0  0.95037  0.95038  0.14887  1.0000
  O   O3        1.0  0.2659700000000001  0.91942  0.73974  1.0000
  O   O4        1.0  0.07487000000000012  0.26597999999999994  0.9194199999999999  1.0000
  O   O5        1.0  0.73972  0.07488000000000003  0.26597999999999994  1.0000
  O   O6        1.0  0.9194100000000001  0.26598  0.73974  1.0000
  O   O7        1.0  0.07487999999999997  0.26598  0.73973  1.0000
  O   O8        1.0  0.26597000000000004  0.7397299999999998  0.07488  1.0000
  O   O9        1.0  0.14885999999999983  0.9503800000000001  0.95038  1.0000
  O   O10       1.0  0.0748800000000001  0.7397299999999998  0.26597999999999994  1.0000
  O   O11       1.0  0.73972  0.26598  0.07488  1.0000
  O   O12       1.0  0.91941  0.07488000000000003  0.26597999999999994  1.0000
  O   O13       1.0  0.06706  0.06706999999999999  0.06706  1.0000
  O   O14       1.0  0.91941  0.26598  0.07488  1.0000
  O   O15       1.0  0.91941  0.07488000000000003  0.73973  1.0000
  O   O16       1.0  0.73972  0.07488  0.9194199999999999  1.0000
  O   O17       1.0  0.2659700000000001  0.07488  0.9194199999999999  1.0000
  O   O18       1.0  0.26597  0.07488000000000003  0.73973  1.0000
  O   O19       1.0  0.95036  0.9503800000000001  0.95038  1.0000
  O   O20       1.0  0.91941  0.7397299999999998  0.07488  1.0000
  O   O21       1.0  0.73973  0.91942  0.26597999999999994  1.0000
  O   O22       1.0  0.7397300000000001  0.26597999999999994  0.9194199999999999  1.0000
  O   O23       1.0  0.06706000000000008  0.06707000000000007  0.7988099999999998  1.0000
  O   O24       1.0  0.73972  0.91942  0.07488  1.0000
  O   O25       1.0  0.91941  0.7397399999999997  0.26597999999999994  1.0000
  O   O26       1.0  0.07487000000000003  0.91942  0.73973  1.0000
  O   O27       1.0  0.9503699999999999  0.14887000000000003  0.95038  1.0000
  O   O28       1.0  0.07487000000000027  0.7397299999999997  0.9194199999999999  1.0000
  O   O29       1.0  0.79881  0.06706999999999999  0.06707  1.0000
  O   O30       1.0  0.06706000000000008  0.7988099999999998  0.06707  1.0000
  O   O31       1.0  0.26597000000000026  0.7397399999999997  0.9194199999999999  1.0000
  O   O32       1.0  0.26597  0.91942  0.07488  1.0000
