data_image0
_chemical_formula_structural       Ni8H40C68O36
_chemical_formula_sum              "Ni8 H40 C68 O36"
_cell_length_a       9.79594
_cell_length_b       15.60479
_cell_length_c       21.07741
_cell_angle_alpha    90.13883000000001
_cell_angle_beta     99.86009
_cell_angle_gamma    89.96723

_symmetry_space_group_name_H-M    'P 1'
_symmetry_Int_Tables_number       1

loop_
  _symmetry_equiv_pos_as_xyz
  'x,y,z'

loop_
  _atom_site_type_symbol
  _atom_site_label
  _atom_site_symmetry_multiplicity
  _atom_site_fract_x
  _atom_site_fract_y
  _atom_site_fract_z
  _atom_site_occupancy
  Ni  Ni1       1.0  0.76251  0.7478300000000001  0.6804600000000001  1.0000
  Ni  Ni2       1.0  0.8033  0.8409300000000002  0.80849  1.0000
  Ni  Ni3       1.0  0.24175  0.24865000000000007  0.82096  1.0000
  Ni  Ni4       1.0  0.19676999999999997  0.34055  0.6932  1.0000
  Ni  Ni5       1.0  0.23748000000000005  0.25218  0.31954000000000005  1.0000
  Ni  Ni6       1.0  0.19669  0.15908  0.19151  1.0000
  Ni  Ni7       1.0  0.75824  0.7513600000000002  0.17904  1.0000
  Ni  Ni8       1.0  0.8032199999999999  0.65945  0.3068  1.0000
  H   H1        1.0  0.4758899999999999  0.9071700000000003  0.5798200000000001  1.0000
  H   H2        1.0  0.26214  0.14677  0.58869  1.0000
  H   H3        1.0  0.5328300000000001  0.0514  0.7565100000000001  1.0000
  H   H4        1.0  0.22765000000000002  0.06808  0.48922  1.0000
  H   H5        1.0  0.35422  0.9931600000000003  0.47580000000000006  1.0000
  H   H6        1.0  0.17698999999999998  0.90614  0.40492  1.0000
  H   H7        1.0  0.90814  0.7488400000000002  0.49781  1.0000
  H   H8        1.0  0.14381  0.9502400000000002  0.6039  1.0000
  H   H9        1.0  0.98385  0.77014  0.29158  1.0000
  H   H10       1.0  0.95892  0.8283900000000002  0.72089  1.0000
  H   H11       1.0  0.5240600000000001  0.40845  0.9212400000000001  1.0000
  H   H12       1.0  0.7399400000000002  0.64708  0.9127300000000002  1.0000
  H   H13       1.0  0.46678  0.55233  0.74499  1.0000
  H   H14       1.0  0.77496  0.56791  0.012070000000000003  1.0000
  H   H15       1.0  0.64768  0.4934800000000001  0.02528  1.0000
  H   H16       1.0  0.82496  0.4066400000000001  0.09582  1.0000
  H   H17       1.0  0.0909  0.24762  0.00198  1.0000
  H   H18       1.0  0.85598  0.4489900000000001  0.8965  1.0000
  H   H19       1.0  0.0193  0.2698800000000001  0.20843  1.0000
  H   H20       1.0  0.04194999999999999  0.32612000000000013  0.78038  1.0000
  H   H21       1.0  0.5241  0.09284  0.42018  1.0000
  H   H22       1.0  0.73786  0.85323  0.41131  1.0000
  H   H23       1.0  0.46717  0.9486100000000002  0.24349  1.0000
  H   H24       1.0  0.77234  0.93192  0.51078  1.0000
  H   H25       1.0  0.64577  0.00684  0.5242  1.0000
  H   H26       1.0  0.8230000000000001  0.09386  0.59508  1.0000
  H   H27       1.0  0.09185  0.25116  0.50218  1.0000
  H   H28       1.0  0.85618  0.049760000000000006  0.3961  1.0000
  H   H29       1.0  0.016139999999999998  0.22986000000000006  0.70842  1.0000
  H   H30       1.0  0.04107  0.17161  0.27911  1.0000
  H   H31       1.0  0.47593  0.59156  0.07875  1.0000
  H   H32       1.0  0.26005  0.3529200000000001  0.08727  1.0000
  H   H33       1.0  0.53321  0.44768  0.25501  1.0000
  H   H34       1.0  0.22503000000000006  0.4321  0.9879200000000001  1.0000
  H   H35       1.0  0.35231000000000007  0.50653  0.9747200000000001  1.0000
  H   H36       1.0  0.17504  0.5933700000000002  0.90418  1.0000
  H   H37       1.0  0.9090900000000001  0.7523900000000002  0.9980200000000001  1.0000
  H   H38       1.0  0.14401  0.5510100000000002  0.1035  1.0000
  H   H39       1.0  0.98069  0.73012  0.79157  1.0000
  H   H40       1.0  0.95805  0.67389  0.21961  1.0000
  C   C1        1.0  0.5183500000000001  0.97456  0.6699700000000001  1.0000
  C   C2        1.0  0.45289  0.9642800000000002  0.60577  1.0000
  C   C3        1.0  0.35845  0.02502  0.57571  1.0000
  C   C4        1.0  0.33311  0.09761  0.611  1.0000
  C   C5        1.0  0.39412  0.10699  0.67611  1.0000
  C   C6        1.0  0.48608999999999997  0.045010000000000015  0.70609  1.0000
  C   C7        1.0  0.28088  0.00904  0.5082  1.0000
  C   C8        1.0  0.17507  0.93692  0.50499  1.0000
  C   C9        1.0  0.13443  0.8905  0.44791  1.0000
  C   C10       1.0  0.03914000000000003  0.8226100000000002  0.44538000000000005  1.0000
  C   C11       1.0  0.98171  0.80131  0.49979  1.0000
  C   C12       1.0  0.018939999999999988  0.8489  0.55632  1.0000
  C   C13       1.0  0.11548000000000005  0.9157  0.55868  1.0000
  C   C14       1.0  0.62012  0.90856  0.6991  1.0000
  C   C15       1.0  0.99505  0.7745500000000002  0.38468  1.0000
  C   C16       1.0  0.9586799999999999  0.8299800000000003  0.61546  1.0000
  C   C17       1.0  0.35236  0.1824  0.71218  1.0000
  C   C18       1.0  0.48122999999999994  0.47604  0.83141  1.0000
  C   C19       1.0  0.5473  0.46544000000000013  0.8954500000000001  1.0000
  C   C20       1.0  0.64282  0.52566  0.92552  1.0000
  C   C21       1.0  0.66855  0.59806  0.89039  1.0000
  C   C22       1.0  0.60723  0.6074100000000002  0.8253400000000001  1.0000
  C   C23       1.0  0.51407  0.5460200000000002  0.79533  1.0000
  C   C24       1.0  0.72078  0.50922  0.9928100000000001  1.0000
  C   C25       1.0  0.8255400000000002  0.43659000000000003  0.99556  1.0000
  C   C26       1.0  0.86661  0.39055  0.05261  1.0000
  C   C27       1.0  0.961  0.32221  0.0548  1.0000
  C   C28       1.0  0.01756  0.3002  0.00029  1.0000
  C   C29       1.0  0.98032  0.34759  0.94397  1.0000
  C   C30       1.0  0.88413  0.41463  0.9416700000000001  1.0000
  C   C31       1.0  0.37919  0.4103000000000001  0.80229  1.0000
  C   C32       1.0  0.006380000000000004  0.27449  0.11524  1.0000
  C   C33       1.0  0.041509999999999964  0.3283800000000001  0.88524  1.0000
  C   C34       1.0  0.65023  0.6821  0.7892400000000002  1.0000
  C   C35       1.0  0.48163999999999996  0.02544  0.33002  1.0000
  C   C36       1.0  0.5471  0.03573  0.39423  1.0000
  C   C37       1.0  0.6415400000000001  0.97498  0.42429000000000006  1.0000
  C   C38       1.0  0.66688  0.90239  0.38900000000000007  1.0000
  C   C39       1.0  0.6058700000000001  0.89302  0.32389000000000007  1.0000
  C   C40       1.0  0.5139  0.9549900000000002  0.29391  1.0000
  C   C41       1.0  0.7191100000000001  0.9909700000000002  0.49179000000000006  1.0000
  C   C42       1.0  0.82492  0.06309  0.4950100000000001  1.0000
  C   C43       1.0  0.8655599999999999  0.10951  0.5520800000000001  1.0000
  C   C44       1.0  0.9608499999999999  0.17739  0.55462  1.0000
  C   C45       1.0  0.018279999999999984  0.19869000000000003  0.50021  1.0000
  C   C46       1.0  0.9810499999999999  0.15111  0.44368  1.0000
  C   C47       1.0  0.88451  0.08431  0.44132000000000005  1.0000
  C   C48       1.0  0.37987  0.09144  0.3009  1.0000
  C   C49       1.0  0.004940000000000023  0.22546  0.61532  1.0000
  C   C50       1.0  0.04131  0.17003  0.38454  1.0000
  C   C51       1.0  0.64763  0.8176100000000002  0.28782  1.0000
  C   C52       1.0  0.51876  0.52396  0.16859  1.0000
  C   C53       1.0  0.45269000000000004  0.53456  0.10455000000000002  1.0000
  C   C54       1.0  0.35717  0.47434  0.07447  1.0000
  C   C55       1.0  0.33143999999999996  0.4019500000000001  0.1096  1.0000
  C   C56       1.0  0.39276000000000005  0.3926  0.17466  1.0000
  C   C57       1.0  0.48592  0.45398  0.20467000000000002  1.0000
  C   C58       1.0  0.27921  0.49078  0.00719  1.0000
  C   C59       1.0  0.17445  0.5634100000000002  0.00444  1.0000
  C   C60       1.0  0.13338000000000003  0.6094600000000002  0.9473800000000001  1.0000
  C   C61       1.0  0.038990000000000004  0.67779  0.9452  1.0000
  C   C62       1.0  0.9824299999999999  0.6998  0.9997100000000001  1.0000
  C   C63       1.0  0.019670000000000003  0.65241  0.05602000000000001  1.0000
  C   C64       1.0  0.11585999999999999  0.58537  0.05833  1.0000
  C   C65       1.0  0.6208  0.58971  0.19771000000000002  1.0000
  C   C66       1.0  0.99361  0.72551  0.88476  1.0000
  C   C67       1.0  0.95848  0.67163  0.11475  1.0000
  C   C68       1.0  0.34976  0.31791000000000014  0.21075  1.0000
  O   O1        1.0  0.68642  0.9221000000000003  0.75629  1.0000
  O   O2        1.0  0.6337  0.8434600000000002  0.66393  1.0000
  O   O3        1.0  0.02755999999999998  0.8090700000000002  0.33279  1.0000
  O   O4        1.0  0.92703  0.7054  0.38469  1.0000
  O   O5        1.0  0.8602100000000001  0.77359  0.60957  1.0000
  O   O6        1.0  0.007109999999999999  0.87003  0.66664  1.0000
  O   O7        1.0  0.32693  0.25107  0.67933  1.0000
  O   O8        1.0  0.34036  0.17251  0.77126  1.0000
  O   O9        1.0  0.90839  0.7876200000000002  0.74891  1.0000
  O   O10       1.0  0.31274  0.4234100000000001  0.7451  1.0000
  O   O11       1.0  0.36602  0.34559  0.83763  1.0000
  O   O12       1.0  0.9788300000000001  0.31053  0.16773000000000002  1.0000
  O   O13       1.0  0.07132  0.20418000000000006  0.11423  1.0000
  O   O14       1.0  0.14071000000000006  0.2724500000000001  0.8914400000000001  1.0000
  O   O15       1.0  0.99287  0.3680600000000001  0.83409  1.0000
  O   O16       1.0  0.67337  0.75135  0.8218400000000001  1.0000
  O   O17       1.0  0.66564  0.67091  0.7306600000000001  1.0000
  O   O18       1.0  0.09299999999999999  0.28541  0.75224  1.0000
  O   O19       1.0  0.31357  0.0779  0.24371000000000004  1.0000
  O   O20       1.0  0.36629  0.15654000000000007  0.33606  1.0000
  O   O21       1.0  0.9724300000000001  0.19093  0.66721  1.0000
  O   O22       1.0  0.07296000000000008  0.2946  0.6153100000000001  1.0000
  O   O23       1.0  0.13979  0.22642000000000007  0.39043  1.0000
  O   O24       1.0  0.99288  0.12997  0.33336000000000005  1.0000
  O   O25       1.0  0.67306  0.7489400000000003  0.32067  1.0000
  O   O26       1.0  0.65963  0.82749  0.22874  1.0000
  O   O27       1.0  0.0916  0.21238000000000007  0.25109  1.0000
  O   O28       1.0  0.68725  0.57659  0.2549  1.0000
  O   O29       1.0  0.63397  0.65442  0.16237  1.0000
  O   O30       1.0  0.021159999999999988  0.6894700000000001  0.83227  1.0000
  O   O31       1.0  0.9286699999999999  0.7958200000000002  0.88577  1.0000
  O   O32       1.0  0.85928  0.72755  0.10856  1.0000
  O   O33       1.0  0.0071199999999999935  0.6319500000000001  0.16591  1.0000
  O   O34       1.0  0.32663  0.24865000000000007  0.17815  1.0000
  O   O35       1.0  0.33435  0.32909  0.26934  1.0000
  O   O36       1.0  0.9069900000000001  0.7146000000000002  0.24776000000000004  1.0000
