data_image0
_chemical_formula_structural       Ag28H12C48N4O12F18
_chemical_formula_sum              "Ag28 H12 C48 N4 O12 F18"
_cell_length_a       11.26633
_cell_length_b       11.02335
_cell_length_c       25.511539999999997
_cell_angle_alpha    88.9786
_cell_angle_beta     87.37102
_cell_angle_gamma    88.10310000000001

_space_group_name_H-M_alt    "P 1"
_space_group_IT_number       1

loop_
  _space_group_symop_operation_xyz
  'x, y, z'

loop_
  _atom_site_type_symbol
  _atom_site_label
  _atom_site_symmetry_multiplicity
  _atom_site_fract_x
  _atom_site_fract_y
  _atom_site_fract_z
  _atom_site_occupancy
  Ag  Ag1       1.0  0.67446  0.11862000000000002  0.00838  1.0000
  Ag  Ag2       1.0  0.51719  0.06786  0.12042  1.0000
  Ag  Ag3       1.0  0.41254  0.10166  0.02774  1.0000
  Ag  Ag4       1.0  0.5138200000000002  0.15457999999999997  0.92189  1.0000
  Ag  Ag5       1.0  0.52825  0.28939  0.06733  1.0000
  Ag  Ag6       1.0  0.55645  0.39046000000000003  0.95906  1.0000
  Ag  Ag7       1.0  0.56802  0.38815  0.55573  1.0000
  Ag  Ag8       1.0  0.48626  0.14771  0.58125  1.0000
  Ag  Ag9       1.0  0.57958  0.2948  0.44114  1.0000
  Ag  Ag10      1.0  0.68006  0.10339  0.49677000000000004  1.0000
  Ag  Ag11      1.0  0.43421  0.1117  0.46868  1.0000
  Ag  Ag12      1.0  0.38235  0.92536  0.60765  1.0000
  Ag  Ag13      1.0  0.46812  0.06427  0.68341  1.0000
  Ag  Ag14      1.0  0.048470000000000034  0.28077  0.74842  1.0000
  Ag  Ag15      1.0  0.32552999999999993  0.88137  0.99162  1.0000
  Ag  Ag16      1.0  0.4828  0.93213  0.87958  1.0000
  Ag  Ag17      1.0  0.5874499999999999  0.89833  0.97226  1.0000
  Ag  Ag18      1.0  0.48617  0.84541  0.0781  1.0000
  Ag  Ag19      1.0  0.47174000000000005  0.7106  0.93267  1.0000
  Ag  Ag20      1.0  0.44354000000000005  0.60952  0.04093  1.0000
  Ag  Ag21      1.0  0.43197000000000013  0.61184  0.44427  1.0000
  Ag  Ag22      1.0  0.51374  0.85228  0.41875000000000007  1.0000
  Ag  Ag23      1.0  0.42042  0.7051800000000003  0.55886  1.0000
  Ag  Ag24      1.0  0.31992999999999994  0.8966  0.50322  1.0000
  Ag  Ag25      1.0  0.56579  0.88828  0.53132  1.0000
  Ag  Ag26      1.0  0.61764  0.07463  0.39234  1.0000
  Ag  Ag27      1.0  0.53187  0.93572  0.31659  1.0000
  Ag  Ag28      1.0  0.95153  0.71922  0.25157  1.0000
  H   H1        1.0  0.8639  0.30814  0.8350400000000001  1.0000
  H   H2        1.0  0.007380000000000002  0.16166  0.9777600000000001  1.0000
  H   H3        1.0  0.22341000000000003  0.20342  0.83478  1.0000
  H   H4        1.0  0.20713  0.21074000000000007  0.65434  1.0000
  H   H5        1.0  0.97893  0.1512  0.52635  1.0000
  H   H6        1.0  0.84487  0.2983  0.67388  1.0000
  H   H7        1.0  0.1361  0.6918500000000001  0.16495  1.0000
  H   H8        1.0  0.9926100000000001  0.83833  0.022230000000000003  1.0000
  H   H9        1.0  0.77658  0.79657  0.16522  1.0000
  H   H10       1.0  0.79287  0.78925  0.34565000000000007  1.0000
  H   H11       1.0  0.02106000000000001  0.84879  0.47364  1.0000
  H   H12       1.0  0.15512000000000004  0.70169  0.32612  1.0000
  C   C1        1.0  0.93745  0.27042  0.8567799999999999  1.0000
  C   C2        1.0  0.91912  0.23586000000000001  0.91011  1.0000
  C   C3        1.0  0.01674000000000001  0.1873  0.93648  1.0000
  C   C4        1.0  0.12736  0.17033999999999996  0.9095000000000001  1.0000
  C   C5        1.0  0.13812000000000005  0.20924  0.85635  1.0000
  C   C6        1.0  0.80522  0.25156  0.93425  1.0000
  C   C7        1.0  0.70041  0.27348999999999996  0.95014  1.0000
  C   C8        1.0  0.77768  0.88418  0.06364  1.0000
  C   C9        1.0  0.70094  0.9311800000000002  0.03523  1.0000
  C   C10       1.0  0.12006999999999995  0.21408  0.6376300000000001  1.0000
  C   C11       1.0  0.10731000000000002  0.17684999999999998  0.5856  1.0000
  C   C12       1.0  0.99217  0.17896  0.56628  1.0000
  C   C13       1.0  0.8939900000000001  0.21762000000000004  0.59856  1.0000
  C   C14       1.0  0.9166  0.26047  0.64878  1.0000
  C   C15       1.0  0.7753700000000001  0.21669  0.58242  1.0000
  C   C16       1.0  0.66725  0.22459  0.57306  1.0000
  C   C17       1.0  0.20957  0.13853  0.55538  1.0000
  C   C18       1.0  0.30264  0.10144  0.53181  1.0000
  C   C19       1.0  0.3065600000000001  0.45117  0.57348  1.0000
  C   C20       1.0  0.17953000000000002  0.51196  0.57209  1.0000
  C   C21       1.0  0.66947  0.5484  0.08716  1.0000
  C   C22       1.0  0.79278  0.48218  0.08794999999999999  1.0000
  C   C23       1.0  0.30371000000000004  0.32766  0.41728  1.0000
  C   C24       1.0  0.18630000000000002  0.39375000000000004  0.40218  1.0000
  C   C25       1.0  0.06255  0.72957  0.14322  1.0000
  C   C26       1.0  0.08087  0.76413  0.08989  1.0000
  C   C27       1.0  0.9832600000000001  0.81269  0.06352  1.0000
  C   C28       1.0  0.87263  0.82965  0.0905  1.0000
  C   C29       1.0  0.86188  0.79075  0.14365  1.0000
  C   C30       1.0  0.19477999999999998  0.74843  0.06575  1.0000
  C   C31       1.0  0.2995800000000001  0.7265  0.04986  1.0000
  C   C32       1.0  0.22232  0.1158  0.93636  1.0000
  C   C33       1.0  0.29905000000000004  0.06881  0.96477  1.0000
  C   C34       1.0  0.87993  0.78591  0.36236  1.0000
  C   C35       1.0  0.89269  0.82314  0.4144  1.0000
  C   C36       1.0  0.007819999999999997  0.8210300000000001  0.43372  1.0000
  C   C37       1.0  0.106  0.78237  0.40144  1.0000
  C   C38       1.0  0.08338999999999999  0.73952  0.35122  1.0000
  C   C39       1.0  0.22462  0.7833  0.41757  1.0000
  C   C40       1.0  0.3327400000000001  0.7754  0.42694  1.0000
  C   C41       1.0  0.79042  0.86146  0.44462  1.0000
  C   C42       1.0  0.69735  0.8985400000000001  0.46818999999999994  1.0000
  C   C43       1.0  0.6934299999999999  0.54882  0.42652000000000007  1.0000
  C   C44       1.0  0.82046  0.4880300000000001  0.42790999999999996  1.0000
  C   C45       1.0  0.33052  0.45159  0.91284  1.0000
  C   C46       1.0  0.2072100000000001  0.5178099999999999  0.91205  1.0000
  C   C47       1.0  0.6962899999999999  0.67229  0.58274  1.0000
  C   C48       1.0  0.81368  0.60609  0.59782  1.0000
  N   N1        1.0  0.044589999999999984  0.25801  0.8312400000000001  1.0000
  N   N2        1.0  0.026919999999999993  0.2569  0.66758  1.0000
  N   N3        1.0  0.95541  0.7419800000000002  0.16876  1.0000
  N   N4        1.0  0.97307  0.74309  0.33241  1.0000
  O   O1        1.0  0.31621  0.36178  0.60326  1.0000
  O   O2        1.0  0.38942  0.49963  0.54463  1.0000
  O   O3        1.0  0.59447  0.49343000000000004  0.05939  1.0000
  O   O4        1.0  0.3451900000000001  0.3553  0.88925  1.0000
  O   O5        1.0  0.30309  0.21481  0.41237000000000007  1.0000
  O   O6        1.0  0.6138  0.60589  0.56846  1.0000
  O   O7        1.0  0.68379  0.63821  0.39674  1.0000
  O   O8        1.0  0.61057  0.50036  0.45537  1.0000
  O   O9        1.0  0.40551999999999994  0.50656  0.94061  1.0000
  O   O10       1.0  0.65481  0.64469  0.11074  1.0000
  O   O11       1.0  0.69693  0.78514  0.58764  1.0000
  O   O12       1.0  0.3862  0.39409  0.43155  1.0000
  F   F1        1.0  0.13911  0.5392900000000002  0.62192  1.0000
  F   F2        1.0  0.10201000000000002  0.43518  0.55217  1.0000
  F   F3        1.0  0.17414  0.61596  0.54243  1.0000
  F   F4        1.0  0.87859  0.55762  0.06887  1.0000
  F   F5        1.0  0.80025  0.38121000000000005  0.05805  1.0000
  F   F6        1.0  0.81842  0.44842  0.13789  1.0000
  F   F7        1.0  0.18197  0.40029  0.3485  1.0000
  F   F8        1.0  0.08965000000000001  0.33356  0.42076  1.0000
  F   F9        1.0  0.17578  0.50933  0.42041  1.0000
  F   F10       1.0  0.86089  0.4607  0.37807999999999997  1.0000
  F   F11       1.0  0.89798  0.56481  0.44782  1.0000
  F   F12       1.0  0.8258600000000001  0.38403000000000004  0.45757  1.0000
  F   F13       1.0  0.12140999999999999  0.44237  0.93112  1.0000
  F   F14       1.0  0.19974000000000003  0.61878  0.94195  1.0000
  F   F15       1.0  0.18157  0.55157  0.86211  1.0000
  F   F16       1.0  0.818  0.59931  0.6515  1.0000
  F   F17       1.0  0.91029  0.66641  0.57926  1.0000
  F   F18       1.0  0.82422  0.49061000000000005  0.57953  1.0000
