data_image0
_chemical_formula_structural       Ni4H50C64N8O18
_chemical_formula_sum              "Ni4 H50 C64 N8 O18"
_cell_length_a       10.312
_cell_length_b       10.31659
_cell_length_c       18.65218
_cell_angle_alpha    100.80949
_cell_angle_beta     100.82586
_cell_angle_gamma    95.87682

_symmetry_space_group_name_H-M    'P 1'
_symmetry_Int_Tables_number       1

loop_
  _symmetry_equiv_pos_as_xyz
  'x,y,z'

loop_
  _atom_site_type_symbol
  _atom_site_label
  _atom_site_symmetry_multiplicity
  _atom_site_fract_x
  _atom_site_fract_y
  _atom_site_fract_z
  _atom_site_occupancy
  Ni  Ni1       1.0  0.008529999999999913  0.2515799999999999  0.7840699999999998  1.0000
  Ni  Ni2       1.0  0.74787  0.9911  0.71532  1.0000
  Ni  Ni3       1.0  0.9907299999999998  0.74993  0.21946  1.0000
  Ni  Ni4       1.0  0.24981  0.009310000000000021  0.28203  1.0000
  H   H1        1.0  0.22508999999999985  0.49777  0.14947  1.0000
  H   H2        1.0  0.1892  0.34837  0.02366  1.0000
  H   H3        1.0  0.18513999999999994  0.07050000000000001  0.13247  1.0000
  H   H4        1.0  0.12507999999999997  0.04778  0.01724  1.0000
  H   H5        1.0  0.26836  0.5227800000000001  0.28703  1.0000
  H   H6        1.0  0.2726  0.31555  0.34171  1.0000
  H   H7        1.0  0.9143699999999998  0.57316  0.07289999999999999  1.0000
  H   H8        1.0  0.885  0.40341000000000005  0.96362  1.0000
  H   H9        1.0  0.7260599999999999  0.13436  0.96183  1.0000
  H   H10       1.0  0.94761  0.49691  0.28398  1.0000
  H   H11       1.0  0.8890899999999999  0.24972000000000003  0.23265  1.0000
  H   H12       1.0  0.83788  0.16343  0.09556  1.0000
  H   H13       1.0  0.50039  0.7751800000000001  0.34945  1.0000
  H   H14       1.0  0.6487899999999998  0.8099700000000001  0.47608999999999996  1.0000
  H   H15       1.0  0.92843  0.81291  0.36832999999999994  1.0000
  H   H16       1.0  0.9493699999999998  0.87505  0.48204  1.0000
  H   H17       1.0  0.47734999999999994  0.73106  0.21198  1.0000
  H   H18       1.0  0.6858  0.72608  0.15842  1.0000
  H   H19       1.0  0.4286  0.0865  0.42796  1.0000
  H   H20       1.0  0.5977700000000001  0.11624000000000001  0.53602  1.0000
  H   H21       1.0  0.86742  0.27522  0.53901  1.0000
  H   H22       1.0  0.50125  0.05176999999999999  0.21605999999999997  1.0000
  H   H23       1.0  0.7487999999999998  0.11048  0.26626  1.0000
  H   H24       1.0  0.8372099999999999  0.16273  0.40334  1.0000
  H   H25       1.0  0.7737599999999999  0.50489  0.8514  1.0000
  H   H26       1.0  0.81258  0.65163  0.97659  1.0000
  H   H27       1.0  0.8228800000000001  0.9328300000000002  0.86852  1.0000
  H   H28       1.0  0.88184  0.9522700000000001  0.9846999999999999  1.0000
  H   H29       1.0  0.7311699999999999  0.47969  0.71387  1.0000
  H   H30       1.0  0.7304399999999998  0.6875800000000002  0.65936  1.0000
  H   H31       1.0  0.08280999999999997  0.4234  0.92893  1.0000
  H   H32       1.0  0.1109  0.59493  0.03691  1.0000
  H   H33       1.0  0.27493  0.8611000000000002  0.03836  1.0000
  H   H34       1.0  0.05301999999999997  0.49438  0.71677  1.0000
  H   H35       1.0  0.11269999999999993  0.74207  0.76667  1.0000
  H   H36       1.0  0.16350999999999996  0.83139  0.90329  1.0000
  H   H37       1.0  0.4952399999999999  0.22666000000000003  0.64909  1.0000
  H   H38       1.0  0.34736  0.18753  0.52353  1.0000
  H   H39       1.0  0.06713999999999996  0.17744999999999997  0.63206  1.0000
  H   H40       1.0  0.04674999999999996  0.1178  0.51551  1.0000
  H   H41       1.0  0.5206099999999999  0.26916000000000007  0.78655  1.0000
  H   H42       1.0  0.31273  0.26972  0.84119  1.0000
  H   H43       1.0  0.57699  0.9174  0.5712  1.0000
  H   H44       1.0  0.40387999999999996  0.88899  0.46326999999999996  1.0000
  H   H45       1.0  0.13986  0.72313  0.46360999999999997  1.0000
  H   H46       1.0  0.50679  0.9473499999999998  0.7835699999999999  1.0000
  H   H47       1.0  0.25892999999999994  0.8881600000000001  0.7339799999999997  1.0000
  H   H48       1.0  0.16926999999999995  0.83697  0.5970699999999999  1.0000
  H   H49       1.0  0.9934899999999999  0.0064199999999999795  0.74852  1.0000
  H   H50       1.0  0.0014399999999999966  0.99891  0.25067  1.0000
  C   C1        1.0  0.11585999999999995  0.1226  0.91489  1.0000
  C   C2        1.0  0.7724799999999999  0.19605999999999993  0.8611199999999998  1.0000
  C   C3        1.0  0.2276  0.40927  0.17355  1.0000
  C   C4        1.0  0.20249  0.2806600000000001  0.12792  1.0000
  C   C5        1.0  0.17654999999999998  0.25920000000000004  0.04652  1.0000
  C   C6        1.0  0.20369999999999996  0.17259  0.16385  1.0000
  C   C7        1.0  0.13957  0.14053000000000002  0.99802  1.0000
  C   C8        1.0  0.2518  0.42394000000000004  0.25106  1.0000
  C   C9        1.0  0.25334  0.31098  0.28185  1.0000
  C   C10       1.0  0.8662399999999999  0.36196  0.07107  1.0000
  C   C11       1.0  0.9051999999999998  0.49689000000000005  0.10541  1.0000
  C   C12       1.0  0.84289  0.32778  0.9898899999999999  1.0000
  C   C13       1.0  0.7762699999999999  0.21542999999999993  0.9428199999999999  1.0000
  C   C14       1.0  0.9225299999999997  0.45497  0.22425  1.0000
  C   C15       1.0  0.8884599999999999  0.31832  0.19491  1.0000
  C   C16       1.0  0.8586699999999999  0.27054  0.11789  1.0000
  C   C17       1.0  0.87681  0.8864400000000001  0.58489  1.0000
  C   C18       1.0  0.80268  0.22808  0.63886  1.0000
  C   C19       1.0  0.58945  0.77206  0.32586  1.0000
  C   C20       1.0  0.71765  0.79666  0.37201  1.0000
  C   C21       1.0  0.7382199999999999  0.8228100000000002  0.45342  1.0000
  C   C22       1.0  0.82651  0.7948600000000001  0.33661  1.0000
  C   C23       1.0  0.85706  0.8604400000000001  0.5017299999999999  1.0000
  C   C24       1.0  0.5758599999999999  0.7475500000000002  0.2484  1.0000
  C   C25       1.0  0.68949  0.7455000000000002  0.21819  1.0000
  C   C26       1.0  0.6392899999999999  0.13439  0.42868  1.0000
  C   C27       1.0  0.50412  0.09528  0.39493  1.0000
  C   C28       1.0  0.67361  0.15818  0.50981  1.0000
  C   C29       1.0  0.78541  0.22504  0.5573  1.0000
  C   C30       1.0  0.54416  0.07715  0.27569  1.0000
  C   C31       1.0  0.68102  0.11134000000000001  0.30446  1.0000
  C   C32       1.0  0.72994  0.14167  0.38141  1.0000
  C   C33       1.0  0.8941299999999998  0.87555  0.08655  1.0000
  C   C34       1.0  0.224  0.80335  0.13913  1.0000
  C   C35       1.0  0.7732699999999997  0.59345  0.82733  1.0000
  C   C36       1.0  0.8006499999999999  0.722  0.87313  1.0000
  C   C37       1.0  0.8262999999999999  0.74163  0.95451  1.0000
  C   C38       1.0  0.80193  0.83048  0.83735  1.0000
  C   C39       1.0  0.8652299999999998  0.8594200000000002  0.0035499999999999998  1.0000
  C   C40       1.0  0.74934  0.57866  0.74984  1.0000
  C   C41       1.0  0.74956  0.6918000000000001  0.7191899999999998  1.0000
  C   C42       1.0  0.13296999999999995  0.63384  0.9294299999999999  1.0000
  C   C43       1.0  0.09328  0.49868  0.89594  1.0000
  C   C44       1.0  0.1553  0.66927  0.01064  1.0000
  C   C45       1.0  0.22312999999999997  0.7812100000000002  0.05755  1.0000
  C   C46       1.0  0.07814  0.5377  0.77632  1.0000
  C   C47       1.0  0.11266000000000002  0.6744500000000001  0.80499  1.0000
  C   C48       1.0  0.14211000000000001  0.7238700000000001  0.88192  1.0000
  C   C49       1.0  0.12470999999999999  0.10598999999999997  0.41391  1.0000
  C   C50       1.0  0.19630999999999998  0.7741  0.36217  1.0000
  C   C51       1.0  0.40657  0.22719  0.67309  1.0000
  C   C52       1.0  0.27787999999999996  0.19975999999999994  0.6272899999999999  1.0000
  C   C53       1.0  0.25765  0.17378000000000005  0.54588  1.0000
  C   C54       1.0  0.16956000000000002  0.19864  0.66317  1.0000
  C   C55       1.0  0.13975  0.13456  0.49682  1.0000
  C   C56       1.0  0.42150999999999994  0.25109000000000004  0.7506  1.0000
  C   C57       1.0  0.30842  0.25082  0.78134  1.0000
  C   C58       1.0  0.36674  0.8672200000000001  0.5712  1.0000
  C   C59       1.0  0.5019499999999999  0.90699  0.60436  1.0000
  C   C60       1.0  0.33062999999999987  0.84438  0.49011999999999994  1.0000
  C   C61       1.0  0.21873999999999996  0.7753100000000002  0.44378  1.0000
  C   C62       1.0  0.46323999999999993  0.92224  0.72406  1.0000
  C   C63       1.0  0.32637  0.8878300000000002  0.69557  1.0000
  C   C64       1.0  0.27675000000000005  0.85825  0.61869  1.0000
  N   N1        1.0  0.23001  0.18684  0.23820999999999998  1.0000
  N   N2        1.0  0.9304099999999997  0.54296  0.17961  1.0000
  N   N3        1.0  0.8132599999999999  0.76857  0.26233  1.0000
  N   N4        1.0  0.45694999999999997  0.06958  0.32082999999999995  1.0000
  N   N5        1.0  0.7746999999999999  0.8157400000000001  0.76296  1.0000
  N   N6        1.0  0.06939000000000001  0.45121000000000006  0.82184  1.0000
  N   N7        1.0  0.18437999999999996  0.22576999999999997  0.7375599999999999  1.0000
  N   N8        1.0  0.5496  0.9309200000000001  0.67844  1.0000
  O   O1        1.0  0.11587000000000001  0.23238000000000003  0.89022  1.0000
  O   O2        1.0  0.8314499999999999  0.28755  0.83682  1.0000
  O   O3        1.0  0.09849999999999999  0.006539999999999987  0.87621  1.0000
  O   O4        1.0  0.7078899999999999  0.08417000000000001  0.82173  1.0000
  O   O5        1.0  0.76804  0.88421  0.61073  1.0000
  O   O6        1.0  0.7096500000000001  0.16864  0.66196  1.0000
  O   O7        1.0  0.9939199999999999  0.9077700000000001  0.62254  1.0000
  O   O8        1.0  0.91439  0.2921  0.67902  1.0000
  O   O9        1.0  0.8832199999999999  0.76822  0.11246  1.0000
  O   O10       1.0  0.16172  0.71403  0.16342  1.0000
  O   O11       1.0  0.9279699999999999  0.99293  0.12472  1.0000
  O   O12       1.0  0.28822  0.91581  0.17781  1.0000
  O   O13       1.0  0.2331  0.11667  0.38889  1.0000
  O   O14       1.0  0.28529  0.83766  0.33812  1.0000
  O   O15       1.0  0.007800000000000005  0.07267000000000003  0.3748  1.0000
  O   O16       1.0  0.08448  0.70846  0.32342  1.0000
  O   O17       1.0  0.9295899999999999  0.06977000000000001  0.74956  1.0000
  O   O18       1.0  0.06484  0.93499  0.25083  1.0000
