data_image0
_chemical_formula_structural       Na4H12C12S12O36F36
_chemical_formula_sum              "Na4 H12 C12 S12 O36 F36"
_cell_length_a       14.43112
_cell_length_b       14.479550000000001
_cell_length_c       14.48265
_cell_angle_alpha    110.37902999999999
_cell_angle_beta     109.98527
_cell_angle_gamma    110.14381999999999

_symmetry_space_group_name_H-M    'P 1'
_symmetry_Int_Tables_number       1

loop_
  _symmetry_equiv_pos_as_xyz
  'x,y,z'

loop_
  _atom_site_type_symbol
  _atom_site_label
  _atom_site_symmetry_multiplicity
  _atom_site_fract_x
  _atom_site_fract_y
  _atom_site_fract_z
  _atom_site_occupancy
  Na  Na1       1.0  0.76852  7.999999999998412e-05  0.99987  1.0000
  Na  Na2       1.0  0.72277  0.22278000000000006  0.72277  1.0000
  Na  Na3       1.0  0.5000400000000003  0.5043900000000002  0.7731200000000003  1.0000
  Na  Na4       1.0  0.004400000000000012  0.27310000000000006  0.50001  1.0000
  H   H1        1.0  0.11320000000000001  0.08911000000000001  0.17445000000000002  1.0000
  H   H2        1.0  0.33203  0.07117999999999998  0.45117  1.0000
  H   H3        1.0  0.73837  0.40584  0.13634  1.0000
  H   H4        1.0  0.86881  0.4630800000000001  0.21687000000000003  1.0000
  H   H5        1.0  0.9620299999999999  0.71733  0.86875  1.0000
  H   H6        1.0  0.9055  0.63635  0.73862  1.0000
  H   H7        1.0  0.57207  0.95168  0.33702  1.0000
  H   H8        1.0  0.58552  0.67958  0.11454000000000002  1.0000
  H   H9        1.0  0.13784999999999997  0.24074000000000007  0.90833  1.0000
  H   H10       1.0  0.21866999999999995  0.37081  0.9642  1.0000
  H   H11       1.0  0.18064000000000005  0.6179600000000002  0.58905  1.0000
  H   H12       1.0  0.44860000000000005  0.83507  0.5700700000000001  1.0000
  C   C1        1.0  0.010010000000000085  0.9379500000000001  0.27454  1.0000
  C   C2        1.0  0.49084000000000005  0.26998000000000005  0.42807000000000006  1.0000
  C   C3        1.0  0.83876  0.55745  0.05808  1.0000
  C   C4        1.0  0.65895  0.22784000000000004  0.22355  1.0000
  C   C5        1.0  0.72349  0.72014  0.65623  1.0000
  C   C6        1.0  0.057450000000000084  0.5580300000000001  0.8390400000000001  1.0000
  C   C7        1.0  0.77162  0.9284400000000002  0.49177  1.0000
  C   C8        1.0  0.4348  0.7776600000000002  0.0075  1.0000
  C   C9        1.0  0.053889999999999987  0.34016  0.057400000000000014  1.0000
  C   C10       1.0  0.21959000000000012  0.15797  0.72271  1.0000
  C   C11       1.0  0.27656000000000003  0.5093400000000001  0.43648000000000003  1.0000
  C   C12       1.0  0.4285300000000001  0.9943700000000002  0.76898  1.0000
  S   S1        1.0  0.013429999999999994  0.058140000000000004  0.25147  1.0000
  S   S2        1.0  0.47753  0.24304000000000006  0.54167  1.0000
  S   S3        1.0  0.6904  0.43224  0.93777  1.0000
  S   S4        1.0  0.79971  0.24284  0.23089000000000004  1.0000
  S   S5        1.0  0.74029  0.73247  0.79861  1.0000
  S   S6        1.0  0.93265  0.43738  0.6911  1.0000
  S   S7        1.0  0.7445700000000001  0.04315000000000009  0.48104000000000013  1.0000
  S   S8        1.0  0.56076  0.7613400000000002  0.01909  1.0000
  S   S9        1.0  0.93596  0.19074000000000016  0.9331400000000001  1.0000
  S   S10       1.0  0.2281000000000001  0.29948000000000013  0.7402700000000001  1.0000
  S   S11       1.0  0.2620599999999999  0.52209  0.56337  1.0000
  S   S12       1.0  0.5427400000000002  0.9812200000000005  0.7418900000000003  1.0000
  O   O1        1.0  0.9172800000000001  0.0012199999999999945  0.13535  1.0000
  O   O2        1.0  0.13276  0.11022  0.25378  1.0000
  O   O3        1.0  0.75041  0.12565000000000004  0.13058  1.0000
  O   O4        1.0  0.5428  0.18940999999999997  0.56784  1.0000
  O   O5        1.0  0.34095000000000003  0.14676000000000008  0.4703300000000001  1.0000
  O   O6        1.0  0.70824  0.37053  0.84713  1.0000
  O   O7        1.0  0.63038  0.49223000000000017  0.9118000000000002  1.0000
  O   O8        1.0  0.65262  0.36944000000000016  0.9913300000000002  1.0000
  O   O9        1.0  0.49532000000000004  0.34728  0.62548  1.0000
  O   O10       1.0  0.86746  0.2653800000000001  0.34892  1.0000
  O   O11       1.0  0.79691  0.4341  0.21615000000000004  1.0000
  O   O12       1.0  0.028069999999999987  0.14361000000000002  0.35267  1.0000
  O   O13       1.0  0.75338  0.8473900000000002  0.86009  1.0000
  O   O14       1.0  0.9334200000000002  0.7162800000000004  0.7969800000000002  1.0000
  O   O15       1.0  0.64766  0.8667000000000002  0.0413  1.0000
  O   O16       1.0  0.9939600000000001  0.4110100000000001  0.6324900000000001  1.0000
  O   O17       1.0  0.86996  0.49075000000000013  0.65256  1.0000
  O   O18       1.0  0.8485999999999999  0.12743  0.49899  1.0000
  O   O19       1.0  0.69093  0.06913  0.54668  1.0000
  O   O20       1.0  0.64766  0.97203  0.34503  1.0000
  O   O21       1.0  0.87038  0.34702000000000016  0.7085900000000002  1.0000
  O   O22       1.0  0.5102200000000002  0.6478700000000002  0.9214400000000003  1.0000
  O   O23       1.0  0.6067600000000001  0.75938  0.1359  1.0000
  O   O24       1.0  0.62726  0.6277000000000003  0.75115  1.0000
  O   O25       1.0  0.9111599999999999  0.13239  0.9947  1.0000
  O   O26       1.0  0.99184  0.15436  0.8721  1.0000
  O   O27       1.0  0.62763  0.9999700000000001  0.84559  1.0000
  O   O28       1.0  0.34875000000000006  0.3707900000000001  0.76929  1.0000
  O   O29       1.0  0.21754000000000004  0.2988000000000001  0.93527  1.0000
  O   O30       1.0  0.3677300000000001  0.5432300000000002  0.64843  1.0000
  O   O31       1.0  0.14828000000000002  0.4253800000000001  0.51385  1.0000
  O   O32       1.0  0.26081  0.6395700000000002  0.61102  1.0000
  O   O33       1.0  0.13222  0.2507700000000001  0.62086  1.0000
  O   O34       1.0  0.56785  0.04513000000000009  0.68698  1.0000
  O   O35       1.0  0.47096000000000005  0.8445600000000001  0.64618  1.0000
  O   O36       1.0  0.8433  0.20484  0.86922  1.0000
  F   F1        1.0  0.09215  0.9809900000000001  0.38375  1.0000
  F   F2        1.0  0.027730000000000123  0.8706100000000003  0.19935000000000005  1.0000
  F   F3        1.0  0.90392  0.87546  0.25516  1.0000
  F   F4        1.0  0.41206  0.2964700000000001  0.38409  1.0000
  F   F5        1.0  0.47132  0.17477000000000006  0.34204  1.0000
  F   F6        1.0  0.5981600000000004  0.35768  0.4777  1.0000
  F   F7        1.0  0.91164  0.52307  0.10142  1.0000
  F   F8        1.0  0.8336500000000001  0.6249100000000002  0.14766  1.0000
  F   F9        1.0  0.8888600000000001  0.6251600000000002  0.02314  1.0000
  F   F10       1.0  0.58764  0.20816000000000007  0.12045  1.0000
  F   F11       1.0  0.68029  0.3232200000000001  0.30981  1.0000
  F   F12       1.0  0.60656  0.13490000000000002  0.23157000000000005  1.0000
  F   F13       1.0  0.70373  0.61577  0.58749  1.0000
  F   F14       1.0  0.8185400000000002  0.8050700000000001  0.67556  1.0000
  F   F15       1.0  0.63018  0.72704  0.60215  1.0000
  F   F16       1.0  0.022990000000000007  0.60165  0.91186  1.0000
  F   F17       1.0  0.12482000000000024  0.6474100000000005  0.8338100000000003  1.0000
  F   F18       1.0  0.12525  0.52308  0.88886  1.0000
  F   F19       1.0  0.79644  0.88393  0.41153000000000006  1.0000
  F   F20       1.0  0.67588  0.8427600000000001  0.47217  1.0000
  F   F21       1.0  0.86109  0.9769600000000005  0.59752  1.0000
  F   F22       1.0  0.47181000000000006  0.8836400000000002  0.09221  1.0000
  F   F23       1.0  0.36209  0.69535  0.014310000000000002  1.0000
  F   F24       1.0  0.37979  0.76422  0.90331  1.0000
  F   F25       1.0  0.09679000000000004  0.41240000000000004  0.0227  1.0000
  F   F26       1.0  0.14447  0.33779  0.12573  1.0000
  F   F27       1.0  0.017760000000000015  0.38888  0.12488000000000003  1.0000
  F   F28       1.0  0.11591000000000012  0.08763000000000014  0.7036200000000002  1.0000
  F   F29       1.0  0.30571  0.17623000000000005  0.8152  1.0000
  F   F30       1.0  0.22664  0.10599  0.62905  1.0000
  F   F31       1.0  0.38299  0.59173  0.47156  1.0000
  F   F32       1.0  0.19508  0.51878  0.36636  1.0000
  F   F33       1.0  0.2596800000000001  0.40342000000000006  0.3797400000000001  1.0000
  F   F34       1.0  0.38412000000000013  0.9165900000000002  0.7962500000000001  1.0000
  F   F35       1.0  0.3428600000000002  0.9723300000000004  0.6716300000000001  1.0000
  F   F36       1.0  0.47685  0.10173999999999998  0.85622  1.0000
