data_image0
_chemical_formula_structural       Co6H24C48O24
_chemical_formula_sum              "Co6 H24 C48 O24"
_cell_length_a       9.6593
_cell_length_b       11.712449999999999
_cell_length_c       13.39406
_cell_angle_alpha    93.06146
_cell_angle_beta     102.01001
_cell_angle_gamma    103.28194

_space_group_name_H-M_alt    "P 1"
_space_group_IT_number       1

loop_
  _space_group_symop_operation_xyz
  'x, y, z'

loop_
  _atom_site_type_symbol
  _atom_site_label
  _atom_site_symmetry_multiplicity
  _atom_site_fract_x
  _atom_site_fract_y
  _atom_site_fract_z
  _atom_site_occupancy
  Co  Co1       1.0  0.45021  0.27803  0.33925  1.0000
  Co  Co2       1.0  0.8643499999999998  0.78014  0.84263  1.0000
  Co  Co3       1.0  0.5475499999999998  0.72323  0.6597899999999999  1.0000
  Co  Co4       1.0  0.13164  0.21389  0.15417  1.0000
  Co  Co5       1.0  0.49668999999999996  0.49978  0.4986  1.0000
  Co  Co6       1.0  0.9973999999999998  0.9972799999999998  0.99826  1.0000
  H   H1        1.0  0.19603999999999996  0.62545  0.34689  1.0000
  H   H2        1.0  0.09897999999999997  0.7667  0.23298  1.0000
  H   H3        1.0  0.15957999999999997  0.57351  0.9703599999999999  1.0000
  H   H4        1.0  0.2661999999999999  0.43733  0.08379  1.0000
  H   H5        1.0  0.37772  0.29261999999999994  0.72533  1.0000
  H   H6        1.0  0.2446  0.16814  0.83891  1.0000
  H   H7        1.0  0.06581999999999999  0.89168  0.59033  1.0000
  H   H8        1.0  0.20358  0.014230000000000001  0.47726  1.0000
  H   H9        1.0  0.8164999999999999  0.61599  0.43822  1.0000
  H   H10       1.0  0.92639  0.28183  0.46868  1.0000
  H   H11       1.0  0.46759  0.79261  0.04921  1.0000
  H   H12       1.0  0.6854799999999999  0.07296  0.90002  1.0000
  H   H13       1.0  0.8025699999999998  0.37136  0.65124  1.0000
  H   H14       1.0  0.8985099999999999  0.22987  0.76528  1.0000
  H   H15       1.0  0.83683  0.42325  0.0274  1.0000
  H   H16       1.0  0.7309699999999998  0.55936  0.91393  1.0000
  H   H17       1.0  0.61953  0.70497  0.27391  1.0000
  H   H18       1.0  0.75532  0.8285  0.16061999999999999  1.0000
  H   H19       1.0  0.93542  0.10467  0.40979  1.0000
  H   H20       1.0  0.7959799999999998  0.9823499999999998  0.52246  1.0000
  H   H21       1.0  0.18188  0.38648  0.5619  1.0000
  H   H22       1.0  0.07202000000000001  0.72077  0.53136  1.0000
  H   H23       1.0  0.53121  0.20221  0.9498199999999999  1.0000
  H   H24       1.0  0.31288  0.9217999999999998  0.09838  1.0000
  C   C1        1.0  0.23172999999999996  0.52102  0.2215  1.0000
  C   C2        1.0  0.18819  0.61562  0.26461  1.0000
  C   C3        1.0  0.13422  0.69341  0.20179  1.0000
  C   C4        1.0  0.1207  0.67596  0.09522  1.0000
  C   C5        1.0  0.16931  0.58438  0.05282  1.0000
  C   C6        1.0  0.22663999999999998  0.50778  0.11572  1.0000
  C   C7        1.0  0.2838699999999999  0.43828  0.28972  1.0000
  C   C8        1.0  0.048569999999999974  0.7523299999999999  0.02717  1.0000
  C   C9        1.0  0.29907  0.16037  0.59477  1.0000
  C   C10       1.0  0.31056  0.20433  0.69679  1.0000
  C   C11       1.0  0.2367499999999999  0.13516  0.7599399999999998  1.0000
  C   C12       1.0  0.14893  0.021949999999999983  0.72106  1.0000
  C   C13       1.0  0.13655  0.9786  0.61901  1.0000
  C   C14       1.0  0.21222  0.0467  0.55638  1.0000
  C   C15       1.0  0.37438999999999995  0.23649  0.52685  1.0000
  C   C16       1.0  0.06605999999999998  0.9484699999999999  0.78669  1.0000
  C   C17       1.0  0.70558  0.38167  0.3978  1.0000
  C   C18       1.0  0.89719  0.56698  0.4657299999999999  1.0000
  C   C19       1.0  0.8575499999999998  0.44306999999999996  0.44835  1.0000
  C   C20       1.0  0.95989  0.3775899999999999  0.48275  1.0000
  C   C21       1.0  0.6787699999999998  0.84954  0.9445  1.0000
  C   C22       1.0  0.48083999999999993  0.88223  0.02801  1.0000
  C   C23       1.0  0.58617  0.92584  0.97227  1.0000
  C   C24       1.0  0.6038  0.04105  0.94346  1.0000
  C   C25       1.0  0.76429  0.47509  0.77586  1.0000
  C   C26       1.0  0.80896  0.38076  0.73333  1.0000
  C   C27       1.0  0.86263  0.30294  0.79629  1.0000
  C   C28       1.0  0.87523  0.32008  0.9028  1.0000
  C   C29       1.0  0.82692  0.41202  0.94491  1.0000
  C   C30       1.0  0.76971  0.48857999999999996  0.88174  1.0000
  C   C31       1.0  0.71067  0.55685  0.70679  1.0000
  C   C32       1.0  0.9462299999999999  0.24271999999999996  0.9705  1.0000
  C   C33       1.0  0.6993799999999998  0.8372399999999999  0.4041699999999999  1.0000
  C   C34       1.0  0.6878  0.79295  0.30229  1.0000
  C   C35       1.0  0.7628399999999997  0.86156  0.23952999999999997  1.0000
  C   C36       1.0  0.85133  0.9743999999999999  0.27874  1.0000
  C   C37       1.0  0.8641  0.018  0.38085  1.0000
  C   C38       1.0  0.78757  0.95027  0.44321  1.0000
  C   C39       1.0  0.62207  0.7622499999999998  0.47146  1.0000
  C   C40       1.0  0.9341099999999999  0.04710999999999999  0.21286999999999998  1.0000
  C   C41       1.0  0.29276  0.62125  0.60197  1.0000
  C   C42       1.0  0.10114999999999995  0.43558  0.53461  1.0000
  C   C43       1.0  0.14076  0.55955  0.55196  1.0000
  C   C44       1.0  0.03840999999999999  0.62501  0.51754  1.0000
  C   C45       1.0  0.32057  0.14533  0.05518  1.0000
  C   C46       1.0  0.5181299999999999  0.11258  0.97101  1.0000
  C   C47       1.0  0.41306  0.06906  0.027  1.0000
  C   C48       1.0  0.3949899999999999  0.9536999999999999  0.055319999999999994  1.0000
  O   O1        1.0  0.29949  0.33766  0.24806  1.0000
  O   O2        1.0  0.31323  0.46205  0.38572999999999996  1.0000
  O   O3        1.0  0.04228999999999999  0.8515699999999999  0.06614  1.0000
  O   O4        1.0  0.99418  0.7084599999999999  0.93327  1.0000
  O   O5        1.0  0.3677000000000001  0.1885  0.43573  1.0000
  O   O6        1.0  0.43749999999999994  0.34282  0.5608  1.0000
  O   O7        1.0  0.09801999999999993  0.9778399999999999  0.88319  1.0000
  O   O8        1.0  0.9653499999999999  0.8570499999999999  0.74227  1.0000
  O   O9        1.0  0.6037199999999999  0.4388899999999999  0.38859  1.0000
  O   O10       1.0  0.6667999999999997  0.27235  0.36364  1.0000
  O   O11       1.0  0.7844  0.90161  0.89911  1.0000
  O   O12       1.0  0.65991  0.74382  0.9595  1.0000
  O   O13       1.0  0.69489  0.6577399999999999  0.74784  1.0000
  O   O14       1.0  0.68062  0.53192  0.61096  1.0000
  O   O15       1.0  0.9513899999999996  0.14352999999999994  0.93035  1.0000
  O   O16       1.0  0.0003400000000000036  0.28546  0.06481  1.0000
  O   O17       1.0  0.6315599999999999  0.8107399999999998  0.56296  1.0000
  O   O18       1.0  0.55482  0.65688  0.43688999999999995  1.0000
  O   O19       1.0  0.90138  0.01739  0.11641  1.0000
  O   O20       1.0  0.03535  0.13827  0.25714  1.0000
  O   O21       1.0  0.39499  0.56443  0.61061  1.0000
  O   O22       1.0  0.33215  0.73071  0.6361699999999999  1.0000
  O   O23       1.0  0.21421000000000012  0.09327  0.09972  1.0000
  O   O24       1.0  0.34023999999999993  0.25125  0.04062  1.0000
