data_image0
_chemical_formula_structural       Zn6H66C54N12O12
_chemical_formula_sum              "Zn6 H66 C54 N12 O12"
_cell_length_a       9.62082
_cell_length_b       19.05391
_cell_length_c       19.00347
_cell_angle_alpha    119.41031000000001
_cell_angle_beta     90.01072
_cell_angle_gamma    90.08891000000001

_space_group_name_H-M_alt    "P 1"
_space_group_IT_number       1

loop_
  _space_group_symop_operation_xyz
  'x, y, z'

loop_
  _atom_site_type_symbol
  _atom_site_label
  _atom_site_symmetry_multiplicity
  _atom_site_fract_x
  _atom_site_fract_y
  _atom_site_fract_z
  _atom_site_occupancy
  Zn  Zn1       1.0  0.9896  0.49521999999999994  0.05686  1.0000
  Zn  Zn2       1.0  0.66372  0.56257  0.50381  1.0000
  Zn  Zn3       1.0  0.32993  0.94137  0.43577  1.0000
  Zn  Zn4       1.0  0.48888000000000004  0.5058  0.94294  1.0000
  Zn  Zn5       1.0  0.16323  0.43698999999999993  0.4958199999999999  1.0000
  Zn  Zn6       1.0  0.82979  0.058840000000000024  0.56446  1.0000
  H   H1        1.0  0.23016  0.4329  0.10217  1.0000
  H   H2        1.0  0.2848  0.3953  0.20602999999999994  1.0000
  H   H3        1.0  0.8871500000000001  0.4973999999999999  0.31844  1.0000
  H   H4        1.0  0.84733  0.5321499999999999  0.21155  1.0000
  H   H5        1.0  0.029660000000000002  0.37541  0.335  1.0000
  H   H6        1.0  0.20958000000000002  0.3754899999999999  0.31561  1.0000
  H   H7        1.0  0.26761  0.53442  0.36918  1.0000
  H   H8        1.0  0.11763  0.64441  0.47004  1.0000
  H   H9        1.0  0.29434  0.6652899999999999  0.50195  1.0000
  H   H10       1.0  0.17995  0.62673  0.54837  1.0000
  H   H11       1.0  0.039  0.5107799999999999  0.4351399999999999  1.0000
  H   H12       1.0  0.9016900000000001  0.67092  0.56789  1.0000
  H   H13       1.0  0.95308  0.81218  0.60668  1.0000
  H   H14       1.0  0.5533  0.82158  0.50431  1.0000
  H   H15       1.0  0.51691  0.6802399999999998  0.46842  1.0000
  H   H16       1.0  0.69324  0.9583799999999999  0.62516  1.0000
  H   H17       1.0  0.87342  0.9410699999999999  0.62727  1.0000
  H   H18       1.0  0.9329300000000001  0.8371299999999998  0.46756  1.0000
  H   H19       1.0  0.78375  0.8282699999999997  0.35636  1.0000
  H   H20       1.0  0.96057  0.8399999999999999  0.33618  1.0000
  H   H21       1.0  0.84586  0.9236899999999999  0.37351  1.0000
  H   H22       1.0  0.70459  0.9263099999999999  0.49037000000000003  1.0000
  H   H23       1.0  0.56753  0.8953999999999999  0.3268099999999999  1.0000
  H   H24       1.0  0.61722  0.7915600000000002  0.18653  1.0000
  H   H25       1.0  0.21397  0.6850199999999999  0.18081  1.0000
  H   H26       1.0  0.17944  0.7914799999999997  0.3210999999999999  1.0000
  H   H27       1.0  0.35558  0.66557  0.04194  1.0000
  H   H28       1.0  0.53604  0.68457  0.05892  1.0000
  H   H29       1.0  0.59789  0.62943  0.16424  1.0000
  H   H30       1.0  0.44669000000000003  0.5285799999999999  0.1754  1.0000
  H   H31       1.0  0.62334  0.49716999999999995  0.16459  1.0000
  H   H32       1.0  0.50856  0.4508  0.08066  1.0000
  H   H33       1.0  0.36665  0.5649199999999999  0.07767  1.0000
  H   H34       1.0  0.72763  0.56879  0.8983  1.0000
  H   H35       1.0  0.78368  0.6056799999999998  0.7941699999999998  1.0000
  H   H36       1.0  0.3848  0.5044899999999998  0.6818299999999998  1.0000
  H   H37       1.0  0.34349  0.47065999999999997  0.78917  1.0000
  H   H38       1.0  0.53048  0.6247699999999999  0.6635899999999998  1.0000
  H   H39       1.0  0.71004  0.62461  0.68374  1.0000
  H   H40       1.0  0.76668  0.46527  0.6307  1.0000
  H   H41       1.0  0.61668  0.35488999999999987  0.52898  1.0000
  H   H42       1.0  0.79368  0.33483  0.49789999999999995  1.0000
  H   H43       1.0  0.67981  0.37319  0.45123  1.0000
  H   H44       1.0  0.53832  0.48905  0.56454  1.0000
  H   H45       1.0  0.40146  0.32959  0.43289  1.0000
  H   H46       1.0  0.4528  0.1881  0.39318  1.0000
  H   H47       1.0  0.05417  0.17725  0.49548000000000003  1.0000
  H   H48       1.0  0.01729  0.31884  0.53205  1.0000
  H   H49       1.0  0.1933  0.04083  0.37401  1.0000
  H   H50       1.0  0.3732  0.058659999999999976  0.37178  1.0000
  H   H51       1.0  0.43295000000000006  0.16378000000000004  0.53256  1.0000
  H   H52       1.0  0.28397  0.17078  0.64349  1.0000
  H   H53       1.0  0.46088000000000007  0.15919999999999995  0.66345  1.0000
  H   H54       1.0  0.34629  0.07499999999999997  0.62475  1.0000
  H   H55       1.0  0.20488  0.07399999999999994  0.50903  1.0000
  H   H56       1.0  0.06855  0.10515999999999996  0.67284  1.0000
  H   H57       1.0  0.1175  0.20726999999999995  0.81408  1.0000
  H   H58       1.0  0.7177  0.3161  0.81942  1.0000
  H   H59       1.0  0.68358  0.21117999999999992  0.6781399999999997  1.0000
  H   H60       1.0  0.8566099999999999  0.3329599999999998  0.9586399999999998  1.0000
  H   H61       1.0  0.03722  0.3152599999999999  0.9417899999999998  1.0000
  H   H62       1.0  0.09402  0.36997  0.8342  1.0000
  H   H63       1.0  0.94402  0.4734  0.82613  1.0000
  H   H64       1.0  0.12131  0.5046399999999999  0.83784  1.0000
  H   H65       1.0  0.00693  0.54906  0.922  1.0000
  H   H66       1.0  0.8651600000000002  0.43288999999999994  0.9218  1.0000
  C   C1        1.0  0.15685  0.4443099999999999  0.15008  1.0000
  C   C2        1.0  0.18562  0.42395  0.20847  1.0000
  C   C3        1.0  0.0886  0.4385499999999999  0.2706499999999999  1.0000
  C   C4        1.0  0.9643800000000001  0.48008  0.27077  1.0000
  C   C5        1.0  0.94025  0.49970999999999993  0.21147  1.0000
  C   C6        1.0  0.11477  0.41212  0.33084  1.0000
  C   C7        1.0  0.24598  0.5372499999999999  0.42728  1.0000
  C   C8        1.0  0.37679999999999997  0.5134199999999999  0.45632  1.0000
  C   C9        1.0  0.20722  0.62378  0.4908199999999999  1.0000
  C   C10       1.0  0.82727  0.70711  0.5566  1.0000
  C   C11       1.0  0.8541000000000001  0.78575  0.57772  1.0000
  C   C12       1.0  0.75551  0.83291  0.56326  1.0000
  C   C13       1.0  0.63172  0.7913499999999999  0.52137  1.0000
  C   C14       1.0  0.60962  0.71258  0.50098  1.0000
  C   C15       1.0  0.77978  0.91902  0.5894899999999997  1.0000
  C   C16       1.0  0.9117100000000001  0.89208  0.46429  1.0000
  C   C17       1.0  0.0431  0.9442899999999999  0.48771  1.0000
  C   C18       1.0  0.87306  0.86964  0.37724999999999986  1.0000
  C   C19       1.0  0.4922  0.8485299999999999  0.29166  1.0000
  C   C20       1.0  0.51818  0.7902  0.21362  1.0000
  C   C21       1.0  0.4185499999999999  0.7294  0.16762  1.0000
  C   C22       1.0  0.29398  0.73103  0.20988  1.0000
  C   C23       1.0  0.27261  0.79011  0.28808  1.0000
  C   C24       1.0  0.44220999999999994  0.6694599999999999  0.08173  1.0000
  C   C25       1.0  0.57432  0.57188  0.11005  1.0000
  C   C26       1.0  0.70396  0.54289  0.05689  1.0000
  C   C27       1.0  0.53601  0.50823  0.13414  1.0000
  C   C28       1.0  0.6543  0.5575999999999999  0.85038  1.0000
  C   C29       1.0  0.68382  0.5775099999999999  0.79182  1.0000
  C   C30       1.0  0.58715  0.56276  0.72935  1.0000
  C   C31       1.0  0.46202  0.52191  0.72961  1.0000
  C   C32       1.0  0.43705  0.50275  0.78913  1.0000
  C   C33       1.0  0.61476  0.5881599999999999  0.66849  1.0000
  C   C34       1.0  0.74511  0.4625499999999998  0.5726599999999997  1.0000
  C   C35       1.0  0.87661  0.4860799999999999  0.54392  1.0000
  C   C36       1.0  0.70646  0.37604  0.50881  1.0000
  C   C37       1.0  0.32679  0.29286999999999996  0.4433799999999999  1.0000
  C   C38       1.0  0.3536  0.21414999999999998  0.42175  1.0000
  C   C39       1.0  0.25489  0.16657000000000002  0.4356  1.0000
  C   C40       1.0  0.13165  0.20779999999999996  0.47809  1.0000
  C   C41       1.0  0.10945  0.28664  0.4989  1.0000
  C   C42       1.0  0.27973  0.08059  0.40961  1.0000
  C   C43       1.0  0.4119  0.10851999999999994  0.53538  1.0000
  C   C44       1.0  0.54352  0.05678999999999995  0.51196  1.0000
  C   C45       1.0  0.37338  0.12973  0.62212  1.0000
  C   C46       1.0  0.9932999999999998  0.15178  0.70826  1.0000
  C   C47       1.0  0.01884  0.20904999999999996  0.78681  1.0000
  C   C48       1.0  0.9194  0.26959  0.83292  1.0000
  C   C49       1.0  0.79635  0.26938999999999996  0.79023  1.0000
  C   C50       1.0  0.77543  0.21133999999999994  0.71157  1.0000
  C   C51       1.0  0.9428900000000001  0.32965  0.91887  1.0000
  C   C52       1.0  0.07227  0.42727  0.88914  1.0000
  C   C53       1.0  0.20346  0.45577  0.94132  1.0000
  C   C54       1.0  0.03362  0.4925  0.86731  1.0000
  N   N1        1.0  0.13214  0.48064999999999997  0.41719  1.0000
  N   N2        1.0  0.03216  0.48085  0.14800999999999995  1.0000
  N   N3        1.0  0.79784  0.9377899999999999  0.52073  1.0000
  N   N4        1.0  0.70316  0.6681699999999999  0.51946  1.0000
  N   N5        1.0  0.4594  0.58276  0.06443  1.0000
  N   N6        1.0  0.36766  0.8518699999999999  0.3311  1.0000
  N   N7        1.0  0.6318  0.5191  0.58243  1.0000
  N   N8        1.0  0.52901  0.52156  0.85264  1.0000
  N   N9        1.0  0.29814  0.06248999999999991  0.4787499999999999  1.0000
  N   N10       1.0  0.20254  0.33129999999999993  0.48031  1.0000
  N   N11       1.0  0.95863  0.41614999999999996  0.93541  1.0000
  N   N12       1.0  0.86961  0.1493099999999999  0.6684399999999998  1.0000
  O   O1        1.0  0.36181  0.48603  0.50546  1.0000
  O   O2        1.0  0.4929200000000001  0.52625  0.43244  1.0000
  O   O3        1.0  0.02836  0.02012999999999998  0.51468  1.0000
  O   O4        1.0  0.15925  0.9079599999999999  0.47455  1.0000
  O   O5        1.0  0.68762  0.49333999999999995  0.98151  1.0000
  O   O6        1.0  0.82072  0.5668699999999999  0.09251  1.0000
  O   O7        1.0  0.86234  0.51413  0.49534  1.0000
  O   O8        1.0  0.9925  0.47208  0.56715  1.0000
  O   O9        1.0  0.52883  0.9807899999999999  0.48419  1.0000
  O   O10       1.0  0.65964  0.09348999999999999  0.52586  1.0000
  O   O11       1.0  0.18862  0.50389  0.017129999999999992  1.0000
  O   O12       1.0  0.31971  0.4333  0.90484  1.0000
