data_image0
_chemical_formula_structural       Zn4Si2H32C56O16
_chemical_formula_sum              "Zn4 Si2 H32 C56 O16"
_cell_length_a       13.03186
_cell_length_b       13.03186
_cell_length_c       23.63398
_cell_angle_alpha    90.0
_cell_angle_beta     90.0
_cell_angle_gamma    90.0

_symmetry_space_group_name_H-M    'P 1'
_symmetry_Int_Tables_number       1

loop_
  _symmetry_equiv_pos_as_xyz
  'x,y,z'

loop_
  _atom_site_type_symbol
  _atom_site_label
  _atom_site_symmetry_multiplicity
  _atom_site_fract_x
  _atom_site_fract_y
  _atom_site_fract_z
  _atom_site_occupancy
  Zn  Zn1       1.0  0.59826  0.0  0.0  1.0000
  Zn  Zn2       1.0  0.4017300000000001  0.0  0.0  1.0000
  Zn  Zn3       1.0  0.0  0.59826  0.5  1.0000
  Zn  Zn4       1.0  0.0  0.4017300000000001  0.5  1.0000
  Si  Si1       1.0  0.5  0.5  0.7499999999999999  1.0000
  Si  Si2       1.0  0.5  0.5  0.25  1.0000
  H   H1        1.0  0.6656400000000002  0.6276  0.8025  1.0000
  H   H2        1.0  0.66449  0.7676800000000003  0.87378  1.0000
  H   H3        1.0  0.33436  0.37239  0.8025  1.0000
  H   H4        1.0  0.33551  0.23232000000000005  0.87378  1.0000
  H   H5        1.0  0.37239  0.6656400000000002  0.3025  1.0000
  H   H6        1.0  0.23232000000000005  0.66449  0.37378  1.0000
  H   H7        1.0  0.6276  0.33436  0.3025  1.0000
  H   H8        1.0  0.7676800000000003  0.33551  0.37378  1.0000
  H   H9        1.0  0.33436  0.6276  0.19751  1.0000
  H   H10       1.0  0.33551  0.7676800000000003  0.12622  1.0000
  H   H11       1.0  0.6656400000000002  0.37239  0.19751  1.0000
  H   H12       1.0  0.66449  0.23232000000000005  0.12622  1.0000
  H   H13       1.0  0.6276  0.6656400000000002  0.6975099999999999  1.0000
  H   H14       1.0  0.7676800000000003  0.66449  0.62622  1.0000
  H   H15       1.0  0.37239  0.33436  0.6975099999999999  1.0000
  H   H16       1.0  0.23232000000000005  0.33551  0.62622  1.0000
  H   H17       1.0  0.33436  0.37239  0.19751  1.0000
  H   H18       1.0  0.33551  0.23232000000000005  0.12622  1.0000
  H   H19       1.0  0.6656400000000002  0.6276  0.19751  1.0000
  H   H20       1.0  0.66449  0.7676800000000003  0.12622  1.0000
  H   H21       1.0  0.6276  0.33436  0.6975099999999999  1.0000
  H   H22       1.0  0.7676800000000003  0.33551  0.62622  1.0000
  H   H23       1.0  0.37239  0.6656400000000002  0.6975099999999999  1.0000
  H   H24       1.0  0.23232000000000005  0.66449  0.62622  1.0000
  H   H25       1.0  0.6656400000000002  0.37239  0.8025  1.0000
  H   H26       1.0  0.66449  0.23232000000000005  0.87378  1.0000
  H   H27       1.0  0.33436  0.6276  0.8025  1.0000
  H   H28       1.0  0.33551  0.7676800000000003  0.87378  1.0000
  H   H29       1.0  0.37239  0.33436  0.3025  1.0000
  H   H30       1.0  0.23232000000000005  0.33551  0.37378  1.0000
  H   H31       1.0  0.6276  0.6656400000000002  0.3025  1.0000
  H   H32       1.0  0.7676800000000003  0.66449  0.37378  1.0000
  C   C1        1.0  0.5927  0.6575700000000002  0.81773  1.0000
  C   C2        1.0  0.59295  0.7362200000000002  0.85774  1.0000
  C   C3        1.0  0.4073000000000001  0.34242000000000006  0.81773  1.0000
  C   C4        1.0  0.4070500000000001  0.26378  0.85774  1.0000
  C   C5        1.0  0.34242000000000006  0.59269  0.31773  1.0000
  C   C6        1.0  0.26378  0.59295  0.35774  1.0000
  C   C7        1.0  0.6575700000000002  0.4073000000000001  0.31773  1.0000
  C   C8        1.0  0.7362200000000002  0.4070500000000001  0.35774  1.0000
  C   C9        1.0  0.4073000000000001  0.6575700000000002  0.18228  1.0000
  C   C10       1.0  0.4070500000000001  0.7362200000000002  0.14226  1.0000
  C   C11       1.0  0.5927  0.34242000000000006  0.18228  1.0000
  C   C12       1.0  0.59295  0.26378  0.14226  1.0000
  C   C13       1.0  0.6575700000000002  0.59269  0.6822799999999999  1.0000
  C   C14       1.0  0.7362200000000002  0.59295  0.64227  1.0000
  C   C15       1.0  0.34242000000000006  0.4073000000000001  0.6822799999999999  1.0000
  C   C16       1.0  0.26378  0.4070500000000001  0.64227  1.0000
  C   C17       1.0  0.4073000000000001  0.34242000000000006  0.18228  1.0000
  C   C18       1.0  0.4070500000000001  0.26378  0.14226  1.0000
  C   C19       1.0  0.5927  0.6575700000000002  0.18228  1.0000
  C   C20       1.0  0.59295  0.7362200000000002  0.14226  1.0000
  C   C21       1.0  0.6575700000000002  0.4073000000000001  0.6822799999999999  1.0000
  C   C22       1.0  0.7362200000000002  0.4070500000000001  0.64227  1.0000
  C   C23       1.0  0.34242000000000006  0.59269  0.6822799999999999  1.0000
  C   C24       1.0  0.26378  0.59295  0.64227  1.0000
  C   C25       1.0  0.5927  0.34242000000000006  0.81773  1.0000
  C   C26       1.0  0.59295  0.26378  0.85774  1.0000
  C   C27       1.0  0.4073000000000001  0.6575700000000002  0.81773  1.0000
  C   C28       1.0  0.4070500000000001  0.7362200000000002  0.85774  1.0000
  C   C29       1.0  0.34242000000000006  0.4073000000000001  0.31773  1.0000
  C   C30       1.0  0.26378  0.4070500000000001  0.35774  1.0000
  C   C31       1.0  0.6575700000000002  0.59269  0.31773  1.0000
  C   C32       1.0  0.7362200000000002  0.59295  0.35774  1.0000
  C   C33       1.0  0.5  0.61642  0.79705  1.0000
  C   C34       1.0  0.5  0.77551  0.87839  1.0000
  C   C35       1.0  0.4999900000000001  0.85769  0.92249  1.0000
  C   C36       1.0  0.5  0.3835800000000001  0.79705  1.0000
  C   C37       1.0  0.5  0.22449  0.87839  1.0000
  C   C38       1.0  0.4999900000000001  0.1423  0.92249  1.0000
  C   C39       1.0  0.3835800000000001  0.5  0.29705  1.0000
  C   C40       1.0  0.22449  0.5  0.37839  1.0000
  C   C41       1.0  0.1423  0.5  0.42249  1.0000
  C   C42       1.0  0.61642  0.5  0.29705  1.0000
  C   C43       1.0  0.77551  0.5  0.37839  1.0000
  C   C44       1.0  0.85769  0.5  0.42249  1.0000
  C   C45       1.0  0.5  0.61642  0.20295  1.0000
  C   C46       1.0  0.5  0.77551  0.12162  1.0000
  C   C47       1.0  0.4999900000000001  0.85769  0.07751  1.0000
  C   C48       1.0  0.5  0.3835800000000001  0.20295  1.0000
  C   C49       1.0  0.5  0.22449  0.12162  1.0000
  C   C50       1.0  0.4999900000000001  0.1423  0.07751  1.0000
  C   C51       1.0  0.61642  0.5  0.7029599999999999  1.0000
  C   C52       1.0  0.77551  0.5  0.62162  1.0000
  C   C53       1.0  0.85769  0.5  0.57751  1.0000
  C   C54       1.0  0.3835800000000001  0.5  0.7029599999999999  1.0000
  C   C55       1.0  0.22449  0.5  0.62162  1.0000
  C   C56       1.0  0.1423  0.5  0.57751  1.0000
  O   O1        1.0  0.58742  0.8896900000000001  0.9398599999999999  1.0000
  O   O2        1.0  0.41259000000000007  0.11031  0.9398599999999999  1.0000
  O   O3        1.0  0.11031  0.58742  0.43986  1.0000
  O   O4        1.0  0.8896900000000001  0.41258000000000006  0.43986  1.0000
  O   O5        1.0  0.41259000000000007  0.8896800000000002  0.06014  1.0000
  O   O6        1.0  0.58742  0.11031  0.06014  1.0000
  O   O7        1.0  0.8896900000000001  0.58742  0.56014  1.0000
  O   O8        1.0  0.11031  0.41258000000000006  0.56014  1.0000
  O   O9        1.0  0.41259000000000007  0.11031  0.06014  1.0000
  O   O10       1.0  0.58742  0.8896900000000001  0.06014  1.0000
  O   O11       1.0  0.8896900000000001  0.41258000000000006  0.56014  1.0000
  O   O12       1.0  0.11031  0.58742  0.56014  1.0000
  O   O13       1.0  0.58742  0.11031  0.9398599999999999  1.0000
  O   O14       1.0  0.41259000000000007  0.8896800000000002  0.9398599999999999  1.0000
  O   O15       1.0  0.11031  0.41258000000000006  0.43986  1.0000
  O   O16       1.0  0.8896900000000001  0.58742  0.43986  1.0000
