data_image0
_chemical_formula_structural       Cu4H42C50N30O2
_chemical_formula_sum              "Cu4 H42 C50 N30 O2"
_cell_length_a       11.24573
_cell_length_b       13.60821
_cell_length_c       14.994030000000002
_cell_angle_alpha    114.41317999999998
_cell_angle_beta     105.22803
_cell_angle_gamma    95.96087999999999

_symmetry_space_group_name_H-M    'P 1'
_symmetry_Int_Tables_number       1

loop_
  _symmetry_equiv_pos_as_xyz
  'x,y,z'

loop_
  _atom_site_type_symbol
  _atom_site_label
  _atom_site_symmetry_multiplicity
  _atom_site_fract_x
  _atom_site_fract_y
  _atom_site_fract_z
  _atom_site_occupancy
  Cu  Cu1       1.0  0.7977399999999999  0.55177  0.5609599999999999  1.0000
  Cu  Cu2       1.0  0.20126999999999995  0.44907  0.4397999999999999  1.0000
  Cu  Cu3       1.0  0.49388  0.4985  0.50203  1.0000
  Cu  Cu4       1.0  0.9994599999999999  0.50033  0.49938  1.0000
  H   H1        1.0  0.66005  0.39611  0.56142  1.0000
  H   H2        1.0  0.47182  0.48888  0.25099999999999995  1.0000
  H   H3        1.0  0.5595599999999998  0.79258  0.23688  1.0000
  H   H4        1.0  0.33135999999999993  0.59869  0.04062  1.0000
  H   H5        1.0  0.67331  0.50632  0.14745  1.0000
  H   H6        1.0  0.41367999999999977  0.68716  0.6443499999999998  1.0000
  H   H7        1.0  0.8095  0.8356099999999999  0.7895599999999999  1.0000
  H   H8        1.0  0.29274000000000006  0.16730000000000003  0.93988  1.0000
  H   H9        1.0  0.6694  0.26279  0.14817  1.0000
  H   H10       1.0  0.76556  0.96336  0.9249  1.0000
  H   H11       1.0  0.71735  0.13019  0.03929  1.0000
  H   H12       1.0  0.33909999999999996  0.03443999999999993  0.8175999999999999  1.0000
  H   H13       1.0  0.38908999999999994  0.86917  0.69951  1.0000
  H   H14       1.0  0.75329  0.76815  0.49968  1.0000
  H   H15       1.0  0.11862999999999997  0.73102  0.4794999999999999  1.0000
  H   H16       1.0  0.8012599999999999  0.94087  0.52744  1.0000
  H   H17       1.0  0.14408999999999994  0.8744199999999999  0.45805  1.0000
  H   H18       1.0  0.2021299999999999  0.6069400000000001  0.8643799999999998  1.0000
  H   H19       1.0  0.8001499999999999  0.51906  0.75251  1.0000
  H   H20       1.0  0.14072999999999997  0.42568999999999996  0.8958799999999999  1.0000
  H   H21       1.0  0.8613999999999999  0.61939  0.96035  1.0000
  H   H22       1.0  0.33404  0.6049  0.43792  1.0000
  H   H23       1.0  0.53848  0.51092  0.75182  1.0000
  H   H24       1.0  0.43511999999999984  0.2074099999999999  0.7620999999999998  1.0000
  H   H25       1.0  0.6689399999999998  0.4011099999999999  0.9597499999999998  1.0000
  H   H26       1.0  0.32692  0.49346  0.85318  1.0000
  H   H27       1.0  0.5824  0.30771  0.36495  1.0000
  H   H28       1.0  0.18698  0.15894  0.20346  1.0000
  H   H29       1.0  0.70773  0.8320700000000001  0.0585  1.0000
  H   H30       1.0  0.33016999999999985  0.7335699999999998  0.8509599999999998  1.0000
  H   H31       1.0  0.23377  0.03386000000000001  0.07274  1.0000
  H   H32       1.0  0.28271  0.86806  0.95708  1.0000
  H   H33       1.0  0.6616499999999998  0.96485  0.17882  1.0000
  H   H34       1.0  0.6099599999999998  0.12881  0.29762  1.0000
  H   H35       1.0  0.24803999999999998  0.23564  0.50416  1.0000
  H   H36       1.0  0.87973  0.26768  0.51804  1.0000
  H   H37       1.0  0.19888999999999998  0.06094000000000001  0.4734  1.0000
  H   H38       1.0  0.85692  0.1269  0.54283  1.0000
  H   H39       1.0  0.79791  0.39354  0.13627  1.0000
  H   H40       1.0  0.19942  0.4804  0.24477  1.0000
  H   H41       1.0  0.86061  0.5751099999999999  0.104  1.0000
  H   H42       1.0  0.14016  0.38102  0.03925  1.0000
  C   C1        1.0  0.49138999999999994  0.5779099999999999  0.27419999999999994  1.0000
  C   C2        1.0  0.53929  0.7343500000000001  0.26663  1.0000
  C   C3        1.0  0.40530999999999995  0.55673  0.02174  1.0000
  C   C4        1.0  0.50503  0.55882  0.10257  1.0000
  C   C5        1.0  0.5990399999999999  0.50225  0.08162999999999998  1.0000
  C   C6        1.0  0.51594  0.70208  0.67255  1.0000
  C   C7        1.0  0.7199  0.77533  0.7425899999999999  1.0000
  C   C8        1.0  0.37804  0.21319999999999997  0.006639999999999998  1.0000
  C   C9        1.0  0.57198  0.26179  0.11291999999999999  1.0000
  C   C10       1.0  0.5792099999999999  0.9017699999999998  0.8044999999999998  1.0000
  C   C11       1.0  0.6723399999999998  0.9785900000000001  0.8999199999999999  1.0000
  C   C12       1.0  0.6441799999999996  0.07271999999999985  0.9661199999999998  1.0000
  C   C13       1.0  0.5226999999999999  0.09317999999999999  0.94038  1.0000
  C   C14       1.0  0.4318799999999997  0.019079999999999882  0.8424199999999997  1.0000
  C   C15       1.0  0.4598199999999999  0.9251600000000001  0.7750899999999997  1.0000
  C   C16       1.0  0.8385699999999999  0.73854  0.4998799999999999  1.0000
  C   C17       1.0  0.024  0.71659  0.48296  1.0000
  C   C18       1.0  0.8884999999999997  0.96606  0.5156799999999999  1.0000
  C   C19       1.0  0.9699999999999999  0.894  0.49324  1.0000
  C   C20       1.0  0.08188000000000002  0.9299200000000001  0.4774  1.0000
  C   C21       1.0  0.10498  0.59107  0.81653  1.0000
  C   C22       1.0  0.8979499999999999  0.54835  0.76137  1.0000
  C   C23       1.0  0.08103999999999995  0.45962999999999987  0.9422299999999999  1.0000
  C   C24       1.0  0.0014899999999999957  0.52606  0.91939  1.0000
  C   C25       1.0  0.9208799999999998  0.56631  0.9768999999999999  1.0000
  C   C26       1.0  0.51538  0.42192999999999997  0.7279  1.0000
  C   C27       1.0  0.45953999999999995  0.26559999999999995  0.73327  1.0000
  C   C28       1.0  0.5950099999999999  0.4429799999999998  0.9787699999999998  1.0000
  C   C29       1.0  0.49538  0.44099  0.89796  1.0000
  C   C30       1.0  0.40120999999999996  0.49735  0.91888  1.0000
  C   C31       1.0  0.47974999999999984  0.29101  0.33334999999999987  1.0000
  C   C32       1.0  0.27607  0.21882  0.25411  1.0000
  C   C33       1.0  0.62218  0.7849  0.99232  1.0000
  C   C34       1.0  0.4277599999999999  0.73472  0.8862999999999998  1.0000
  C   C35       1.0  0.41939999999999994  0.09493  0.19325  1.0000
  C   C36       1.0  0.32721  0.01884  0.09713  1.0000
  C   C37       1.0  0.35585  0.92548  0.03037  1.0000
  C   C38       1.0  0.47762  0.90566  0.05653  1.0000
  C   C39       1.0  0.56843  0.97973  0.15437  1.0000
  C   C40       1.0  0.53962  0.07270999999999997  0.22202  1.0000
  C   C41       1.0  0.1621399999999999  0.26437999999999995  0.5027199999999998  1.0000
  C   C42       1.0  0.9746599999999999  0.2835  0.51566  1.0000
  C   C43       1.0  0.11202999999999998  0.03524999999999995  0.4852599999999999  1.0000
  C   C44       1.0  0.030549999999999997  0.10728  0.50756  1.0000
  C   C45       1.0  0.9189299999999999  0.07131000000000001  0.52357  1.0000
  C   C46       1.0  0.8954  0.40935000000000005  0.18379999999999996  1.0000
  C   C47       1.0  0.10234999999999997  0.45126  0.23740999999999998  1.0000
  C   C48       1.0  0.91913  0.53985  0.05694  1.0000
  C   C49       1.0  0.9981599999999999  0.47284000000000004  0.07943  1.0000
  C   C50       1.0  0.07935999999999999  0.4331  0.02226  1.0000
  N   N1        1.0  0.50583  0.66083  0.36581  1.0000
  N   N2        1.0  0.53662  0.76024  0.36118999999999996  1.0000
  N   N3        1.0  0.5114099999999999  0.62019  0.20830999999999994  1.0000
  N   N4        1.0  0.57539  0.6237  0.63554  1.0000
  N   N5        1.0  0.7050299999999998  0.66933  0.68052  1.0000
  N   N6        1.0  0.6035  0.80104  0.7405  1.0000
  N   N7        1.0  0.38541  0.3002000000000001  0.09321999999999997  1.0000
  N   N8        1.0  0.5086699999999998  0.33091  0.16056999999999994  1.0000
  N   N9        1.0  0.49341  0.18447  0.01347  1.0000
  N   N10       1.0  0.85391  0.64428  0.50258  1.0000
  N   N11       1.0  0.96909  0.62951  0.48966  1.0000
  N   N12       1.0  0.94458  0.7886300000000002  0.48971  1.0000
  N   N13       1.0  0.06742999999999999  0.60916  0.73455  1.0000
  N   N14       1.0  0.93596  0.5818799999999998  0.7000299999999999  1.0000
  N   N15       1.0  0.0016499999999999566  0.5529099999999999  0.83723  1.0000
  N   N16       1.0  0.5016  0.33903  0.63649  1.0000
  N   N17       1.0  0.46549999999999997  0.23958000000000004  0.63966  1.0000
  N   N18       1.0  0.48965  0.37966999999999995  0.7922399999999999  1.0000
  N   N19       1.0  0.41867999999999994  0.36798  0.3707699999999999  1.0000
  N   N20       1.0  0.28965  0.32319  0.32008  1.0000
  N   N21       1.0  0.39311999999999997  0.19357000000000002  0.25915  1.0000
  N   N22       1.0  0.61402  0.69584  0.90714  1.0000
  N   N23       1.0  0.49055999999999994  0.6641099999999999  0.8400299999999998  1.0000
  N   N24       1.0  0.5069499999999999  0.8139399999999999  0.98451  1.0000
  N   N25       1.0  0.14606000000000005  0.35824  0.49968  1.0000
  N   N26       1.0  0.029439999999999977  0.37135  0.51004  1.0000
  N   N27       1.0  0.055410000000000015  0.21267  0.51071  1.0000
  N   N28       1.0  0.9338099999999999  0.39176  0.26595  1.0000
  N   N29       1.0  0.06527999999999998  0.41869  0.29974  1.0000
  N   N30       1.0  0.99815  0.4465799999999999  0.16194999999999996  1.0000
  O   O1        1.0  0.6832  0.4121  0.51005  1.0000
  O   O2        1.0  0.3182799999999999  0.58823  0.4911899999999999  1.0000
