data_image0
_chemical_formula_structural       Cu6H42C40N16
_chemical_formula_sum              "Cu6 H42 C40 N16"
_cell_length_a       11.37107
_cell_length_b       11.41212
_cell_length_c       12.185279999999999
_cell_angle_alpha    68.14135
_cell_angle_beta     87.68338
_cell_angle_gamma    69.36249

_space_group_name_H-M_alt    "P 1"
_space_group_IT_number       1

loop_
  _space_group_symop_operation_xyz
  'x, y, z'

loop_
  _atom_site_type_symbol
  _atom_site_label
  _atom_site_symmetry_multiplicity
  _atom_site_fract_x
  _atom_site_fract_y
  _atom_site_fract_z
  _atom_site_occupancy
  Cu  Cu1       1.0  0.31616000000000005  0.6325099999999998  0.27533  1.0000
  Cu  Cu2       1.0  0.37019  0.18664999999999998  0.58207  1.0000
  Cu  Cu3       1.0  0.5424499999999999  0.8787799999999999  0.9898  1.0000
  Cu  Cu4       1.0  0.68383  0.36749  0.72467  1.0000
  Cu  Cu5       1.0  0.6298100000000001  0.81335  0.41793  1.0000
  Cu  Cu6       1.0  0.45753999999999995  0.12121999999999998  0.0102  1.0000
  H   H1        1.0  0.91485  0.40181  0.33544  1.0000
  H   H2        1.0  0.9763100000000001  0.4915899999999999  0.39415000000000006  1.0000
  H   H3        1.0  0.81753  0.50158  0.4108  1.0000
  H   H4        1.0  0.6595  0.63585  0.19719  1.0000
  H   H5        1.0  0.40176  0.89944  0.72335  1.0000
  H   H6        1.0  0.7563300000000002  0.9717399999999995  0.90476  1.0000
  H   H7        1.0  0.84974  0.9918099999999999  0.00412  1.0000
  H   H8        1.0  0.92417  0.8880699999999999  0.92434  1.0000
  H   H9        1.0  0.10001999999999998  0.59369  0.25682  1.0000
  H   H10       1.0  0.08761000000000002  0.7258599999999998  0.12048  1.0000
  H   H11       1.0  0.84009  0.88882  0.25723  1.0000
  H   H12       1.0  0.8643699999999999  0.03277000000000001  0.36202  1.0000
  H   H13       1.0  0.08269  0.0036899999999999663  0.42838000000000004  1.0000
  H   H14       1.0  0.35233  0.85895  0.31424  1.0000
  H   H15       1.0  0.35910000000000003  0.7121899999999999  0.4343000000000001  1.0000
  H   H16       1.0  0.2877199999999999  0.6729300000000001  0.72228  1.0000
  H   H17       1.0  0.40549  0.60799  0.63744  1.0000
  H   H18       1.0  0.4497100000000002  0.63731  0.7591900000000001  1.0000
  H   H19       1.0  0.30509  0.21909  0.33875  1.0000
  H   H20       1.0  0.34121999999999997  0.10293000000000001  0.26534  1.0000
  H   H21       1.0  0.18611  0.16778  0.30264  1.0000
  H   H22       1.0  0.08515000000000005  0.5981899999999999  0.66456  1.0000
  H   H23       1.0  0.023689999999999947  0.5084100000000001  0.60585  1.0000
  H   H24       1.0  0.18247000000000008  0.49842999999999965  0.5892  1.0000
  H   H25       1.0  0.3405  0.36415  0.80281  1.0000
  H   H26       1.0  0.59823  0.10055999999999997  0.27665  1.0000
  H   H27       1.0  0.24367  0.028260000000000007  0.09524  1.0000
  H   H28       1.0  0.15025999999999995  0.008190000000000006  0.99588  1.0000
  H   H29       1.0  0.07582  0.11193  0.07566  1.0000
  H   H30       1.0  0.8999799999999998  0.40630999999999995  0.7431700000000001  1.0000
  H   H31       1.0  0.9123800000000001  0.27413999999999983  0.8795200000000001  1.0000
  H   H32       1.0  0.15990000000000001  0.11117999999999999  0.74277  1.0000
  H   H33       1.0  0.13563000000000003  0.96723  0.63798  1.0000
  H   H34       1.0  0.91731  0.9963099999999998  0.57162  1.0000
  H   H35       1.0  0.6476699999999997  0.14105000000000004  0.68576  1.0000
  H   H36       1.0  0.64089  0.28781000000000007  0.56569  1.0000
  H   H37       1.0  0.7122800000000002  0.32706999999999997  0.27772  1.0000
  H   H38       1.0  0.5945000000000001  0.39200999999999975  0.36255  1.0000
  H   H39       1.0  0.55028  0.36269  0.24081  1.0000
  H   H40       1.0  0.69491  0.78091  0.66124  1.0000
  H   H41       1.0  0.65878  0.89707  0.73466  1.0000
  H   H42       1.0  0.8138900000000002  0.8322199999999997  0.69736  1.0000
  C   C1        1.0  0.8914  0.4968  0.34981  1.0000
  C   C2        1.0  0.85001  0.6173099999999999  0.23540000000000003  1.0000
  C   C3        1.0  0.91132  0.70354  0.16921  1.0000
  C   C4        1.0  0.82573  0.7998599999999999  0.068  1.0000
  C   C5        1.0  0.8401900000000001  0.9185799999999998  0.96996  1.0000
  C   C6        1.0  0.03903000000000005  0.6981599999999999  0.20109  1.0000
  C   C7        1.0  0.04131  0.78839  0.26531  1.0000
  C   C8        1.0  0.93302  0.88071  0.2861  1.0000
  C   C9        1.0  0.9471199999999999  0.9599299999999997  0.3448  1.0000
  C   C10       1.0  0.06808999999999998  0.94415  0.38203  1.0000
  C   C11       1.0  0.17269000000000004  0.84891  0.36007000000000006  1.0000
  C   C12       1.0  0.30795000000000006  0.82291  0.39609000000000005  1.0000
  C   C13       1.0  0.3766699999999999  0.67691  0.68497  1.0000
  C   C14       1.0  0.3609199999999999  0.8172500000000001  0.60277  1.0000
  C   C15       1.0  0.32783000000000007  0.8835099999999998  0.47995  1.0000
  C   C16       1.0  0.32077999999999995  0.018309999999999986  0.45126000000000005  1.0000
  C   C17       1.0  0.28669  0.13324000000000003  0.33321  1.0000
  C   C18       1.0  0.47531  0.015089999999999989  0.84378  1.0000
  C   C19       1.0  0.40964  0.69587  0.15549  1.0000
  C   C20       1.0  0.3417899999999999  0.3571799999999999  0.47000000000000003  1.0000
  C   C21       1.0  0.10858999999999998  0.5032  0.65019  1.0000
  C   C22       1.0  0.14997999999999997  0.3826900000000001  0.7645999999999998  1.0000
  C   C23       1.0  0.08868000000000004  0.29645999999999983  0.8307900000000001  1.0000
  C   C24       1.0  0.17426000000000005  0.20013999999999985  0.9320000000000002  1.0000
  C   C25       1.0  0.1598  0.08142000000000002  0.03004  1.0000
  C   C26       1.0  0.96097  0.30184  0.79891  1.0000
  C   C27       1.0  0.95868  0.21161000000000008  0.7346899999999998  1.0000
  C   C28       1.0  0.06697999999999998  0.11929000000000001  0.7139  1.0000
  C   C29       1.0  0.052879999999999996  0.04006999999999998  0.6552  1.0000
  C   C30       1.0  0.9319  0.05584999999999997  0.61797  1.0000
  C   C31       1.0  0.82731  0.15108999999999997  0.63992  1.0000
  C   C32       1.0  0.69205  0.17709  0.6039  1.0000
  C   C33       1.0  0.6233299999999998  0.32309  0.31503  1.0000
  C   C34       1.0  0.6390699999999999  0.18275000000000002  0.39723  1.0000
  C   C35       1.0  0.67216  0.11649  0.52005  1.0000
  C   C36       1.0  0.6792100000000001  0.9816899999999997  0.54874  1.0000
  C   C37       1.0  0.7133099999999999  0.86676  0.66679  1.0000
  C   C38       1.0  0.5246800000000001  0.9849099999999998  0.15622  1.0000
  C   C39       1.0  0.59035  0.30413  0.84451  1.0000
  C   C40       1.0  0.6582  0.6428199999999998  0.53  1.0000
  N   N1        1.0  0.71908  0.7731599999999998  0.07126  1.0000
  N   N2        1.0  0.73642  0.66178  0.17232  1.0000
  N   N3        1.0  0.15843999999999997  0.77317  0.30227  1.0000
  N   N4        1.0  0.3735399999999999  0.91067  0.64048  1.0000
  N   N5        1.0  0.3494899999999999  0.03354000000000001  0.55023  1.0000
  N   N6        1.0  0.43079  0.09088999999999997  0.74584  1.0000
  N   N7        1.0  0.46624999999999994  0.74865  0.08264  1.0000
  N   N8        1.0  0.32935  0.4633900000000001  0.39442  1.0000
  N   N9        1.0  0.28091999999999995  0.22683999999999999  0.92874  1.0000
  N   N10       1.0  0.26356999999999997  0.3382200000000001  0.82768  1.0000
  N   N11       1.0  0.84156  0.22682999999999998  0.69773  1.0000
  N   N12       1.0  0.62645  0.08932999999999996  0.35952000000000006  1.0000
  N   N13       1.0  0.6505099999999999  0.9664599999999999  0.44975999999999994  1.0000
  N   N14       1.0  0.5692  0.90911  0.25416  1.0000
  N   N15       1.0  0.53374  0.2513499999999999  0.91736  1.0000
  N   N16       1.0  0.67065  0.53661  0.60557  1.0000
