data_image0
_chemical_formula_structural       Ca2Cd4H24C48O24
_chemical_formula_sum              "Ca2 Cd4 H24 C48 O24"
_cell_length_a       14.12927
_cell_length_b       14.09688
_cell_length_c       14.80016
_cell_angle_alpha    65.51966
_cell_angle_beta     61.72869
_cell_angle_gamma    60.178090000000005

_symmetry_space_group_name_H-M    'P 1'
_symmetry_Int_Tables_number       1

loop_
  _symmetry_equiv_pos_as_xyz
  'x,y,z'

loop_
  _atom_site_type_symbol
  _atom_site_label
  _atom_site_symmetry_multiplicity
  _atom_site_fract_x
  _atom_site_fract_y
  _atom_site_fract_z
  _atom_site_occupancy
  Ca  Ca1       1.0  0.7055799999999999  0.25031  0.7495599999999999  1.0000
  Ca  Ca2       1.0  0.29442  0.74969  0.25044  1.0000
  Cd  Cd1       1.0  0.9510499999999998  0.021309999999999975  0.63459  1.0000
  Cd  Cd2       1.0  0.6083299999999999  0.47878000000000004  0.8650500000000001  1.0000
  Cd  Cd3       1.0  0.048950000000000056  0.97869  0.36541  1.0000
  Cd  Cd4       1.0  0.3916700000000001  0.52122  0.13495  1.0000
  H   H1        1.0  0.7038800000000001  0.42481  0.49636  1.0000
  H   H2        1.0  0.56706  0.55294  0.39493  1.0000
  H   H3        1.0  0.6845200000000004  0.2928199999999999  0.24407  1.0000
  H   H4        1.0  0.82357  0.16585  0.34076  1.0000
  H   H5        1.0  0.8289199999999999  0.16060999999999998  0.95677  1.0000
  H   H6        1.0  0.13993999999999998  0.87314  0.87715  1.0000
  H   H7        1.0  0.62388  0.07513  0.004  1.0000
  H   H8        1.0  0.51427  0.94628  0.1067  1.0000
  H   H9        1.0  0.22214000000000006  0.20789  0.2544  1.0000
  H   H10       1.0  0.3304500000000001  0.33534  0.15709  1.0000
  H   H11       1.0  0.94699  0.33758  0.5458  1.0000
  H   H12       1.0  0.8915100000000001  0.6288100000000001  0.62124  1.0000
  H   H13       1.0  0.29613  0.57519  0.50364  1.0000
  H   H14       1.0  0.43294000000000005  0.44706  0.60507  1.0000
  H   H15       1.0  0.31548  0.70717  0.75593  1.0000
  H   H16       1.0  0.1764299999999998  0.8341500000000001  0.65924  1.0000
  H   H17       1.0  0.1710799999999999  0.8393800000000001  0.04322999999999999  1.0000
  H   H18       1.0  0.86007  0.12686  0.12285000000000001  1.0000
  H   H19       1.0  0.37612000000000007  0.92486  0.996  1.0000
  H   H20       1.0  0.48573000000000005  0.053720000000000004  0.8933  1.0000
  H   H21       1.0  0.7778599999999999  0.79211  0.7456  1.0000
  H   H22       1.0  0.6695599999999999  0.66466  0.8429100000000002  1.0000
  H   H23       1.0  0.05301000000000003  0.66241  0.4542  1.0000
  H   H24       1.0  0.10848999999999996  0.37119  0.37875999999999993  1.0000
  C   C1        1.0  0.77182  0.28666  0.42590999999999996  1.0000
  C   C2        1.0  0.70015  0.39664  0.44032  1.0000
  C   C3        1.0  0.6237999999999999  0.4680500000000001  0.38413  1.0000
  C   C4        1.0  0.6168200000000001  0.42963  0.31465  1.0000
  C   C5        1.0  0.69072  0.32107  0.2984  1.0000
  C   C6        1.0  0.7682499999999999  0.25024  0.35291  1.0000
  C   C7        1.0  0.84389  0.20624  0.49335  1.0000
  C   C8        1.0  0.52767  0.5005  0.26077  1.0000
  C   C9        1.0  0.9635900000000001  0.03813  0.80913  1.0000
  C   C10       1.0  0.9831099999999999  0.019059999999999997  0.90702  1.0000
  C   C11       1.0  0.9035299999999999  0.09084000000000005  0.97627  1.0000
  C   C12       1.0  0.07955  0.92817  0.93135  1.0000
  C   C13       1.0  0.48413999999999985  0.21376  0.07344  1.0000
  C   C14       1.0  0.5364400000000001  0.10339  0.05979  1.0000
  C   C15       1.0  0.47565  0.0316  0.11661  1.0000
  C   C16       1.0  0.36143999999999993  0.07014  0.18571  1.0000
  C   C17       1.0  0.31058  0.17941  0.20063  1.0000
  C   C18       1.0  0.37157999999999997  0.25053  0.14574  1.0000
  C   C19       1.0  0.54366  0.29395  0.00614  1.0000
  C   C20       1.0  0.2898299999999998  0.9986200000000001  0.24043  1.0000
  C   C21       1.0  0.8121799999999999  0.462  0.69137  1.0000
  C   C22       1.0  0.91004  0.4810299999999999  0.59344  1.0000
  C   C23       1.0  0.9710400000000001  0.4082  0.52504  1.0000
  C   C24       1.0  0.93958  0.57289  0.56783  1.0000
  C   C25       1.0  0.22818  0.71334  0.57409  1.0000
  C   C26       1.0  0.2998500000000001  0.60336  0.55968  1.0000
  C   C27       1.0  0.3762000000000001  0.5319499999999999  0.61587  1.0000
  C   C28       1.0  0.3831800000000001  0.57037  0.68535  1.0000
  C   C29       1.0  0.30928  0.67893  0.7015899999999999  1.0000
  C   C30       1.0  0.23175  0.74976  0.64709  1.0000
  C   C31       1.0  0.15611000000000005  0.79375  0.50665  1.0000
  C   C32       1.0  0.47233  0.4995  0.73923  1.0000
  C   C33       1.0  0.03640999999999998  0.9618700000000001  0.19087  1.0000
  C   C34       1.0  0.016889999999999947  0.98094  0.09298  1.0000
  C   C35       1.0  0.09647000000000003  0.90915  0.02373  1.0000
  C   C36       1.0  0.9204499999999998  0.07182000000000002  0.06865  1.0000
  C   C37       1.0  0.51586  0.78624  0.92656  1.0000
  C   C38       1.0  0.46355999999999986  0.89661  0.94021  1.0000
  C   C39       1.0  0.5243499999999999  0.9684  0.88339  1.0000
  C   C40       1.0  0.6385599999999998  0.92985  0.81429  1.0000
  C   C41       1.0  0.68943  0.8205900000000002  0.79937  1.0000
  C   C42       1.0  0.6284200000000001  0.74947  0.85426  1.0000
  C   C43       1.0  0.4563399999999998  0.70605  0.99386  1.0000
  C   C44       1.0  0.7101700000000001  0.001379999999999996  0.75957  1.0000
  C   C45       1.0  0.18782000000000004  0.538  0.30863  1.0000
  C   C46       1.0  0.08995999999999993  0.51897  0.40656000000000003  1.0000
  C   C47       1.0  0.02896  0.5918  0.47496  1.0000
  C   C48       1.0  0.06041999999999999  0.42710000000000004  0.43216999999999994  1.0000
  O   O1        1.0  0.8275  0.22879  0.57584  1.0000
  O   O2        1.0  0.92066  0.11042000000000003  0.47237  1.0000
  O   O3        1.0  0.5263199999999998  0.45243  0.2045  1.0000
  O   O4        1.0  0.46056000000000014  0.59869  0.275  1.0000
  O   O5        1.0  0.04170000000000003  0.97471  0.74443  1.0000
  O   O6        1.0  0.8707999999999999  0.11387  0.79248  1.0000
  O   O7        1.0  0.6312400000000001  0.27143  0.92346  1.0000
  O   O8        1.0  0.5054799999999999  0.38928000000000007  0.02757  1.0000
  O   O9        1.0  0.1846  0.047069999999999994  0.29581  1.0000
  O   O10       1.0  0.33502000000000004  0.89972  0.22764  1.0000
  O   O11       1.0  0.7620100000000002  0.5259300000000002  0.7558  1.0000
  O   O12       1.0  0.7790099999999998  0.38547  0.70814  1.0000
  O   O13       1.0  0.1724999999999999  0.7712100000000001  0.42416000000000004  1.0000
  O   O14       1.0  0.07933999999999995  0.88958  0.52763  1.0000
  O   O15       1.0  0.47368  0.54756  0.7955  1.0000
  O   O16       1.0  0.5394399999999999  0.40131  0.725  1.0000
  O   O17       1.0  0.9583  0.025290000000000003  0.25557  1.0000
  O   O18       1.0  0.12919999999999998  0.8861300000000001  0.20752  1.0000
  O   O19       1.0  0.3687699999999998  0.7285700000000002  0.07654  1.0000
  O   O20       1.0  0.49452999999999986  0.6107200000000003  0.97243  1.0000
  O   O21       1.0  0.8154000000000001  0.9529300000000003  0.70419  1.0000
  O   O22       1.0  0.6649800000000001  0.10027999999999997  0.77236  1.0000
  O   O23       1.0  0.23799000000000003  0.47406  0.2442  1.0000
  O   O24       1.0  0.2210000000000001  0.61453  0.29186  1.0000
