data_image0
_chemical_formula_structural       Zn2H48C60N4O8
_chemical_formula_sum              "Zn2 H48 C60 N4 O8"
_cell_length_a       4.67938
_cell_length_b       12.13834
_cell_length_c       22.36097
_cell_angle_alpha    90.53954
_cell_angle_beta     89.81073
_cell_angle_gamma    101.32924

_space_group_name_H-M_alt    "P 1"
_space_group_IT_number       1

loop_
  _space_group_symop_operation_xyz
  'x, y, z'

loop_
  _atom_site_type_symbol
  _atom_site_label
  _atom_site_symmetry_multiplicity
  _atom_site_fract_x
  _atom_site_fract_y
  _atom_site_fract_z
  _atom_site_occupancy
  Zn  Zn1       1.0  0.5192899999999998  0.9987599999999999  0.7501699999999999  1.0000
  Zn  Zn2       1.0  0.48069  0.0012399999999999993  0.24982999999999994  1.0000
  H   H1        1.0  0.38629  0.9051  0.63224  1.0000
  H   H2        1.0  0.58778  0.785  0.5585  1.0000
  H   H3        1.0  0.13759  0.70336  0.7001  1.0000
  H   H4        1.0  0.92925  0.83605  0.76588  1.0000
  H   H5        1.0  0.9573699999999999  0.68541  0.53278  1.0000
  H   H6        1.0  0.2689999999999999  0.5918  0.63649  1.0000
  H   H7        1.0  0.13061  0.61009  0.46943  1.0000
  H   H8        1.0  0.62088  0.48334999999999995  0.60715  1.0000
  H   H9        1.0  0.43311  0.24057999999999993  0.5783799999999999  1.0000
  H   H10       1.0  0.10134  0.1428  0.59623  1.0000
  H   H11       1.0  0.02930000000000004  0.94634  0.55392  1.0000
  H   H12       1.0  0.8322499999999999  0.17792999999999995  0.527  1.0000
  H   H13       1.0  0.47863  0.09437  0.86802  1.0000
  H   H14       1.0  0.79925  0.21507  0.94162  1.0000
  H   H15       1.0  0.4377699999999999  0.29531  0.79987  1.0000
  H   H16       1.0  0.09659999999999998  0.16182999999999997  0.73455  1.0000
  H   H17       1.0  0.27013999999999994  0.31482999999999994  0.9671499999999998  1.0000
  H   H18       1.0  0.68033  0.40797  0.8633399999999998  1.0000
  H   H19       1.0  0.51733  0.39012  0.0303  1.0000
  H   H20       1.0  0.14315  0.51667  0.89297  1.0000
  H   H21       1.0  0.17509000000000005  0.76037  0.9231499999999999  1.0000
  H   H22       1.0  0.9489899999999998  0.86012  0.90511  1.0000
  H   H23       1.0  0.08777999999999998  0.05641  0.94665  1.0000
  H   H24       1.0  0.6382299999999999  0.8192399999999997  0.9736699999999998  1.0000
  H   H25       1.0  0.6137  0.09488999999999999  0.36776  1.0000
  H   H26       1.0  0.41221  0.21499999999999997  0.44149999999999995  1.0000
  H   H27       1.0  0.8624  0.29663  0.2999  1.0000
  H   H28       1.0  0.07074  0.16395  0.23411999999999997  1.0000
  H   H29       1.0  0.04261000000000001  0.31458  0.46722  1.0000
  H   H30       1.0  0.7309799999999997  0.40819  0.36349999999999993  1.0000
  H   H31       1.0  0.86937  0.3899099999999999  0.53057  1.0000
  H   H32       1.0  0.37911  0.51665  0.39285  1.0000
  H   H33       1.0  0.56687  0.75942  0.42162  1.0000
  H   H34       1.0  0.8986499999999998  0.85719  0.40377  1.0000
  H   H35       1.0  0.9706899999999999  0.05365  0.44608  1.0000
  H   H36       1.0  0.16773999999999997  0.82207  0.473  1.0000
  H   H37       1.0  0.5213499999999998  0.9056199999999999  0.13197  1.0000
  H   H38       1.0  0.20073999999999986  0.7849299999999999  0.05838  1.0000
  H   H39       1.0  0.5622099999999998  0.7046799999999999  0.20011999999999996  1.0000
  H   H40       1.0  0.90339  0.83816  0.26544  1.0000
  H   H41       1.0  0.72984  0.6851599999999999  0.03285  1.0000
  H   H42       1.0  0.31965  0.59202  0.13666  1.0000
  H   H43       1.0  0.4826599999999999  0.60987  0.96969  1.0000
  H   H44       1.0  0.8568399999999999  0.48333  0.10703  1.0000
  H   H45       1.0  0.8248999999999999  0.23963  0.07685  1.0000
  H   H46       1.0  0.050990000000000014  0.13987  0.09488  1.0000
  H   H47       1.0  0.91221  0.9435799999999999  0.05334999999999999  1.0000
  H   H48       1.0  0.36175  0.18075  0.02632  1.0000
  C   C1        1.0  0.5403799999999997  0.85421  0.64584  1.0000
  C   C2        1.0  0.65226  0.7848499999999999  0.6049899999999999  1.0000
  C   C3        1.0  0.87772  0.73182  0.62232  1.0000
  C   C4        1.0  0.97868  0.7484299999999999  0.68236  1.0000
  C   C5        1.0  0.8588899999999998  0.8191299999999999  0.71994  1.0000
  C   C6        1.0  0.01227999999999998  0.67163  0.5788799999999998  1.0000
  C   C7        1.0  0.21925999999999998  0.60919  0.59044  1.0000
  C   C8        1.0  0.35963000000000006  0.55475  0.54468  1.0000
  C   C9        1.0  0.2842  0.55918  0.48347  1.0000
  C   C10       1.0  0.5761  0.49446  0.56018  1.0000
  C   C11       1.0  0.4805600000000001  0.12763  0.64863  1.0000
  C   C12       1.0  0.3393299999999999  0.15325  0.58992  1.0000
  C   C13       1.0  0.22463999999999984  0.9730799999999998  0.52748  1.0000
  C   C14       1.0  0.4146199999999999  0.07506  0.54219  1.0000
  C   C15       1.0  0.68511  0.10025  0.51442  1.0000
  C   C16       1.0  0.68496  0.14513  0.8543799999999999  1.0000
  C   C17       1.0  0.8659  0.21489  0.89514  1.0000
  C   C18       1.0  0.14599  0.26777  0.87772  1.0000
  C   C19       1.0  0.23240999999999998  0.25048  0.8177799999999998  1.0000
  C   C20       1.0  0.041889999999999976  0.17930999999999997  0.78039  1.0000
  C   C21       1.0  0.34044999999999986  0.32833999999999997  0.92104  1.0000
  C   C22       1.0  0.61148  0.39071  0.9094  1.0000
  C   C23       1.0  0.80566  0.4452699999999999  0.9551699999999997  1.0000
  C   C24       1.0  0.7232899999999999  0.44099  0.016339999999999997  1.0000
  C   C25       1.0  0.08438  0.50546  0.93986  1.0000
  C   C26       1.0  0.3451799999999999  0.8721699999999999  0.8525299999999999  1.0000
  C   C27       1.0  0.1747899999999999  0.8478699999999999  0.9111999999999999  1.0000
  C   C28       1.0  0.25384  0.02864  0.9729599999999998  1.0000
  C   C29       1.0  0.33408000000000004  0.9254999999999999  0.9584  1.0000
  C   C30       1.0  0.5768599999999999  0.89841  0.98576  1.0000
  C   C31       1.0  0.4595999999999999  0.14577999999999997  0.3541599999999999  1.0000
  C   C32       1.0  0.34772999999999993  0.21514  0.39499999999999996  1.0000
  C   C33       1.0  0.12227  0.26817  0.37767999999999996  1.0000
  C   C34       1.0  0.0213  0.25156  0.3176399999999999  1.0000
  C   C35       1.0  0.14108999999999994  0.18086999999999998  0.28006  1.0000
  C   C36       1.0  0.9877099999999999  0.32836  0.42112  1.0000
  C   C37       1.0  0.7807299999999999  0.39080999999999994  0.40956  1.0000
  C   C38       1.0  0.6403499999999999  0.44523999999999997  0.45531  1.0000
  C   C39       1.0  0.7157800000000001  0.44081  0.51653  1.0000
  C   C40       1.0  0.42387999999999987  0.50554  0.43981999999999993  1.0000
  C   C41       1.0  0.5194299999999998  0.87237  0.35137  1.0000
  C   C42       1.0  0.6606499999999998  0.8467399999999999  0.41007  1.0000
  C   C43       1.0  0.7753399999999998  0.02692  0.47252  1.0000
  C   C44       1.0  0.58536  0.92493  0.45781  1.0000
  C   C45       1.0  0.31486999999999976  0.8997399999999995  0.4855799999999999  1.0000
  C   C46       1.0  0.3150299999999999  0.8548699999999999  0.14562  1.0000
  C   C47       1.0  0.13407999999999998  0.7851  0.10486  1.0000
  C   C48       1.0  0.8539999999999998  0.73222  0.12227  1.0000
  C   C49       1.0  0.7675699999999998  0.74952  0.18221999999999997  1.0000
  C   C50       1.0  0.9581  0.82069  0.21961  1.0000
  C   C51       1.0  0.6595299999999998  0.6716499999999999  0.07896  1.0000
  C   C52       1.0  0.38851  0.60929  0.0906  1.0000
  C   C53       1.0  0.19433  0.55472  0.044829999999999995  1.0000
  C   C54       1.0  0.27669  0.559  0.98365  1.0000
  C   C55       1.0  0.91561  0.49453  0.06013  1.0000
  C   C56       1.0  0.65481  0.12782  0.14746  1.0000
  C   C57       1.0  0.8252  0.15213  0.08879999999999999  1.0000
  C   C58       1.0  0.7461499999999999  0.97135  0.02703  1.0000
  C   C59       1.0  0.6659099999999998  0.07449  0.0416  1.0000
  C   C60       1.0  0.42312  0.10159  0.01424  1.0000
  N   N1        1.0  0.64935  0.87333  0.70161  1.0000
  N   N2        1.0  0.7763599999999998  0.1253  0.79872  1.0000
  N   N3        1.0  0.35063999999999995  0.12667  0.29838  1.0000
  N   N4        1.0  0.22363  0.87469  0.20127999999999996  1.0000
  O   O1        1.0  0.31311000000000005  0.05455999999999999  0.68227  1.0000
  O   O2        1.0  0.73792  0.17264  0.6597999999999999  1.0000
  O   O3        1.0  0.2548999999999999  0.94463  0.8181  1.0000
  O   O4        1.0  0.5578799999999998  0.8271999999999999  0.84231  1.0000
  O   O5        1.0  0.6868799999999999  0.9454299999999999  0.31772  1.0000
  O   O6        1.0  0.26207  0.82736  0.3402  1.0000
  O   O7        1.0  0.74509  0.05537  0.18189  1.0000
  O   O8        1.0  0.4421  0.17279  0.15769  1.0000
