data_image0
_chemical_formula_structural       Zn12H12C48O36
_chemical_formula_sum              "Zn12 H12 C48 O36"
_cell_length_a       14.52828
_cell_length_b       14.531880000000001
_cell_length_c       14.53208
_cell_angle_alpha    107.17819
_cell_angle_beta     107.14410000000001
_cell_angle_gamma    107.14481

_symmetry_space_group_name_H-M    'P 1'
_symmetry_Int_Tables_number       1

loop_
  _symmetry_equiv_pos_as_xyz
  'x,y,z'

loop_
  _atom_site_type_symbol
  _atom_site_label
  _atom_site_symmetry_multiplicity
  _atom_site_fract_x
  _atom_site_fract_y
  _atom_site_fract_z
  _atom_site_occupancy
  Zn  Zn1       1.0  0.75  0.17623  0.32376999999999995  1.0000
  Zn  Zn2       1.0  0.75  0.30974  0.19026  1.0000
  Zn  Zn3       1.0  0.32376  0.75004  0.17622  1.0000
  Zn  Zn4       1.0  0.19021999999999994  0.7500099999999997  0.30975  1.0000
  Zn  Zn5       1.0  0.17623999999999998  0.32378  0.74996  1.0000
  Zn  Zn6       1.0  0.3097799999999999  0.1902499999999999  0.7499999999999998  1.0000
  Zn  Zn7       1.0  0.24999999999999992  0.8237699999999998  0.6762299999999999  1.0000
  Zn  Zn8       1.0  0.24999999999999992  0.6902599999999998  0.8097399999999998  1.0000
  Zn  Zn9       1.0  0.67624  0.24995999999999993  0.82378  1.0000
  Zn  Zn10      1.0  0.80978  0.24998999999999993  0.69025  1.0000
  Zn  Zn11      1.0  0.82376  0.6762199999999998  0.25004  1.0000
  Zn  Zn12      1.0  0.6902199999999998  0.8097599999999998  0.25001  1.0000
  H   H1        1.0  0.53732  0.003200000000000003  0.17862  1.0000
  H   H2        1.0  0.17862  0.53725  0.00309  1.0000
  H   H3        1.0  0.003209999999999994  0.17864  0.53731  1.0000
  H   H4        1.0  0.32137  0.4969099999999999  0.96276  1.0000
  H   H5        1.0  0.49679  0.9626999999999998  0.32136  1.0000
  H   H6        1.0  0.96266  0.3213699999999999  0.4968  1.0000
  H   H7        1.0  0.46266999999999997  0.9967999999999999  0.8213799999999999  1.0000
  H   H8        1.0  0.82137  0.4627499999999999  0.9969099999999999  1.0000
  H   H9        1.0  0.99679  0.8213599999999998  0.46269  1.0000
  H   H10       1.0  0.67862  0.50309  0.03724  1.0000
  H   H11       1.0  0.50321  0.037310000000000024  0.67864  1.0000
  H   H12       1.0  0.03733000000000005  0.67863  0.5032  1.0000
  C   C1        1.0  0.59061  0.08380999999999997  0.08971999999999998  1.0000
  C   C2        1.0  0.56928  0.08196  0.98701  1.0000
  C   C3        1.0  0.5211  0.0016699999999999974  0.10009999999999998  1.0000
  C   C4        1.0  0.66364  0.13801  0.46547  1.0000
  C   C5        1.0  0.08972  0.5906  0.0838  1.0000
  C   C6        1.0  0.98701  0.5693099999999999  0.08201  1.0000
  C   C7        1.0  0.10011000000000003  0.52108  0.0016299999999999997  1.0000
  C   C8        1.0  0.46543000000000007  0.6636499999999997  0.13808  1.0000
  C   C9        1.0  0.08384  0.08973  0.59058  1.0000
  C   C10       1.0  0.08198999999999998  0.987  0.56927  1.0000
  C   C11       1.0  0.0016599999999999835  0.10010999999999995  0.52109  1.0000
  C   C12       1.0  0.13799  0.46546  0.6636  1.0000
  C   C13       1.0  0.4102700000000001  0.4162  0.90941  1.0000
  C   C14       1.0  0.51298  0.41799  0.93069  1.0000
  C   C15       1.0  0.39988999999999997  0.4983799999999999  0.97893  1.0000
  C   C16       1.0  0.034569999999999976  0.3619199999999999  0.83636  1.0000
  C   C17       1.0  0.41616  0.90943  0.41027  1.0000
  C   C18       1.0  0.41800999999999994  0.9307399999999998  0.513  1.0000
  C   C19       1.0  0.49832999999999994  0.9789199999999998  0.39989999999999987  1.0000
  C   C20       1.0  0.3619999999999999  0.8363999999999998  0.03454  1.0000
  C   C21       1.0  0.90938  0.41028  0.41619  1.0000
  C   C22       1.0  0.93072  0.513  0.41804  1.0000
  C   C23       1.0  0.97889  0.39989999999999987  0.49834  1.0000
  C   C24       1.0  0.8363599999999999  0.034539999999999974  0.36199999999999993  1.0000
  C   C25       1.0  0.40938  0.91619  0.91028  1.0000
  C   C26       1.0  0.43071  0.91804  0.012999999999999998  1.0000
  C   C27       1.0  0.47889  0.9983299999999998  0.89991  1.0000
  C   C28       1.0  0.33635  0.86199  0.53453  1.0000
  C   C29       1.0  0.91027  0.40939999999999993  0.9161999999999999  1.0000
  C   C30       1.0  0.01298999999999999  0.43069  0.91799  1.0000
  C   C31       1.0  0.89989  0.47891999999999996  0.99838  1.0000
  C   C32       1.0  0.53456  0.33636  0.86192  1.0000
  C   C33       1.0  0.91615  0.91027  0.40941999999999995  1.0000
  C   C34       1.0  0.91801  0.012999999999999998  0.43074  1.0000
  C   C35       1.0  0.99833  0.8998999999999999  0.47891  1.0000
  C   C36       1.0  0.8619999999999999  0.53455  0.33641  1.0000
  C   C37       1.0  0.58972  0.5838  0.0906  1.0000
  C   C38       1.0  0.48700999999999994  0.5820099999999998  0.06931  1.0000
  C   C39       1.0  0.60011  0.50162  0.02107  1.0000
  C   C40       1.0  0.9654299999999999  0.6380799999999999  0.16364  1.0000
  C   C41       1.0  0.58384  0.09057999999999998  0.58973  1.0000
  C   C42       1.0  0.5819900000000001  0.06927  0.487  1.0000
  C   C43       1.0  0.50166  0.02108999999999999  0.6001  1.0000
  C   C44       1.0  0.6379999999999999  0.1635999999999999  0.9654699999999999  1.0000
  C   C45       1.0  0.09060999999999998  0.58972  0.58381  1.0000
  C   C46       1.0  0.06927999999999991  0.4869999999999999  0.58196  1.0000
  C   C47       1.0  0.021109999999999976  0.6001  0.50167  1.0000
  C   C48       1.0  0.16364  0.96547  0.638  1.0000
  O   O1        1.0  0.7567600000000001  0.20614999999999994  0.53697  1.0000
  O   O2        1.0  0.63834  0.12508999999999995  0.36888  1.0000
  O   O3        1.0  0.67604  0.16239  0.17655  1.0000
  O   O4        1.0  0.53691  0.7567799999999998  0.20625  1.0000
  O   O5        1.0  0.36882999999999994  0.6383299999999998  0.12514  1.0000
  O   O6        1.0  0.17654  0.67604  0.1624  1.0000
  O   O7        1.0  0.20615999999999993  0.5369699999999997  0.7566999999999999  1.0000
  O   O8        1.0  0.12501999999999994  0.36885  0.63833  1.0000
  O   O9        1.0  0.16242  0.17654999999999998  0.67601  1.0000
  O   O10       1.0  0.9630799999999999  0.29374999999999984  0.7432299999999998  1.0000
  O   O11       1.0  0.13117  0.37487  0.86167  1.0000
  O   O12       1.0  0.32345  0.3376  0.82397  1.0000
  O   O13       1.0  0.29384000000000005  0.74329  0.96302  1.0000
  O   O14       1.0  0.37495999999999996  0.8616799999999999  0.13114  1.0000
  O   O15       1.0  0.33757  0.82399  0.32345  1.0000
  O   O16       1.0  0.74324  0.9630399999999998  0.29386  1.0000
  O   O17       1.0  0.86166  0.13113  0.37493  1.0000
  O   O18       1.0  0.82395  0.3234499999999999  0.33761  1.0000
  O   O19       1.0  0.24323  0.7938599999999999  0.46304  1.0000
  O   O20       1.0  0.36166  0.8749199999999998  0.63112  1.0000
  O   O21       1.0  0.32395  0.8376099999999997  0.82345  1.0000
  O   O22       1.0  0.46308  0.2432199999999999  0.79376  1.0000
  O   O23       1.0  0.63117  0.3616699999999999  0.87486  1.0000
  O   O24       1.0  0.8234500000000001  0.32396999999999987  0.8376  1.0000
  O   O25       1.0  0.79384  0.4630299999999999  0.24331  1.0000
  O   O26       1.0  0.87498  0.63116  0.36168  1.0000
  O   O27       1.0  0.83757  0.82345  0.32399  1.0000
  O   O28       1.0  0.03690999999999993  0.7062599999999998  0.25677  1.0000
  O   O29       1.0  0.86882  0.62514  0.13833  1.0000
  O   O30       1.0  0.67654  0.6624  0.17603  1.0000
  O   O31       1.0  0.70615  0.25671  0.03698  1.0000
  O   O32       1.0  0.62504  0.13833  0.86886  1.0000
  O   O33       1.0  0.66242  0.17600999999999986  0.6765599999999998  1.0000
  O   O34       1.0  0.25675  0.036959999999999923  0.70615  1.0000
  O   O35       1.0  0.1383399999999999  0.8688799999999997  0.62507  1.0000
  O   O36       1.0  0.17603999999999984  0.6765599999999998  0.6623999999999999  1.0000
