data_image0
_chemical_formula_structural       Ag4H72C36S12
_chemical_formula_sum              "Ag4 H72 C36 S12"
_cell_length_a       7.72144
_cell_length_b       14.58246
_cell_length_c       15.57178
_cell_angle_alpha    89.99415
_cell_angle_beta     89.96672
_cell_angle_gamma    90.00045

_symmetry_space_group_name_H-M    'P 1'
_symmetry_Int_Tables_number       1

loop_
  _symmetry_equiv_pos_as_xyz
  'x,y,z'

loop_
  _atom_site_type_symbol
  _atom_site_label
  _atom_site_symmetry_multiplicity
  _atom_site_fract_x
  _atom_site_fract_y
  _atom_site_fract_z
  _atom_site_occupancy
  Ag  Ag1       1.0  0.05483000000000001  0.4905099999999999  0.37552  1.0000
  Ag  Ag2       1.0  0.4538  0.51358  0.87505  1.0000
  Ag  Ag3       1.0  0.9445900000000003  0.99082  0.12433  1.0000
  Ag  Ag4       1.0  0.5456400000000002  0.01388  0.62507  1.0000
  H   H1        1.0  0.3542500000000001  0.36844  0.26751  1.0000
  H   H2        1.0  0.17148  0.34305  0.20504000000000003  1.0000
  H   H3        1.0  0.42429  0.19527  0.2711800000000001  1.0000
  H   H4        1.0  0.43776  0.24293999999999993  0.16754  1.0000
  H   H5        1.0  0.8467500000000002  0.6792099999999998  0.37349  1.0000
  H   H6        1.0  0.89656  0.6521699999999999  0.26631  1.0000
  H   H7        1.0  0.57434  0.44096  0.23754  1.0000
  H   H8        1.0  0.54998  0.555  0.20167  1.0000
  H   H9        1.0  0.87761  0.5522  0.16302  1.0000
  H   H10       1.0  0.8719900000000003  0.4334  0.18119  1.0000
  H   H11       1.0  0.87987  0.57589  0.5692700000000003  1.0000
  H   H12       1.0  0.67961  0.54045  0.52522  1.0000
  H   H13       1.0  0.64954  0.3827899999999999  0.43803  1.0000
  H   H14       1.0  0.59965  0.36216  0.54825  1.0000
  H   H15       1.0  0.84646  0.24383  0.4395700000000001  1.0000
  H   H16       1.0  0.62991  0.21592  0.46052  1.0000
  H   H17       1.0  0.33679  0.36725  0.44284  1.0000
  H   H18       1.0  0.4098000000000001  0.25954  0.40117  1.0000
  H   H19       1.0  0.14515  0.63148  0.76752  1.0000
  H   H20       1.0  0.32806000000000013  0.65669  0.7049  1.0000
  H   H21       1.0  0.07577  0.8045999999999998  0.77135  1.0000
  H   H22       1.0  0.06235  0.7570899999999998  0.6676  1.0000
  H   H23       1.0  0.65324  0.3208099999999999  0.8734  1.0000
  H   H24       1.0  0.6035  0.3478  0.7661500000000002  1.0000
  H   H25       1.0  0.9259900000000001  0.55885  0.73707  1.0000
  H   H26       1.0  0.95  0.44478  0.7010900000000002  1.0000
  H   H27       1.0  0.6224200000000002  0.44781  0.6628200000000002  1.0000
  H   H28       1.0  0.62838  0.56664  0.6809  1.0000
  H   H29       1.0  0.62051  0.42375  0.06987  1.0000
  H   H30       1.0  0.82063  0.4592699999999999  0.02556  1.0000
  H   H31       1.0  0.85022  0.6169199999999998  0.9380000000000002  1.0000
  H   H32       1.0  0.89986  0.63765  0.04824  1.0000
  H   H33       1.0  0.6532100000000002  0.75596  0.9396  1.0000
  H   H34       1.0  0.86981  0.7837399999999999  0.96034  1.0000
  H   H35       1.0  0.16268  0.63272  0.9428600000000003  1.0000
  H   H36       1.0  0.09036  0.74064  0.9013600000000003  1.0000
  H   H37       1.0  0.64577  0.8684199999999997  0.23241  1.0000
  H   H38       1.0  0.82855  0.84303  0.29489  1.0000
  H   H39       1.0  0.57572  0.69525  0.22881  1.0000
  H   H40       1.0  0.56228  0.74294  0.33243  1.0000
  H   H41       1.0  0.15324  0.17923999999999995  0.12651  1.0000
  H   H42       1.0  0.10347000000000003  0.15218  0.23367  1.0000
  H   H43       1.0  0.42569  0.94098  0.26244  1.0000
  H   H44       1.0  0.45003  0.05501  0.2983  1.0000
  H   H45       1.0  0.12236000000000002  0.05219  0.33695  1.0000
  H   H46       1.0  0.12807  0.93338  0.3188  1.0000
  H   H47       1.0  0.12016  0.07590999999999998  0.9307600000000003  1.0000
  H   H48       1.0  0.32043  0.04042999999999999  0.9748000000000002  1.0000
  H   H49       1.0  0.35044  0.8827899999999997  0.06201  1.0000
  H   H50       1.0  0.40038  0.86217  0.95181  1.0000
  H   H51       1.0  0.15353  0.7438399999999998  0.06047000000000002  1.0000
  H   H52       1.0  0.37007  0.7159199999999999  0.03953  1.0000
  H   H53       1.0  0.6632700000000002  0.86725  0.0571  1.0000
  H   H54       1.0  0.5902  0.7595499999999997  0.09879000000000003  1.0000
  H   H55       1.0  0.8548800000000002  0.13146  0.7325600000000002  1.0000
  H   H56       1.0  0.6719600000000002  0.15666999999999995  0.7951800000000002  1.0000
  H   H57       1.0  0.92424  0.30457999999999996  0.7286700000000003  1.0000
  H   H58       1.0  0.9376900000000002  0.25709  0.8324300000000002  1.0000
  H   H59       1.0  0.3467600000000001  0.8208399999999998  0.62661  1.0000
  H   H60       1.0  0.3965300000000001  0.8477999999999998  0.73386  1.0000
  H   H61       1.0  0.07404  0.05886  0.76296  1.0000
  H   H62       1.0  0.05002  0.94478  0.79894  1.0000
  H   H63       1.0  0.3775600000000001  0.94779  0.8372200000000002  1.0000
  H   H64       1.0  0.3716800000000001  0.06663  0.81911  1.0000
  H   H65       1.0  0.3795200000000001  0.9237599999999998  0.43011  1.0000
  H   H66       1.0  0.17940000000000006  0.95925  0.47443  1.0000
  H   H67       1.0  0.14975  0.11693  0.56196  1.0000
  H   H68       1.0  0.10017  0.13766999999999993  0.45171  1.0000
  H   H69       1.0  0.3467800000000001  0.25598  0.56036  1.0000
  H   H70       1.0  0.13017  0.28374  0.53961  1.0000
  H   H71       1.0  0.8373700000000002  0.13272  0.5572  1.0000
  H   H72       1.0  0.90964  0.24065  0.5986800000000002  1.0000
  C   C1        1.0  0.26044  0.3140499999999999  0.2528  1.0000
  C   C2        1.0  0.3465600000000001  0.22606  0.21959  1.0000
  C   C3        1.0  0.78898  0.65757  0.31219  1.0000
  C   C4        1.0  0.6444800000000003  0.50562  0.22718000000000005  1.0000
  C   C5        1.0  0.79127  0.49225  0.16239  1.0000
  C   C6        1.0  0.78119  0.52157  0.57123  1.0000
  C   C7        1.0  0.69853  0.35334  0.4982  1.0000
  C   C8        1.0  0.74269  0.25183  0.4874400000000001  1.0000
  C   C9        1.0  0.29987  0.29581  0.42992  1.0000
  C   C10       1.0  0.23924  0.68572  0.7527300000000002  1.0000
  C   C11       1.0  0.15339  0.77385  0.7197  1.0000
  C   C12       1.0  0.71094  0.34232  0.8120700000000002  1.0000
  C   C13       1.0  0.8557200000000003  0.49426999999999993  0.72674  1.0000
  C   C14       1.0  0.7089000000000002  0.50769  0.66207  1.0000
  C   C15       1.0  0.7190800000000003  0.47813  0.07162  1.0000
  C   C16       1.0  0.8011500000000003  0.6464099999999999  0.99816  1.0000
  C   C17       1.0  0.75699  0.74793  0.9874  1.0000
  C   C18       1.0  0.20002  0.70409  0.93001  1.0000
  C   C19       1.0  0.7395900000000002  0.81403  0.24713  1.0000
  C   C20       1.0  0.6534500000000002  0.72605  0.28038  1.0000
  C   C21       1.0  0.21104000000000006  0.15758999999999995  0.18780000000000005  1.0000
  C   C22       1.0  0.35554  0.00564  0.2727900000000001  1.0000
  C   C23       1.0  0.20875  0.99225  0.33758000000000005  1.0000
  C   C24       1.0  0.21883  0.02157  0.9288  1.0000
  C   C25       1.0  0.30148  0.85334  0.00184  1.0000
  C   C26       1.0  0.25731  0.7518299999999998  0.0126  1.0000
  C   C27       1.0  0.7001500000000003  0.79581  0.07003  1.0000
  C   C28       1.0  0.7607900000000002  0.18569999999999998  0.74733  1.0000
  C   C29       1.0  0.84664  0.27384  0.78033  1.0000
  C   C30       1.0  0.28909  0.8423399999999999  0.68795  1.0000
  C   C31       1.0  0.1443  0.99428  0.77329  1.0000
  C   C32       1.0  0.29112  0.00768  0.83796  1.0000
  C   C33       1.0  0.28093  0.9781299999999999  0.42836000000000013  1.0000
  C   C34       1.0  0.19884000000000004  0.14642  0.5018  1.0000
  C   C35       1.0  0.243  0.24794  0.51256  1.0000
  C   C36       1.0  0.7999900000000002  0.20409  0.57004  1.0000
  S   S1        1.0  0.12825  0.29791  0.34913  1.0000
  S   S2        1.0  0.70897  0.54213  0.33421  1.0000
  S   S3        1.0  0.88989  0.4188499999999999  0.53032  1.0000
  S   S4        1.0  0.3714800000000001  0.70188  0.84899  1.0000
  S   S5        1.0  0.79165  0.45766  0.83384  1.0000
  S   S6        1.0  0.6101000000000002  0.58074  0.03061  1.0000
  S   S7        1.0  0.87178  0.79788  0.15082  1.0000
  S   S8        1.0  0.29101  0.04215  0.16576  1.0000
  S   S9        1.0  0.11011000000000003  0.9188499999999997  0.9697000000000002  1.0000
  S   S10       1.0  0.6285500000000003  0.20184999999999995  0.65107  1.0000
  S   S11       1.0  0.20835  0.9576699999999998  0.66619  1.0000
  S   S12       1.0  0.3898900000000001  0.08075  0.46938  1.0000
