data_image0
_chemical_formula_structural       Sc4H24C48O24
_chemical_formula_sum              "Sc4 H24 C48 O24"
_cell_length_a       8.90934
_cell_length_b       11.35847
_cell_length_c       17.79507
_cell_angle_alpha    84.40799
_cell_angle_beta     75.50228
_cell_angle_gamma    67.06014999999998

_space_group_name_H-M_alt    "P 1"
_space_group_IT_number       1

loop_
  _space_group_symop_operation_xyz
  'x, y, z'

loop_
  _atom_site_type_symbol
  _atom_site_label
  _atom_site_symmetry_multiplicity
  _atom_site_fract_x
  _atom_site_fract_y
  _atom_site_fract_z
  _atom_site_occupancy
  Sc  Sc1       1.0  0.3856899999999998  0.75014  0.22849999999999998  1.0000
  Sc  Sc2       1.0  0.8643599999999999  0.74959  0.27128  1.0000
  Sc  Sc3       1.0  0.6143199999999998  0.24986  0.7715  1.0000
  Sc  Sc4       1.0  0.13564999999999988  0.25041  0.72872  1.0000
  H   H1        1.0  0.66396  0.43141  0.60184  1.0000
  H   H2        1.0  0.7513  0.55398  0.48538  1.0000
  H   H3        1.0  0.67529  0.13108  0.2521599999999999  1.0000
  H   H4        1.0  0.7340299999999997  0.06809  0.60179  1.0000
  H   H5        1.0  0.7636999999999997  0.94577  0.4850499999999999  1.0000
  H   H6        1.0  0.07295000000000007  0.36877  0.25213  1.0000
  H   H7        1.0  0.9061799999999999  0.43168  0.8973399999999998  1.0000
  H   H8        1.0  0.6954400000000001  0.55269  0.014  1.0000
  H   H9        1.0  0.19585  0.12862  0.24844  1.0000
  H   H10       1.0  0.19746000000000008  0.06831  0.8978599999999998  1.0000
  H   H11       1.0  0.29038  0.94642  0.0143  1.0000
  H   H12       1.0  0.5561399999999996  0.37116  0.24847  1.0000
  H   H13       1.0  0.33604  0.56859  0.39816  1.0000
  H   H14       1.0  0.24869999999999978  0.44602  0.51462  1.0000
  H   H15       1.0  0.32470999999999994  0.8689200000000001  0.74784  1.0000
  H   H16       1.0  0.26596999999999993  0.93191  0.39822  1.0000
  H   H17       1.0  0.23629999999999998  0.054229999999999993  0.51495  1.0000
  H   H18       1.0  0.9270500000000003  0.63123  0.7478699999999999  1.0000
  H   H19       1.0  0.09381999999999995  0.56832  0.10265999999999999  1.0000
  H   H20       1.0  0.30457000000000006  0.44731  0.986  1.0000
  H   H21       1.0  0.80415  0.8713800000000002  0.75157  1.0000
  H   H22       1.0  0.8025499999999999  0.93169  0.10214  1.0000
  H   H23       1.0  0.7096199999999997  0.05358000000000001  0.9857000000000001  1.0000
  H   H24       1.0  0.4438600000000001  0.62884  0.75153  1.0000
  C   C1        1.0  0.6006  0.64003  0.36552  1.0000
  C   C2        1.0  0.54864  0.56809  0.43515  1.0000
  C   C3        1.0  0.5933299999999997  0.46201  0.55695  1.0000
  C   C4        1.0  0.64183  0.52982  0.49243  1.0000
  C   C5        1.0  0.5445  0.18402  0.25104999999999994  1.0000
  C   C6        1.0  0.03411000000000003  0.86095  0.36515  1.0000
  C   C7        1.0  0.016350000000000052  0.93221  0.43506  1.0000
  C   C8        1.0  0.8496399999999996  0.03769  0.55693  1.0000
  C   C9        1.0  0.86588  0.97006  0.49229  1.0000
  C   C10       1.0  0.20484000000000005  0.31579  0.25106  1.0000
  C   C11       1.0  0.7595299999999998  0.63847  0.13465  1.0000
  C   C12       1.0  0.88301  0.56714  0.0649  1.0000
  C   C13       1.0  0.94542  0.46222  0.9426299999999999  1.0000
  C   C14       1.0  0.8287  0.52911  0.00722  1.0000
  C   C15       1.0  0.27272  0.18273  0.24942999999999999  1.0000
  C   C16       1.0  0.10666999999999999  0.8597  0.13439  1.0000
  C   C17       1.0  0.05186000000000003  0.93208  0.06493999999999998  1.0000
  C   C18       1.0  0.11222000000000003  0.03794  0.94284  1.0000
  C   C19       1.0  0.16388  0.9704  0.007409999999999999  1.0000
  C   C20       1.0  0.47823  0.31709  0.24947  1.0000
  C   C21       1.0  0.39940999999999993  0.35997  0.63448  1.0000
  C   C22       1.0  0.4513599999999998  0.43191000000000007  0.56485  1.0000
  C   C23       1.0  0.4066699999999999  0.53799  0.44304999999999994  1.0000
  C   C24       1.0  0.35816999999999993  0.47018  0.50757  1.0000
  C   C25       1.0  0.4555  0.81598  0.74895  1.0000
  C   C26       1.0  0.9658900000000001  0.13905  0.6348499999999999  1.0000
  C   C27       1.0  0.98365  0.06779  0.56495  1.0000
  C   C28       1.0  0.15036999999999995  0.9623  0.44307  1.0000
  C   C29       1.0  0.13412000000000004  0.02994  0.50771  1.0000
  C   C30       1.0  0.7951600000000002  0.68421  0.74895  1.0000
  C   C31       1.0  0.24047999999999994  0.36153  0.86535  1.0000
  C   C32       1.0  0.11698999999999996  0.4328600000000001  0.9351  1.0000
  C   C33       1.0  0.054579999999999976  0.53778  0.05736999999999999  1.0000
  C   C34       1.0  0.1713  0.47087999999999997  0.9927800000000001  1.0000
  C   C35       1.0  0.7272899999999998  0.8172699999999999  0.75057  1.0000
  C   C36       1.0  0.8933299999999998  0.1403  0.8656099999999999  1.0000
  C   C37       1.0  0.94815  0.06792  0.9350599999999999  1.0000
  C   C38       1.0  0.8877799999999999  0.9620600000000001  0.05716  1.0000
  C   C39       1.0  0.8361199999999999  0.0296  0.9925900000000001  1.0000
  C   C40       1.0  0.5217699999999998  0.6829  0.75053  1.0000
  C   C41       1.0  0.4424299999999998  0.11627  0.25015  1.0000
  C   C42       1.0  0.5140599999999999  0.9735300000000001  0.24992  1.0000
  C   C43       1.0  0.30779999999999996  0.38354  0.2501999999999999  1.0000
  C   C44       1.0  0.23612999999999992  0.52628  0.25015  1.0000
  C   C45       1.0  0.5575699999999999  0.8837300000000001  0.74985  1.0000
  C   C46       1.0  0.48595  0.02647  0.75008  1.0000
  C   C47       1.0  0.6922100000000001  0.61646  0.7498  1.0000
  C   C48       1.0  0.7638699999999997  0.47372  0.74985  1.0000
  O   O1        1.0  0.7287199999999997  0.66718  0.36047999999999997  1.0000
  O   O2        1.0  0.43132  0.91694  0.23027  1.0000
  O   O3        1.0  0.51434  0.67029  0.31433  1.0000
  O   O4        1.0  0.9117999999999998  0.8328  0.36004  1.0000
  O   O5        1.0  0.33852  0.58302  0.23087  1.0000
  O   O6        1.0  0.17112000000000002  0.83283  0.31377  1.0000
  O   O7        1.0  0.60421  0.66659  0.13964  1.0000
  O   O8        1.0  0.6534300000000001  0.91708  0.2692499999999999  1.0000
  O   O9        1.0  0.81694  0.66709  0.18598  1.0000
  O   O10       1.0  0.25652  0.83343  0.13949  1.0000
  O   O11       1.0  0.07733000000000005  0.58232  0.26931  1.0000
  O   O12       1.0  0.00016000000000003167  0.82805  0.18532  1.0000
  O   O13       1.0  0.27127999999999997  0.33282  0.63952  1.0000
  O   O14       1.0  0.56868  0.08306  0.7697299999999998  1.0000
  O   O15       1.0  0.4856599999999999  0.3297  0.68567  1.0000
  O   O16       1.0  0.08820999999999997  0.1672  0.63996  1.0000
  O   O17       1.0  0.66148  0.41698  0.76913  1.0000
  O   O18       1.0  0.82888  0.16717  0.68623  1.0000
  O   O19       1.0  0.39579000000000003  0.33341  0.86036  1.0000
  O   O20       1.0  0.34657  0.08292  0.73075  1.0000
  O   O21       1.0  0.18305999999999986  0.33291  0.81403  1.0000
  O   O22       1.0  0.7434799999999999  0.16657  0.86051  1.0000
  O   O23       1.0  0.9226699999999999  0.41768  0.7307  1.0000
  O   O24       1.0  0.99985  0.17195  0.81468  1.0000
