data_image0
_chemical_formula_structural       Fe2H48C30N48
_chemical_formula_sum              "Fe2 H48 C30 N48"
_cell_length_a       12.20015
_cell_length_b       12.19691
_cell_length_c       12.281000000000002
_cell_angle_alpha    90.60031000000001
_cell_angle_beta     90.43161
_cell_angle_gamma    90.03043000000001

_space_group_name_H-M_alt    "P 1"
_space_group_IT_number       1

loop_
  _space_group_symop_operation_xyz
  'x, y, z'

loop_
  _atom_site_type_symbol
  _atom_site_label
  _atom_site_symmetry_multiplicity
  _atom_site_fract_x
  _atom_site_fract_y
  _atom_site_fract_z
  _atom_site_occupancy
  Fe  Fe1       1.0  0.31879  0.3184699999999999  0.31909  1.0000
  Fe  Fe2       1.0  0.8145699999999998  0.8145399999999998  0.81681  1.0000
  H   H1        1.0  0.87764  0.59107  0.6826  1.0000
  H   H2        1.0  0.3296299999999999  0.38228  0.052390000000000006  1.0000
  H   H3        1.0  0.0428  0.9573  0.76765  1.0000
  H   H4        1.0  0.27759  0.58534  0.30867  1.0000
  H   H5        1.0  0.75802  0.32419  0.94652  1.0000
  H   H6        1.0  0.7431899999999998  0.43098999999999993  0.0475  1.0000
  H   H7        1.0  0.9066199999999999  0.31369  0.08737000000000002  1.0000
  H   H8        1.0  0.95754  0.33515  0.95452  1.0000
  H   H9        1.0  0.9784  0.53809  0.99744  1.0000
  H   H10       1.0  0.93344  0.5133899999999999  0.13271  1.0000
  H   H11       1.0  0.20059999999999997  0.58212  0.88563  1.0000
  H   H12       1.0  0.30762  0.6828099999999999  0.8788200000000002  1.0000
  H   H13       1.0  0.32066  0.5489999999999999  0.7243200000000001  1.0000
  H   H14       1.0  0.30094  0.68555  0.68061  1.0000
  H   H15       1.0  0.11965  0.50981  0.69176  1.0000
  H   H16       1.0  0.09990999999999997  0.64726  0.64773  1.0000
  H   H17       1.0  0.67713  0.8705499999999998  0.58614  1.0000
  H   H18       1.0  0.04164  0.32455999999999996  0.36256000000000005  1.0000
  H   H19       1.0  0.7611199999999999  0.04583  0.9537  1.0000
  H   H20       1.0  0.30447  0.26437  0.58153  1.0000
  H   H21       1.0  0.95034  0.7543399999999998  0.32453  1.0000
  H   H22       1.0  0.05126  0.74411  0.43134  1.0000
  H   H23       1.0  0.08273999999999998  0.90818  0.31361  1.0000
  H   H24       1.0  0.9472799999999998  0.95388  0.33767  1.0000
  H   H25       1.0  0.99202  0.9809699999999998  0.53716  1.0000
  H   H26       1.0  0.12894  0.9368699999999999  0.51276  1.0000
  H   H27       1.0  0.8877099999999998  0.19884999999999994  0.58287  1.0000
  H   H28       1.0  0.87635  0.30686  0.6827  1.0000
  H   H29       1.0  0.72493  0.31675  0.54459  1.0000
  H   H30       1.0  0.67674  0.29871  0.67904  1.0000
  H   H31       1.0  0.69521  0.11596  0.50466  1.0000
  H   H32       1.0  0.65009  0.09601  0.64079  1.0000
  H   H33       1.0  0.58873  0.6779399999999998  0.86857  1.0000
  H   H34       1.0  0.36414  0.05074  0.32649000000000006  1.0000
  H   H35       1.0  0.9548199999999998  0.76353  0.04648  1.0000
  H   H36       1.0  0.59304  0.31109  0.27184  1.0000
  H   H37       1.0  0.32358999999999993  0.94955  0.75774  1.0000
  H   H38       1.0  0.42958999999999997  0.05134999999999999  0.74713  1.0000
  H   H39       1.0  0.31182  0.08698  0.90947  1.0000
  H   H40       1.0  0.33282999999999996  0.9513099999999998  0.95533  1.0000
  H   H41       1.0  0.53453  0.9916299999999999  0.98433  1.0000
  H   H42       1.0  0.5124  0.12865  0.94015  1.0000
  H   H43       1.0  0.58129  0.88836  0.20332  1.0000
  H   H44       1.0  0.68229  0.8761499999999999  0.31005  1.0000
  H   H45       1.0  0.54917  0.7219099999999999  0.3174  1.0000
  H   H46       1.0  0.6848599999999998  0.67682  0.29346  1.0000
  H   H47       1.0  0.50469  0.6973399999999998  0.11739  1.0000
  H   H48       1.0  0.64165  0.65335  0.09332000000000001  1.0000
  C   C1        1.0  0.8445499999999998  0.56882  0.7608900000000001  1.0000
  C   C2        1.0  0.24825  0.40061999999999987  0.08174  1.0000
  C   C3        1.0  0.0644  0.8768  0.79715  1.0000
  C   C4        1.0  0.25093  0.5569  0.38736  1.0000
  C   C5        1.0  0.79479  0.39874  0.9817000000000001  1.0000
  C   C6        1.0  0.91146  0.37355  0.02124  1.0000
  C   C7        1.0  0.97303  0.4761699999999999  0.06141  1.0000
  C   C8        1.0  0.23361  0.65056  0.83862  1.0000
  C   C9        1.0  0.26121  0.61666  0.72148  1.0000
  C   C10       1.0  0.16003  0.58078  0.65536  1.0000
  C   C11       1.0  0.7572199999999999  0.83885  0.56537  1.0000
  C   C12       1.0  0.07246  0.24531999999999995  0.38716  1.0000
  C   C13       1.0  0.79192  0.06624999999999999  0.874  1.0000
  C   C14       1.0  0.38486  0.24140999999999999  0.55257  1.0000
  C   C15       1.0  0.98274  0.79261  0.39935  1.0000
  C   C16       1.0  0.01713  0.91084  0.37444  1.0000
  C   C17       1.0  0.05649  0.9748499999999998  0.47555  1.0000
  C   C18       1.0  0.83792  0.23222  0.64949  1.0000
  C   C19       1.0  0.72071  0.25835  0.61204  1.0000
  C   C20       1.0  0.65683  0.15594999999999998  0.57514  1.0000
  C   C21       1.0  0.56757  0.75835  0.83853  1.0000
  C   C22       1.0  0.38800999999999997  0.07985999999999999  0.24719  1.0000
  C   C23       1.0  0.8747899999999998  0.79508  0.06775  1.0000
  C   C24       1.0  0.56155  0.38951  0.2455  1.0000
  C   C25       1.0  0.39786  0.9836799999999998  0.7959500000000002  1.0000
  C   C26       1.0  0.37169  0.01971  0.9128200000000001  1.0000
  C   C27       1.0  0.47342  0.05726999999999998  0.97725  1.0000
  C   C28       1.0  0.6497  0.8392799999999999  0.23461  1.0000
  C   C29       1.0  0.61526  0.72056  0.25706  1.0000
  C   C30       1.0  0.5767199999999999  0.6584699999999998  0.1545  1.0000
  N   N1        1.0  0.8438899999999999  0.4676599999999999  0.8000699999999998  1.0000
  N   N2        1.0  0.79506  0.48198  0.89741  1.0000
  N   N3        1.0  0.7687  0.588  0.91969  1.0000
  N   N4        1.0  0.8001599999999998  0.64349  0.83118  1.0000
  N   N5        1.0  0.16738  0.44053  0.02004  1.0000
  N   N6        1.0  0.08506999999999999  0.44982  0.09293  1.0000
  N   N7        1.0  0.11186999999999998  0.41422  0.19368  1.0000
  N   N8        1.0  0.21739  0.38374  0.18618  1.0000
  N   N9        1.0  0.16617  0.8372  0.7992300000000001  1.0000
  N   N10       1.0  0.15059  0.73619  0.8414500000000001  1.0000
  N   N11       1.0  0.04377  0.7131299999999999  0.86188  1.0000
  N   N12       1.0  0.9890799999999997  0.80441  0.8341700000000001  1.0000
  N   N13       1.0  0.20977  0.6206  0.46562  1.0000
  N   N14       1.0  0.19071999999999997  0.54816  0.54519  1.0000
  N   N15       1.0  0.22018  0.44458  0.51977  1.0000
  N   N16       1.0  0.25861  0.4499799999999999  0.41778  1.0000
  N   N17       1.0  0.79664  0.8355399999999998  0.46438  1.0000
  N   N18       1.0  0.8969699999999998  0.78908  0.48075  1.0000
  N   N19       1.0  0.91984  0.76927  0.58774  1.0000
  N   N20       1.0  0.82818  0.7998499999999998  0.64052  1.0000
  N   N21       1.0  0.01138  0.16705999999999996  0.43220000000000003  1.0000
  N   N22       1.0  0.08689  0.08653999999999999  0.44753  1.0000
  N   N23       1.0  0.18814999999999996  0.11237  0.41123000000000004  1.0000
  N   N24       1.0  0.17816  0.21506999999999998  0.37323  1.0000
  N   N25       1.0  0.79317  0.16728  0.83371  1.0000
  N   N26       1.0  0.83908  0.15032  0.73479  1.0000
  N   N27       1.0  0.8617099999999999  0.0431  0.71307  1.0000
  N   N28       1.0  0.8322699999999997  0.99016  0.80369  1.0000
  N   N29       1.0  0.46365999999999996  0.19901  0.6146  1.0000
  N   N30       1.0  0.54538  0.18429999999999994  0.54266  1.0000
  N   N31       1.0  0.52066  0.21843  0.44104  1.0000
  N   N32       1.0  0.41667  0.25444  0.44719  1.0000
  N   N33       1.0  0.46629999999999994  0.79844  0.83715  1.0000
  N   N34       1.0  0.4815  0.8986099999999999  0.79379  1.0000
  N   N35       1.0  0.58801  0.9213  0.7717500000000002  1.0000
  N   N36       1.0  0.643  0.83007  0.79985  1.0000
  N   N37       1.0  0.42877  0.01687  0.1681  1.0000
  N   N38       1.0  0.44389999999999996  0.08959  0.0879  1.0000
  N   N39       1.0  0.41278  0.19246  0.11393  1.0000
  N   N40       1.0  0.37708  0.18639999999999998  0.21674999999999997  1.0000
  N   N41       1.0  0.83558  0.79727  0.16883  1.0000
  N   N42       1.0  0.73547  0.84422  0.1533  1.0000
  N   N43       1.0  0.7123199999999998  0.86541  0.04671  1.0000
  N   N44       1.0  0.80374  0.83515  0.99319  1.0000
  N   N45       1.0  0.62197  0.4663999999999999  0.19764  1.0000
  N   N46       1.0  0.54586  0.54634  0.18022  1.0000
  N   N47       1.0  0.44495999999999997  0.52157  0.21916  1.0000
  N   N48       1.0  0.4559  0.41972  0.2597  1.0000
