data_image0
_chemical_formula_structural       Zn4H28C56S6N4O30
_chemical_formula_sum              "Zn4 H28 C56 S6 N4 O30"
_cell_length_a       12.73545
_cell_length_b       14.112060000000001
_cell_length_c       16.405289999999997
_cell_angle_alpha    68.54073999999999
_cell_angle_beta     83.63754
_cell_angle_gamma    73.82778

_space_group_name_H-M_alt    "P 1"
_space_group_IT_number       1

loop_
  _space_group_symop_operation_xyz
  'x, y, z'

loop_
  _atom_site_type_symbol
  _atom_site_label
  _atom_site_symmetry_multiplicity
  _atom_site_fract_x
  _atom_site_fract_y
  _atom_site_fract_z
  _atom_site_occupancy
  Zn  Zn1       1.0  0.67981  0.54743  0.84126  1.0000
  Zn  Zn2       1.0  0.63746  0.74585  0.91739  1.0000
  Zn  Zn3       1.0  0.32019  0.4525799999999999  0.15874000000000005  1.0000
  Zn  Zn4       1.0  0.36253999999999986  0.25416  0.08261  1.0000
  H   H1        1.0  0.77965  0.8350599999999999  0.9865800000000002  1.0000
  H   H2        1.0  0.80345  0.011919999999999936  0.96041  1.0000
  H   H3        1.0  0.03197999999999999  0.43942999999999993  0.8758700000000003  1.0000
  H   H4        1.0  0.37882000000000005  0.5020199999999999  0.9021900000000003  1.0000
  H   H5        1.0  0.9489200000000001  0.73607  0.9159900000000002  1.0000
  H   H6        1.0  0.29490000000000005  0.8001899999999997  0.9388800000000003  1.0000
  H   H7        1.0  0.50121  0.9619499999999999  0.8315600000000002  1.0000
  H   H8        1.0  0.5125899999999998  0.14307000000000003  0.79969  1.0000
  H   H9        1.0  0.8468000000000001  0.16079999999999994  0.8759400000000003  1.0000
  H   H10       1.0  0.85027  0.34122  0.85955  1.0000
  H   H11       1.0  0.5147699999999997  0.45393  0.8144600000000002  1.0000
  H   H12       1.0  0.49668999999999996  0.27867  0.83441  1.0000
  H   H13       1.0  0.5912800000000001  0.7153899999999997  0.5743800000000002  1.0000
  H   H14       1.0  0.55279  0.9681599999999998  0.6704000000000002  1.0000
  H   H15       1.0  0.22036  0.16494999999999999  0.013410000000000002  1.0000
  H   H16       1.0  0.19655  0.98809  0.03958000000000001  1.0000
  H   H17       1.0  0.9680200000000001  0.56058  0.12413  1.0000
  H   H18       1.0  0.62118  0.49799000000000004  0.09781000000000002  1.0000
  H   H19       1.0  0.05107999999999999  0.26393  0.08401  1.0000
  H   H20       1.0  0.7051  0.19982  0.061120000000000015  1.0000
  H   H21       1.0  0.4988000000000001  0.03805000000000001  0.16844  1.0000
  H   H22       1.0  0.48740999999999995  0.85694  0.20031000000000004  1.0000
  H   H23       1.0  0.15319999999999995  0.8392000000000001  0.12406  1.0000
  H   H24       1.0  0.14973999999999998  0.65878  0.14044  1.0000
  H   H25       1.0  0.48522999999999983  0.54608  0.18553000000000006  1.0000
  H   H26       1.0  0.50332  0.7213300000000001  0.16558  1.0000
  H   H27       1.0  0.40873  0.28462  0.4256100000000001  1.0000
  H   H28       1.0  0.44721  0.03183999999999995  0.3296000000000001  1.0000
  C   C1        1.0  0.72309  0.90537  0.94478  1.0000
  C   C2        1.0  0.8589500000000002  0.60111  0.8908300000000002  1.0000
  C   C3        1.0  0.73591  0.0051299999999998794  0.9295100000000002  1.0000
  C   C4        1.0  0.9788700000000002  0.58941  0.8959000000000003  1.0000
  C   C5        1.0  0.12323000000000008  0.6638899999999999  0.9135500000000002  1.0000
  C   C6        1.0  0.05723000000000002  0.50156  0.88646  1.0000
  C   C7        1.0  0.31631000000000004  0.56911  0.9084900000000002  1.0000
  C   C8        1.0  0.16823999999999997  0.49362  0.89065  1.0000
  C   C9        1.0  0.20442000000000002  0.57415  0.9042400000000003  1.0000
  C   C10       1.0  0.5756699999999997  0.8353599999999999  0.6305400000000002  1.0000
  C   C11       1.0  0.011420000000000008  0.66898  0.9095  1.0000
  C   C12       1.0  0.34829  0.64939  0.9211600000000002  1.0000
  C   C13       1.0  0.26932  0.7375700000000001  0.9295700000000002  1.0000
  C   C14       1.0  0.15860999999999997  0.7451799999999998  0.9262800000000002  1.0000
  C   C15       1.0  0.46715999999999985  0.6455000000000002  0.9213000000000002  1.0000
  C   C16       1.0  0.5662899999999998  0.97643  0.8594300000000002  1.0000
  C   C17       1.0  0.6604499999999998  0.09435000000000004  0.87663  1.0000
  C   C18       1.0  0.5733900000000002  0.07821  0.84215  1.0000
  C   C19       1.0  0.67022  0.20208000000000007  0.85915  1.0000
  C   C20       1.0  0.77093  0.22276999999999988  0.8634300000000003  1.0000
  C   C21       1.0  0.7739100000000002  0.32414999999999994  0.8533000000000002  1.0000
  C   C22       1.0  0.5864300000000001  0.38715  0.82884  1.0000
  C   C23       1.0  0.57737  0.28782  0.83931  1.0000
  C   C24       1.0  0.6135300000000002  0.7585099999999999  0.71991  1.0000
  C   C25       1.0  0.56715  0.79939  0.56298  1.0000
  C   C26       1.0  0.52658  0.87093  0.4816300000000001  1.0000
  C   C27       1.0  0.49487000000000003  0.9819500000000001  0.4652300000000001  1.0000
  C   C28       1.0  0.54525  0.9431500000000002  0.61664  1.0000
  C   C29       1.0  0.27692  0.09463  0.05522000000000001  1.0000
  C   C30       1.0  0.14105  0.39889  0.10917000000000003  1.0000
  C   C31       1.0  0.26409  0.99488  0.07049000000000002  1.0000
  C   C32       1.0  0.02112999999999999  0.4106  0.1041  1.0000
  C   C33       1.0  0.8767699999999998  0.33610999999999996  0.08644000000000003  1.0000
  C   C34       1.0  0.9427700000000001  0.49844000000000005  0.11354000000000003  1.0000
  C   C35       1.0  0.68369  0.43089  0.09151  1.0000
  C   C36       1.0  0.83176  0.50639  0.10935000000000003  1.0000
  C   C37       1.0  0.7955899999999999  0.42586000000000007  0.09576  1.0000
  C   C38       1.0  0.42434000000000005  0.16464999999999994  0.36946000000000007  1.0000
  C   C39       1.0  0.98858  0.3310199999999999  0.09050000000000002  1.0000
  C   C40       1.0  0.65171  0.35062  0.07884000000000001  1.0000
  C   C41       1.0  0.7306800000000002  0.26243  0.07042000000000002  1.0000
  C   C42       1.0  0.8414  0.25483  0.07372000000000002  1.0000
  C   C43       1.0  0.5328399999999999  0.3545  0.0787  1.0000
  C   C44       1.0  0.43372  0.023570000000000004  0.14057  1.0000
  C   C45       1.0  0.3395499999999998  0.9056600000000002  0.12337000000000002  1.0000
  C   C46       1.0  0.42662000000000005  0.92179  0.15785  1.0000
  C   C47       1.0  0.32978  0.79793  0.14085  1.0000
  C   C48       1.0  0.22907  0.77724  0.13657000000000005  1.0000
  C   C49       1.0  0.22610000000000002  0.67586  0.14670000000000005  1.0000
  C   C50       1.0  0.41358  0.61285  0.17116  1.0000
  C   C51       1.0  0.4226400000000001  0.71219  0.16069  1.0000
  C   C52       1.0  0.38647  0.24149  0.28009  1.0000
  C   C53       1.0  0.43285  0.20060999999999996  0.4370100000000001  1.0000
  C   C54       1.0  0.47342  0.12907  0.51837  1.0000
  C   C55       1.0  0.50513  0.018059999999999885  0.5347600000000002  1.0000
  C   C56       1.0  0.45475  0.056850000000000005  0.38336  1.0000
  S   S1        1.0  0.2632900000000001  0.38167999999999996  0.8732600000000003  1.0000
  S   S2        1.0  0.06214000000000001  0.85851  0.9411200000000002  1.0000
  S   S3        1.0  0.51338  0.81901  0.3992900000000001  1.0000
  S   S4        1.0  0.73671  0.61833  0.12673  1.0000
  S   S5        1.0  0.9378699999999999  0.14149  0.058880000000000016  1.0000
  S   S6        1.0  0.48662000000000016  0.181  0.60071  1.0000
  N   N1        1.0  0.68273  0.4053999999999998  0.8376600000000002  1.0000
  N   N2        1.0  0.6400799999999999  0.89097  0.90966  1.0000
  N   N3        1.0  0.31728  0.5945999999999999  0.16234  1.0000
  N   N4        1.0  0.35993  0.10904  0.09034000000000003  1.0000
  O   O1        1.0  0.82975  0.5281000000000002  0.8775  1.0000
  O   O2        1.0  0.7959600000000001  0.6835  0.9000200000000003  1.0000
  O   O3        1.0  0.19999  0.3085699999999999  0.8766400000000002  1.0000
  O   O4        1.0  0.3174  0.42775999999999986  0.7897100000000002  1.0000
  O   O5        1.0  0.34455  0.33826  0.9463700000000003  1.0000
  O   O6        1.0  0.9992  0.81304  0.020440000000000007  1.0000
  O   O7        1.0  0.1275599999999999  0.9237200000000001  0.9525400000000003  1.0000
  O   O8        1.0  0.9947300000000004  0.9094499999999999  0.86141  1.0000
  O   O9        1.0  0.5361399999999998  0.5689599999999999  0.9051600000000002  1.0000
  O   O10       1.0  0.48896999999999985  0.72006  0.93608  1.0000
  O   O11       1.0  0.6458800000000001  0.66117  0.72695  1.0000
  O   O12       1.0  0.60839  0.79561  0.77995  1.0000
  O   O13       1.0  0.5503400000000002  0.7040299999999999  0.4384500000000001  1.0000
  O   O14       1.0  0.5822700000000001  0.86678  0.3251400000000001  1.0000
  O   O15       1.0  0.3959999999999998  0.85914  0.3766100000000001  1.0000
  O   O16       1.0  0.17024999999999996  0.47191  0.12250000000000003  1.0000
  O   O17       1.0  0.20403999999999994  0.31651000000000007  0.09998  1.0000
  O   O18       1.0  0.80001  0.69144  0.12335000000000003  1.0000
  O   O19       1.0  0.6826  0.57225  0.21029000000000003  1.0000
  O   O20       1.0  0.65545  0.66175  0.053630000000000004  1.0000
  O   O21       1.0  0.0008000000000000093  0.18695999999999988  0.9795600000000002  1.0000
  O   O22       1.0  0.87245  0.07628  0.047460000000000016  1.0000
  O   O23       1.0  0.0052799999999999965  0.09056000000000002  0.13859  1.0000
  O   O24       1.0  0.46386  0.43104  0.09484000000000002  1.0000
  O   O25       1.0  0.51104  0.27994  0.06392  1.0000
  O   O26       1.0  0.3541200000000002  0.33883  0.27304  1.0000
  O   O27       1.0  0.39161  0.2044  0.22005000000000005  1.0000
  O   O28       1.0  0.44966000000000006  0.29598  0.56155  1.0000
  O   O29       1.0  0.41773000000000005  0.13321999999999992  0.6748600000000002  1.0000
  O   O30       1.0  0.604  0.14086999999999997  0.62339  1.0000
