data_image0
_chemical_formula_structural       Cd4H32C48N8O16
_chemical_formula_sum              "Cd4 H32 C48 N8 O16"
_cell_length_a       10.01391
_cell_length_b       11.26636
_cell_length_c       13.370610000000001
_cell_angle_alpha    90.05618
_cell_angle_beta     89.9991
_cell_angle_gamma    100.79149

_symmetry_space_group_name_H-M    'P 1'
_symmetry_Int_Tables_number       1

loop_
  _symmetry_equiv_pos_as_xyz
  'x,y,z'

loop_
  _atom_site_type_symbol
  _atom_site_label
  _atom_site_symmetry_multiplicity
  _atom_site_fract_x
  _atom_site_fract_y
  _atom_site_fract_z
  _atom_site_occupancy
  Cd  Cd1       1.0  0.74461  0.50848  0.005879999999999999  1.0000
  Cd  Cd2       1.0  0.25655999999999995  0.99103  0.50557  1.0000
  Cd  Cd3       1.0  0.2554  0.49152000000000007  0.9941099999999998  1.0000
  Cd  Cd4       1.0  0.7434399999999999  0.00897  0.4944199999999999  1.0000
  H   H1        1.0  0.49909999999999993  0.39873000000000003  0.31445  1.0000
  H   H2        1.0  0.31739  0.1134  0.11531  1.0000
  H   H3        1.0  0.41382  0.26166  0.45817  1.0000
  H   H4        1.0  0.25084  0.9830900000000002  0.26732  1.0000
  H   H5        1.0  0.88216  0.7592  0.75881  1.0000
  H   H6        1.0  0.29116999999999993  0.7226  0.83035  1.0000
  H   H7        1.0  0.9765  0.88988  0.61242  1.0000
  H   H8        1.0  0.37052000000000007  0.8585700000000002  0.68364  1.0000
  H   H9        1.0  0.5015799999999999  0.10173  0.81447  1.0000
  H   H10       1.0  0.6831799999999999  0.38678  0.6152799999999999  1.0000
  H   H11       1.0  0.58695  0.23917000000000002  0.9581499999999998  1.0000
  H   H12       1.0  0.74956  0.51732  0.7673299999999997  1.0000
  H   H13       1.0  0.11769  0.74215  0.25938  1.0000
  H   H14       1.0  0.7082900000000001  0.7777200000000001  0.33022  1.0000
  H   H15       1.0  0.024430000000000007  0.61086  0.11302999999999998  1.0000
  H   H16       1.0  0.62961  0.6406  0.18378999999999995  1.0000
  H   H17       1.0  0.5009  0.6012700000000001  0.68555  1.0000
  H   H18       1.0  0.6826199999999999  0.8866  0.88469  1.0000
  H   H19       1.0  0.58619  0.7383500000000001  0.54183  1.0000
  H   H20       1.0  0.74916  0.016920000000000004  0.7326799999999999  1.0000
  H   H21       1.0  0.11785  0.2408  0.24117999999999998  1.0000
  H   H22       1.0  0.7088399999999999  0.27741000000000005  0.16964999999999997  1.0000
  H   H23       1.0  0.023509999999999993  0.11013  0.38758  1.0000
  H   H24       1.0  0.62949  0.14144000000000004  0.31635999999999986  1.0000
  H   H25       1.0  0.4984299999999999  0.89828  0.18553  1.0000
  H   H26       1.0  0.31682  0.61322  0.38471  1.0000
  H   H27       1.0  0.41305999999999987  0.76083  0.04185  1.0000
  H   H28       1.0  0.25045  0.48268000000000005  0.23266999999999993  1.0000
  H   H29       1.0  0.8823199999999998  0.25785  0.7406099999999998  1.0000
  H   H30       1.0  0.29171  0.22229000000000002  0.66978  1.0000
  H   H31       1.0  0.9755699999999999  0.38914  0.8869699999999998  1.0000
  H   H32       1.0  0.3703899999999999  0.3594  0.81621  1.0000
  C   C1        1.0  0.46166  0.34601000000000004  0.11342  1.0000
  C   C2        1.0  0.41495  0.2663  0.20317  1.0000
  C   C3        1.0  0.4423399999999999  0.30790000000000006  0.30119  1.0000
  C   C4        1.0  0.34371  0.14789  0.19018  1.0000
  C   C5        1.0  0.39671  0.23179  0.3810799999999999  1.0000
  C   C6        1.0  0.30596  0.07575  0.27382  1.0000
  C   C7        1.0  0.02759999999999999  0.65308  0.8938099999999999  1.0000
  C   C8        1.0  0.08033  0.73247  0.8057999999999998  1.0000
  C   C9        1.0  0.99069  0.77968  0.74388  1.0000
  C   C10       1.0  0.21956000000000003  0.7606100000000001  0.78488  1.0000
  C   C11       1.0  0.04223999999999998  0.8528300000000001  0.66387  1.0000
  C   C12       1.0  0.26352  0.83405  0.7033699999999998  1.0000
  C   C13       1.0  0.53879  0.15378000000000003  0.61365  1.0000
  C   C14       1.0  0.58542  0.23398000000000002  0.7031999999999999  1.0000
  C   C15       1.0  0.55809  0.19261  0.80121  1.0000
  C   C16       1.0  0.6565999999999999  0.3523800000000001  0.6901  1.0000
  C   C17       1.0  0.6037899999999999  0.2689  0.88107  1.0000
  C   C18       1.0  0.69438  0.42471  0.77375  1.0000
  C   C19       1.0  0.9723399999999999  0.84843  0.39392  1.0000
  C   C20       1.0  0.91927  0.7682700000000001  0.30618  1.0000
  C   C21       1.0  0.009200000000000035  0.7211200000000001  0.24436999999999998  1.0000
  C   C22       1.0  0.7801399999999998  0.73961  0.28502  1.0000
  C   C23       1.0  0.9581899999999999  0.64752  0.16439999999999994  1.0000
  C   C24       1.0  0.73657  0.66553  0.20361999999999994  1.0000
  C   C25       1.0  0.5383599999999998  0.654  0.8865899999999998  1.0000
  C   C26       1.0  0.58505  0.7337100000000002  0.7968299999999998  1.0000
  C   C27       1.0  0.55766  0.6921  0.69881  1.0000
  C   C28       1.0  0.6563  0.8521100000000001  0.80982  1.0000
  C   C29       1.0  0.60329  0.76821  0.61891  1.0000
  C   C30       1.0  0.6940400000000001  0.9242500000000001  0.72617  1.0000
  C   C31       1.0  0.9723899999999999  0.34693  0.10617999999999998  1.0000
  C   C32       1.0  0.91968  0.26754000000000006  0.19418999999999995  1.0000
  C   C33       1.0  0.009310000000000002  0.22032  0.25612  1.0000
  C   C34       1.0  0.78045  0.2394  0.21510999999999997  1.0000
  C   C35       1.0  0.9577699999999999  0.14717000000000002  0.33612  1.0000
  C   C36       1.0  0.7364900000000001  0.16595000000000001  0.29663  1.0000
  C   C37       1.0  0.46122  0.84623  0.3863499999999999  1.0000
  C   C38       1.0  0.41459  0.76602  0.29679  1.0000
  C   C39       1.0  0.44192  0.8074  0.19878999999999994  1.0000
  C   C40       1.0  0.3434  0.6476200000000001  0.30989  1.0000
  C   C41       1.0  0.39621  0.73111  0.11892  1.0000
  C   C42       1.0  0.30563  0.57529  0.22624  1.0000
  C   C43       1.0  0.02765  0.15157  0.60608  1.0000
  C   C44       1.0  0.08073  0.23173000000000002  0.69382  1.0000
  C   C45       1.0  0.9907999999999999  0.27888  0.75563  1.0000
  C   C46       1.0  0.21986999999999995  0.26039000000000007  0.71497  1.0000
  C   C47       1.0  0.04181000000000001  0.35248  0.8356  1.0000
  C   C48       1.0  0.26343  0.33447  0.7963799999999999  1.0000
  N   N1        1.0  0.33115  0.11683  0.3681799999999999  1.0000
  N   N2        1.0  0.17658999999999997  0.87927  0.64381  1.0000
  N   N3        1.0  0.66934  0.38379  0.8681099999999998  1.0000
  N   N4        1.0  0.8238599999999998  0.6203200000000001  0.14426999999999998  1.0000
  N   N5        1.0  0.66886  0.88317  0.6318199999999998  1.0000
  N   N6        1.0  0.8234199999999999  0.12073000000000002  0.35619  1.0000
  N   N7        1.0  0.33066  0.6162100000000001  0.13189  1.0000
  N   N8        1.0  0.17615  0.37969  0.8557299999999999  1.0000
  O   O1        1.0  0.57995  0.41049  0.12134999999999997  1.0000
  O   O2        1.0  0.38094999999999996  0.33901  0.04  1.0000
  O   O3        1.0  0.89994  0.6133  0.8938099999999999  1.0000
  O   O4        1.0  0.11309  0.63534  0.95949  1.0000
  O   O5        1.0  0.42088  0.08873  0.62167  1.0000
  O   O6        1.0  0.61925  0.16108  0.54008  1.0000
  O   O7        1.0  0.10034000000000001  0.88653  0.3939299999999999  1.0000
  O   O8        1.0  0.8875  0.8686  0.45919999999999994  1.0000
  O   O9        1.0  0.4200500000000001  0.5895000000000001  0.8786399999999998  1.0000
  O   O10       1.0  0.6190499999999999  0.6609900000000001  0.9599899999999998  1.0000
  O   O11       1.0  0.10007  0.3867  0.10617999999999998  1.0000
  O   O12       1.0  0.8869199999999999  0.36466  0.040509999999999984  1.0000
  O   O13       1.0  0.57911  0.91127  0.37833  1.0000
  O   O14       1.0  0.3807499999999999  0.8389200000000002  0.45992  1.0000
  O   O15       1.0  0.8996699999999999  0.11348000000000001  0.60607  1.0000
  O   O16       1.0  0.11249999999999998  0.1314  0.5407899999999999  1.0000
