data_image0
_chemical_formula_structural       Ca4H32C56S4O24
_chemical_formula_sum              "Ca4 H32 C56 S4 O24"
_cell_length_a       4.6353
_cell_length_b       12.80556
_cell_length_c       23.346060000000005
_cell_angle_alpha    109.10923999999999
_cell_angle_beta     90.17546
_cell_angle_gamma    89.97494

_space_group_name_H-M_alt    "P 1"
_space_group_IT_number       1

loop_
  _space_group_symop_operation_xyz
  'x, y, z'

loop_
  _atom_site_type_symbol
  _atom_site_label
  _atom_site_symmetry_multiplicity
  _atom_site_fract_x
  _atom_site_fract_y
  _atom_site_fract_z
  _atom_site_occupancy
  Ca  Ca1       1.0  0.80154  0.6061499999999999  0.72493  1.0000
  Ca  Ca2       1.0  0.30194  0.8874399999999998  0.77477  1.0000
  Ca  Ca3       1.0  0.19845999999999994  0.39383999999999997  0.27506  1.0000
  Ca  Ca4       1.0  0.69806  0.11255999999999998  0.22522999999999999  1.0000
  H   H1        1.0  0.35693  0.13635999999999995  0.59299  1.0000
  H   H2        1.0  0.20995  0.21668999999999997  0.38197999999999993  1.0000
  H   H3        1.0  0.6400299999999999  0.43817999999999996  0.55954  1.0000
  H   H4        1.0  0.6345  0.33547  0.68263  1.0000
  H   H5        1.0  0.48706999999999995  0.18997  0.72368  1.0000
  H   H6        1.0  0.23634  0.000670000000000019  0.64544  1.0000
  H   H7        1.0  0.35517999999999994  0.22233999999999995  0.48655  1.0000
  H   H8        1.0  0.47837  0.4207299999999999  0.45435999999999993  1.0000
  H   H9        1.0  0.85898  0.35588999999999993  0.9068699999999998  1.0000
  H   H10       1.0  0.70944  0.2878  0.11756999999999998  1.0000
  H   H11       1.0  0.14527999999999996  0.05688999999999996  0.94073  1.0000
  H   H12       1.0  0.13307  0.15778  0.81704  1.0000
  H   H13       1.0  0.9859399999999999  0.30397  0.7760699999999999  1.0000
  H   H14       1.0  0.7393  0.49196999999999996  0.8544899999999999  1.0000
  H   H15       1.0  0.85687  0.27615  0.01231  1.0000
  H   H16       1.0  0.98134  0.07999  0.04638  1.0000
  H   H17       1.0  0.6430699999999998  0.8636299999999998  0.40701  1.0000
  H   H18       1.0  0.79005  0.7833  0.61801  1.0000
  H   H19       1.0  0.35996999999999996  0.56182  0.44045999999999996  1.0000
  H   H20       1.0  0.3655  0.66452  0.31737  1.0000
  H   H21       1.0  0.51293  0.8100299999999999  0.27632  1.0000
  H   H22       1.0  0.7636699999999997  0.9993299999999998  0.35455999999999993  1.0000
  H   H23       1.0  0.64482  0.77766  0.51345  1.0000
  H   H24       1.0  0.52164  0.57927  0.54564  1.0000
  H   H25       1.0  0.14102  0.6441  0.09313  1.0000
  H   H26       1.0  0.29055999999999993  0.7121899999999998  0.8824299999999999  1.0000
  H   H27       1.0  0.85472  0.9431099999999998  0.05927  1.0000
  H   H28       1.0  0.86693  0.8422199999999997  0.18296  1.0000
  H   H29       1.0  0.014059999999999998  0.69603  0.22391999999999998  1.0000
  H   H30       1.0  0.26070999999999994  0.50802  0.14551  1.0000
  H   H31       1.0  0.14314  0.72385  0.9876899999999998  1.0000
  H   H32       1.0  0.01866  0.92001  0.95362  1.0000
  C   C1        1.0  0.76806  0.9963899999999998  0.71241  1.0000
  C   C2        1.0  0.73216  0.30899  0.35023  1.0000
  C   C3        1.0  0.0013400000000000007  0.3320899999999999  0.52913  1.0000
  C   C4        1.0  0.9966799999999999  0.244  0.63369  1.0000
  C   C5        1.0  0.17068000000000003  0.14903  0.62243  1.0000
  C   C6        1.0  0.07834  0.2603999999999999  0.4209399999999999  1.0000
  C   C7        1.0  0.82566  0.31144  0.41181  1.0000
  C   C8        1.0  0.75843  0.38770999999999994  0.52037  1.0000
  C   C9        1.0  0.7556599999999999  0.2589599999999999  0.67046  1.0000
  C   C10       1.0  0.6649  0.17452999999999996  0.69202  1.0000
  C   C11       1.0  0.08764  0.06803999999999995  0.64756  1.0000
  C   C12       1.0  0.17101  0.26925  0.47983  1.0000
  C   C13       1.0  0.83623  0.07922000000000001  0.68109  1.0000
  C   C14       1.0  0.6612099999999997  0.3744199999999999  0.46188999999999997  1.0000
  C   C15       1.0  0.2693  0.49668  0.78722  1.0000
  C   C16       1.0  0.23224  0.19527  0.1499  1.0000
  C   C17       1.0  0.505  0.16403999999999996  0.97052  1.0000
  C   C18       1.0  0.49836  0.24860999999999991  0.8655799999999999  1.0000
  C   C19       1.0  0.67297  0.34348  0.87712  1.0000
  C   C20       1.0  0.57947  0.24161  0.0787  1.0000
  C   C21       1.0  0.32719999999999994  0.19083999999999995  0.0882  1.0000
  C   C22       1.0  0.26223  0.10916999999999992  0.9797499999999999  1.0000
  C   C23       1.0  0.25613  0.23389999999999994  0.82889  1.0000
  C   C24       1.0  0.16565999999999995  0.31860999999999995  0.8074599999999998  1.0000
  C   C25       1.0  0.59016  0.42463  0.85205  1.0000
  C   C26       1.0  0.67346  0.22947999999999993  0.01955  1.0000
  C   C27       1.0  0.33826  0.41360999999999987  0.81838  1.0000
  C   C28       1.0  0.16383  0.12568  0.03833  1.0000
  C   C29       1.0  0.23194  0.0036000000000000073  0.28759  1.0000
  C   C30       1.0  0.26785  0.6909999999999998  0.64977  1.0000
  C   C31       1.0  0.99866  0.6679099999999998  0.47086999999999996  1.0000
  C   C32       1.0  0.00332  0.756  0.36631  1.0000
  C   C33       1.0  0.82932  0.8509699999999999  0.37757  1.0000
  C   C34       1.0  0.9216599999999999  0.73959  0.57905  1.0000
  C   C35       1.0  0.17435  0.6885499999999999  0.58819  1.0000
  C   C36       1.0  0.24157  0.6122799999999999  0.47962  1.0000
  C   C37       1.0  0.24434999999999998  0.74103  0.32954  1.0000
  C   C38       1.0  0.33509999999999995  0.82547  0.30798  1.0000
  C   C39       1.0  0.9123599999999998  0.93195  0.35244  1.0000
  C   C40       1.0  0.82899  0.7307499999999999  0.52016  1.0000
  C   C41       1.0  0.16377  0.92077  0.31891  1.0000
  C   C42       1.0  0.3388  0.62557  0.53811  1.0000
  C   C43       1.0  0.7307  0.5033199999999999  0.21278  1.0000
  C   C44       1.0  0.76776  0.8047199999999998  0.8501  1.0000
  C   C45       1.0  0.495  0.83595  0.029469999999999996  1.0000
  C   C46       1.0  0.50164  0.75139  0.13442  1.0000
  C   C47       1.0  0.32703  0.6565099999999999  0.12287  1.0000
  C   C48       1.0  0.42054  0.7583899999999999  0.9212999999999999  1.0000
  C   C49       1.0  0.67281  0.80916  0.9117999999999999  1.0000
  C   C50       1.0  0.73777  0.89083  0.02025  1.0000
  C   C51       1.0  0.74387  0.7660999999999999  0.17111  1.0000
  C   C52       1.0  0.83434  0.68138  0.19254  1.0000
  C   C53       1.0  0.40984  0.57536  0.14794  1.0000
  C   C54       1.0  0.32654  0.77051  0.98044  1.0000
  C   C55       1.0  0.66174  0.58638  0.18162  1.0000
  C   C56       1.0  0.83618  0.87432  0.96167  1.0000
  S   S1        1.0  0.11517  0.34973999999999994  0.60498  1.0000
  S   S2        1.0  0.61697  0.14327000000000006  0.89449  1.0000
  S   S3        1.0  0.8848299999999999  0.6502599999999998  0.39502  1.0000
  S   S4        1.0  0.3830299999999999  0.8567299999999999  0.10550999999999999  1.0000
  O   O1        1.0  0.99742  0.45612999999999987  0.64354  1.0000
  O   O2        1.0  0.89949  0.26124999999999987  0.30476  1.0000
  O   O3        1.0  0.42752  0.33217  0.59882  1.0000
  O   O4        1.0  0.54424  0.93654  0.69679  1.0000
  O   O5        1.0  0.9439599999999999  0.99429  0.75413  1.0000
  O   O6        1.0  0.49771  0.35633999999999993  0.34604  1.0000
  O   O7        1.0  0.49739  0.03658000000000003  0.85659  1.0000
  O   O8        1.0  0.3987299999999999  0.24419999999999997  0.19551999999999997  1.0000
  O   O9        1.0  0.92943  0.15988  0.9002599999999998  1.0000
  O   O10       1.0  0.04547  0.5562799999999999  0.8029899999999999  1.0000
  O   O11       1.0  0.44414999999999993  0.4990599999999999  0.74559  1.0000
  O   O12       1.0  0.99806  0.14779  0.15398  1.0000
  O   O13       1.0  0.0025799999999999985  0.54387  0.35646  1.0000
  O   O14       1.0  0.10052  0.73875  0.69523  1.0000
  O   O15       1.0  0.57248  0.66782  0.4011799999999999  1.0000
  O   O16       1.0  0.45576  0.06346000000000002  0.30321  1.0000
  O   O17       1.0  0.05604  0.005699999999999988  0.24586999999999998  1.0000
  O   O18       1.0  0.5022899999999999  0.64365  0.65396  1.0000
  O   O19       1.0  0.5026099999999999  0.96342  0.14341  1.0000
  O   O20       1.0  0.60127  0.7558  0.8044699999999999  1.0000
  O   O21       1.0  0.07058  0.8401199999999999  0.09974  1.0000
  O   O22       1.0  0.9545299999999999  0.4437199999999999  0.19700999999999996  1.0000
  O   O23       1.0  0.55585  0.50093  0.2544  1.0000
  O   O24       1.0  0.0019399999999999995  0.8522  0.84601  1.0000
