data_image0
_chemical_formula_structural       Zn6H28C60O24
_chemical_formula_sum              "Zn6 H28 C60 O24"
_cell_length_a       7.03841
_cell_length_b       13.51041
_cell_length_c       16.91379
_cell_angle_alpha    90.00061000000001
_cell_angle_beta     89.99955
_cell_angle_gamma    118.94854000000001

_symmetry_space_group_name_H-M    'P 1'
_symmetry_Int_Tables_number       1

loop_
  _symmetry_equiv_pos_as_xyz
  'x,y,z'

loop_
  _atom_site_type_symbol
  _atom_site_label
  _atom_site_symmetry_multiplicity
  _atom_site_fract_x
  _atom_site_fract_y
  _atom_site_fract_z
  _atom_site_occupancy
  Zn  Zn1       1.0  0.35219  0.054240000000000003  0.03317  1.0000
  Zn  Zn2       1.0  0.64802  0.85032  0.0693  1.0000
  Zn  Zn3       1.0  0.9138199999999999  0.15427  0.01318  1.0000
  Zn  Zn4       1.0  0.6478200000000001  0.9457100000000002  0.53316  1.0000
  Zn  Zn5       1.0  0.35194  0.14963  0.56927  1.0000
  Zn  Zn6       1.0  0.08621000000000002  0.84576  0.51316  1.0000
  H   H1        1.0  0.37641  0.00171  0.8096199999999998  1.0000
  H   H2        1.0  0.2815400000000001  0.76187  0.6261299999999997  1.0000
  H   H3        1.0  0.32174  0.67919  0.86859  1.0000
  H   H4        1.0  0.48822  0.67291  0.61825  1.0000
  H   H5        1.0  0.46666  0.49511  0.57127  1.0000
  H   H6        1.0  0.98698  0.31005  0.74821  1.0000
  H   H7        1.0  0.02473000000000008  0.49104000000000003  0.8020999999999998  1.0000
  H   H8        1.0  0.12948  0.0031  0.27028  1.0000
  H   H9        1.0  0.15506  0.2218  0.46051  1.0000
  H   H10       1.0  0.20243  0.33169  0.21921  1.0000
  H   H11       1.0  0.97092  0.32804  0.46256999999999987  1.0000
  H   H12       1.0  0.012729999999999993  0.50988  0.50989  1.0000
  H   H13       1.0  0.54735  0.68754  0.3491399999999999  1.0000
  H   H14       1.0  0.48569  0.50429  0.29349999999999987  1.0000
  H   H15       1.0  0.6234800000000001  0.9981800000000001  0.30958  1.0000
  H   H16       1.0  0.71848  0.23812000000000003  0.12615  1.0000
  H   H17       1.0  0.67803  0.32068  0.3686099999999999  1.0000
  H   H18       1.0  0.51174  0.32702  0.11828000000000001  1.0000
  H   H19       1.0  0.53337  0.50482  0.07127  1.0000
  H   H20       1.0  0.013049999999999935  0.6899  0.24820999999999996  1.0000
  H   H21       1.0  0.97521  0.50891  0.30212  1.0000
  H   H22       1.0  0.8704300000000001  0.9968500000000001  0.77028  1.0000
  H   H23       1.0  0.8446999999999999  0.7781200000000001  0.9605099999999999  1.0000
  H   H24       1.0  0.79758  0.66828  0.7192  1.0000
  H   H25       1.0  0.02898999999999995  0.67192  0.9625699999999999  1.0000
  H   H26       1.0  0.98723  0.4901  0.009879999999999996  1.0000
  H   H27       1.0  0.45260000000000006  0.31242  0.84912  1.0000
  H   H28       1.0  0.51428  0.49568  0.79349  1.0000
  C   C1        1.0  0.3453700000000002  0.8418400000000001  0.8476499999999998  1.0000
  C   C2        1.0  0.3546700000000001  0.91979  0.79135  1.0000
  C   C3        1.0  0.3392699999999999  0.89198  0.71117  1.0000
  C   C4        1.0  0.30414000000000013  0.7850200000000002  0.6882399999999997  1.0000
  C   C5        1.0  0.29279000000000016  0.70575  0.7437699999999998  1.0000
  C   C6        1.0  0.31957999999999986  0.7366  0.82397  1.0000
  C   C7        1.0  0.3669300000000001  0.87448  0.9330999999999998  1.0000
  C   C8        1.0  0.35738000000000014  0.97341  0.64983  1.0000
  C   C9        1.0  0.2626899999999999  0.59557  0.71494  1.0000
  C   C10       1.0  0.38049999999999995  0.59436  0.64814  1.0000
  C   C11       1.0  0.36853  0.49449  0.6210799999999997  1.0000
  C   C12       1.0  0.22744000000000006  0.39154  0.65756  1.0000
  C   C13       1.0  0.09969  0.39079  0.72156  1.0000
  C   C14       1.0  0.12084000000000011  0.4921400000000001  0.75133  1.0000
  C   C15       1.0  0.21655  0.2843  0.62871  1.0000
  C   C16       1.0  0.16829  0.16619  0.23677999999999996  1.0000
  C   C17       1.0  0.1448  0.08284  0.2911299999999999  1.0000
  C   C18       1.0  0.13482000000000005  0.10257  0.37194  1.0000
  C   C19       1.0  0.1587  0.20657  0.3975699999999999  1.0000
  C   C20       1.0  0.19009  0.292  0.3438199999999999  1.0000
  C   C21       1.0  0.18874  0.26938  0.26279  1.0000
  C   C22       1.0  0.17081999999999997  0.14456  0.1505  1.0000
  C   C23       1.0  0.10375  0.01628  0.43185  1.0000
  C   C24       1.0  0.22245000000000006  0.40241000000000005  0.37347  1.0000
  C   C25       1.0  0.09389000000000004  0.40603000000000006  0.43587  1.0000
  C   C26       1.0  0.11756000000000001  0.50843  0.4632  1.0000
  C   C27       1.0  0.28282  0.61065  0.4327  1.0000
  C   C28       1.0  0.41784  0.60841  0.37239  1.0000
  C   C29       1.0  0.38315  0.50515  0.34138  1.0000
  C   C30       1.0  0.31487  0.71929  0.467  1.0000
  C   C31       1.0  0.65439  0.158  0.34759  1.0000
  C   C32       1.0  0.64522  0.0801  0.29129  1.0000
  C   C33       1.0  0.66067  0.10797  0.21114  1.0000
  C   C34       1.0  0.69586  0.21495000000000003  0.18825  1.0000
  C   C35       1.0  0.70718  0.2942  0.24379999999999996  1.0000
  C   C36       1.0  0.68023  0.26328  0.32398  1.0000
  C   C37       1.0  0.6326499999999999  0.12526  0.4329799999999999  1.0000
  C   C38       1.0  0.6424599999999999  0.026510000000000002  0.14983  1.0000
  C   C39       1.0  0.7373  0.4043800000000001  0.21496  1.0000
  C   C40       1.0  0.6195  0.40558  0.14816  1.0000
  C   C41       1.0  0.63149  0.50545  0.12108000000000001  1.0000
  C   C42       1.0  0.7725599999999999  0.60842  0.15756  1.0000
  C   C43       1.0  0.90031  0.60916  0.22155999999999995  1.0000
  C   C44       1.0  0.87915  0.50782  0.25135  1.0000
  C   C45       1.0  0.78337  0.71564  0.12872  1.0000
  C   C46       1.0  0.83167  0.83376  0.73678  1.0000
  C   C47       1.0  0.85507  0.9171  0.7911299999999999  1.0000
  C   C48       1.0  0.86489  0.89732  0.87195  1.0000
  C   C49       1.0  0.84104  0.79333  0.89757  1.0000
  C   C50       1.0  0.8098  0.70793  0.84381  1.0000
  C   C51       1.0  0.81122  0.73058  0.76279  1.0000
  C   C52       1.0  0.82909  0.85538  0.6505  1.0000
  C   C53       1.0  0.89619  0.98362  0.9319  1.0000
  C   C54       1.0  0.77747  0.59754  0.8734599999999998  1.0000
  C   C55       1.0  0.90602  0.59393  0.93587  1.0000
  C   C56       1.0  0.88238  0.49153  0.96319  1.0000
  C   C57       1.0  0.71713  0.38931  0.93268  1.0000
  C   C58       1.0  0.58211  0.39155000000000006  0.87237  1.0000
  C   C59       1.0  0.6168  0.4948  0.84137  1.0000
  C   C60       1.0  0.68508  0.28068  0.9669899999999999  1.0000
  O   O1        1.0  0.42867  0.82421  0.9817199999999999  1.0000
  O   O2        1.0  0.31436000000000003  0.95093  0.9484899999999999  1.0000
  O   O3        1.0  0.35751  0.06448  0.6668999999999998  1.0000
  O   O4        1.0  0.37089000000000016  0.94826  0.57569  1.0000
  O   O5        1.0  0.38673  0.29855  0.5873  1.0000
  O   O6        1.0  0.058829999999999986  0.1897  0.64349  1.0000
  O   O7        1.0  0.2332  0.07357  0.13099  1.0000
  O   O8        1.0  0.11467000000000005  0.19990000000000002  0.10311999999999998  1.0000
  O   O9        1.0  0.09440999999999995  0.92261  0.4114199999999999  1.0000
  O   O10       1.0  0.08519999999999998  0.03524  0.50557  1.0000
  O   O11       1.0  0.14280000000000007  0.71998  0.49171  1.0000
  O   O12       1.0  0.5089300000000001  0.8012  0.4713199999999999  1.0000
  O   O13       1.0  0.57041  0.17548  0.4814399999999999  1.0000
  O   O14       1.0  0.68559  0.04898000000000001  0.4484799999999999  1.0000
  O   O15       1.0  0.64199  0.93537  0.16692  1.0000
  O   O16       1.0  0.62911  0.05167000000000001  0.07567  1.0000
  O   O17       1.0  0.61316  0.7013700000000002  0.08733  1.0000
  O   O18       1.0  0.9411  0.8102600000000001  0.14349  1.0000
  O   O19       1.0  0.7664  0.92625  0.63101  1.0000
  O   O20       1.0  0.8854  0.80012  0.60311  1.0000
  O   O21       1.0  0.90601  0.07741  0.9115099999999998  1.0000
  O   O22       1.0  0.91461  0.9646  0.00562  1.0000
  O   O23       1.0  0.85717  0.28001  0.99171  1.0000
  O   O24       1.0  0.49101999999999996  0.19876  0.97132  1.0000
