data_image0
_chemical_formula_structural       Cu4H40C56N4O16
_chemical_formula_sum              "Cu4 H40 C56 N4 O16"
_cell_length_a       13.87957
_cell_length_b       13.88957
_cell_length_c       13.85191
_cell_angle_alpha    114.65049999999998
_cell_angle_beta     113.84041
_cell_angle_gamma    100.35073

_space_group_name_H-M_alt    "P 1"
_space_group_IT_number       1

loop_
  _space_group_symop_operation_xyz
  'x, y, z'

loop_
  _atom_site_type_symbol
  _atom_site_label
  _atom_site_symmetry_multiplicity
  _atom_site_fract_x
  _atom_site_fract_y
  _atom_site_fract_z
  _atom_site_occupancy
  Cu  Cu1       1.0  0.69145  0.18949000000000002  0.38005000000000005  1.0000
  Cu  Cu2       1.0  0.80903  0.31121  0.61951  1.0000
  Cu  Cu3       1.0  0.44092  0.56144  0.00196  1.0000
  Cu  Cu4       1.0  0.55762  0.43998  0.99688  1.0000
  H   H1        1.0  0.52207  0.2652800000000001  0.66943  1.0000
  H   H2        1.0  0.34467  0.22076999999999994  0.67342  1.0000
  H   H3        1.0  0.13747  0.013589999999999988  0.26632  1.0000
  H   H4        1.0  0.32107  0.054279999999999995  0.26503  1.0000
  H   H5        1.0  0.10203  0.16744000000000003  0.47098  1.0000
  H   H6        1.0  0.59601  0.85314  0.32972  1.0000
  H   H7        1.0  0.5487100000000003  0.67173  0.32591  1.0000
  H   H8        1.0  0.7475100000000002  0.87124  0.7329  1.0000
  H   H9        1.0  0.78889  0.05615000000000005  0.73403  1.0000
  H   H10       1.0  0.6971700000000003  0.6316500000000002  0.5291  1.0000
  H   H11       1.0  0.51995  0.34829  0.24571  1.0000
  H   H12       1.0  0.4756900000000001  0.29961  0.37892  1.0000
  H   H13       1.0  0.26386  0.49328  0.37807  1.0000
  H   H14       1.0  0.30533  0.53622  0.23573  1.0000
  H   H15       1.0  0.41884  0.44331  0.56742  1.0000
  H   H16       1.0  0.09926000000000007  0.2733400000000002  0.7527800000000001  1.0000
  H   H17       1.0  0.91879  0.09480000000000006  0.62026  1.0000
  H   H18       1.0  0.11685999999999999  0.8872500000000001  0.62314  1.0000
  H   H19       1.0  0.30081  0.07229000000000002  0.76514  1.0000
  H   H20       1.0  0.8773200000000001  0.8507200000000005  0.43238  1.0000
  H   H21       1.0  0.72868  0.89766  0.24764000000000003  1.0000
  H   H22       1.0  0.9061  0.07927999999999998  0.38059  1.0000
  H   H23       1.0  0.11267  0.88032  0.37138  1.0000
  H   H24       1.0  0.9288600000000001  0.69515  0.22869  1.0000
  H   H25       1.0  0.14838  0.12141999999999999  0.56548  1.0000
  H   H26       1.0  0.64953  0.48228  0.75243  1.0000
  H   H27       1.0  0.6989500000000002  0.52656  0.61976  1.0000
  H   H28       1.0  0.50809  0.74135  0.62705  1.0000
  H   H29       1.0  0.46506000000000014  0.70053  0.7695600000000001  1.0000
  H   H30       1.0  0.55675  0.5834800000000001  0.43409000000000003  1.0000
  H   H31       1.0  0.7333900000000002  0.47559000000000023  0.32716  1.0000
  H   H32       1.0  0.77769  0.6534100000000002  0.32395  1.0000
  H   H33       1.0  0.9834500000000002  0.86355  0.73096  1.0000
  H   H34       1.0  0.94196  0.67961  0.73135  1.0000
  H   H35       1.0  0.8310300000000005  0.8980100000000002  0.52758  1.0000
  H   H36       1.0  0.14823  0.40561  0.67259  1.0000
  H   H37       1.0  0.32944  0.45226  0.67582  1.0000
  H   H38       1.0  0.1334  0.25068  0.26894  1.0000
  H   H39       1.0  0.9488200000000002  0.20985  0.2685  1.0000
  H   H40       1.0  0.3704700000000001  0.30203  0.47102000000000005  1.0000
  C   C1        1.0  0.54327  0.20187  0.47007  1.0000
  C   C2        1.0  0.43311  0.16128  0.46695  1.0000
  C   C3        1.0  0.4385000000000001  0.20663  0.58154  1.0000
  C   C4        1.0  0.33764  0.18183999999999995  0.5833  1.0000
  C   C5        1.0  0.23078000000000007  0.11288000000000004  0.4694  1.0000
  C   C6        1.0  0.2219800000000001  0.06612000000000003  0.35379  1.0000
  C   C7        1.0  0.32403  0.08928  0.35314  1.0000
  C   C8        1.0  0.73042  0.07333000000000003  0.5288  1.0000
  C   C9        1.0  0.6940400000000001  0.96632  0.53212  1.0000
  C   C10       1.0  0.62536  0.8573  0.4176  1.0000
  C   C11       1.0  0.59934  0.7547500000000001  0.41591000000000006  1.0000
  C   C12       1.0  0.64419  0.7618000000000001  0.52989  1.0000
  C   C13       1.0  0.7127  0.86847  0.64547  1.0000
  C   C14       1.0  0.7361  0.9710600000000001  0.64602  1.0000
  C   C15       1.0  0.4535700000000001  0.4808700000000001  0.15975  1.0000
  C   C16       1.0  0.4140700000000001  0.44401  0.23061  1.0000
  C   C17       1.0  0.46065  0.37633  0.27073  1.0000
  C   C18       1.0  0.43582000000000004  0.34945  0.34673  1.0000
  C   C19       1.0  0.36536  0.39238  0.38422  1.0000
  C   C20       1.0  0.3176  0.45991000000000004  0.3464  1.0000
  C   C21       1.0  0.3411200000000001  0.48422000000000004  0.26782  1.0000
  C   C22       1.0  0.31909  0.2949  0.83935  1.0000
  C   C23       1.0  0.21186000000000005  0.18431000000000003  0.76884  1.0000
  C   C24       1.0  0.10347999999999997  0.18960000000000002  0.72834  1.0000
  C   C25       1.0  0.0013699999999999934  0.08816999999999998  0.6526  1.0000
  C   C26       1.0  0.008130000000000004  0.9808999999999999  0.61568  1.0000
  C   C27       1.0  0.11407000000000007  0.9721200000000002  0.65403  1.0000
  C   C28       1.0  0.21616999999999997  0.07481000000000002  0.73243  1.0000
  C   C29       1.0  0.70701  0.67713  0.15807  1.0000
  C   C30       1.0  0.81723  0.7845100000000002  0.22832  1.0000
  C   C31       1.0  0.8120200000000001  0.89356  0.27083  1.0000
  C   C32       1.0  0.9128100000000001  0.99629  0.34682  1.0000
  C   C33       1.0  0.019490000000000028  0.9894800000000002  0.38205000000000006  1.0000
  C   C34       1.0  0.02819000000000007  0.88294  0.34168  1.0000
  C   C35       1.0  0.9261100000000002  0.7801600000000002  0.26292  1.0000
  C   C36       1.0  0.5180899999999999  0.54997  0.84124  1.0000
  C   C37       1.0  0.5555700000000002  0.5900600000000003  0.7712300000000001  1.0000
  C   C38       1.0  0.62247  0.5424399999999999  0.72916  1.0000
  C   C39       1.0  0.6496  0.56715  0.65326  1.0000
  C   C40       1.0  0.60751  0.63828  0.61752  1.0000
  C   C41       1.0  0.54083  0.68709  0.65731  1.0000
  C   C42       1.0  0.51645  0.66391  0.73604  1.0000
  C   C43       1.0  0.7960500000000001  0.45597  0.52643  1.0000
  C   C44       1.0  0.83623  0.56612  0.5295  1.0000
  C   C45       1.0  0.7915200000000002  0.5599000000000002  0.41514  1.0000
  C   C46       1.0  0.8164  0.66092  0.41380000000000006  1.0000
  C   C47       1.0  0.88501  0.7687300000000002  0.5279  1.0000
  C   C48       1.0  0.93119  0.77833  0.64331  1.0000
  C   C49       1.0  0.9076800000000003  0.67614  0.64349  1.0000
  C   C50       1.0  0.9294400000000002  0.26986  0.47329000000000004  1.0000
  C   C51       1.0  0.036780000000000035  0.30623000000000006  0.47029000000000004  1.0000
  C   C52       1.0  0.14476  0.37561  0.58462  1.0000
  C   C53       1.0  0.24724  0.40141000000000004  0.58599  1.0000
  C   C54       1.0  0.24122  0.35579000000000005  0.47195000000000004  1.0000
  C   C55       1.0  0.13557  0.28647  0.35654  1.0000
  C   C56       1.0  0.03311  0.26327  0.35634  1.0000
  N   N1        1.0  0.12521000000000004  0.10144000000000006  0.47561  1.0000
  N   N2        1.0  0.6264100000000002  0.6502100000000001  0.5239600000000001  1.0000
  N   N3        1.0  0.35257000000000005  0.37341  0.47732  1.0000
  N   N4        1.0  0.8968  0.87452  0.52232  1.0000
  O   O1        1.0  0.54079  0.14182  0.3683  1.0000
  O   O2        1.0  0.62528  0.29468  0.57094  1.0000
  O   O3        1.0  0.77157  0.17231000000000005  0.63049  1.0000
  O   O4        1.0  0.72202  0.05487000000000003  0.42776  1.0000
  O   O5        1.0  0.3941600000000001  0.52339  0.10458  1.0000
  O   O6        1.0  0.54461  0.47138  0.16692  1.0000
  O   O7        1.0  0.417  0.29076  0.89395  1.0000
  O   O8        1.0  0.30189  0.37865  0.83245  1.0000
  O   O9        1.0  0.7087600000000001  0.57815  0.09842  1.0000
  O   O10       1.0  0.62537  0.69531  0.17006  1.0000
  O   O11       1.0  0.4787199999999999  0.61124  0.90103  1.0000
  O   O12       1.0  0.52407  0.45624  0.82885  1.0000
  O   O13       1.0  0.8547100000000002  0.46063000000000004  0.62901  1.0000
  O   O14       1.0  0.70528  0.37200000000000005  0.42512000000000005  1.0000
  O   O15       1.0  0.83177  0.22634  0.37072  1.0000
  O   O16       1.0  0.94639  0.28058  0.57467  1.0000
