data_image0
_chemical_formula_structural       Ag4H72C56N12
_chemical_formula_sum              "Ag4 H72 C56 N12"
_cell_length_a       11.19019
_cell_length_b       12.80903
_cell_length_c       13.03593
_cell_angle_alpha    89.39933
_cell_angle_beta     89.52428
_cell_angle_gamma    63.45916

_space_group_name_H-M_alt    "P 1"
_space_group_IT_number       1

loop_
  _space_group_symop_operation_xyz
  'x, y, z'

loop_
  _atom_site_type_symbol
  _atom_site_label
  _atom_site_symmetry_multiplicity
  _atom_site_fract_x
  _atom_site_fract_y
  _atom_site_fract_z
  _atom_site_occupancy
  Ag  Ag1       1.0  0.0  0.5  0.5  1.0000
  Ag  Ag2       1.0  0.5  0.5  0.0  1.0000
  Ag  Ag3       1.0  0.9892999999999998  0.05033  0.23987999999999995  1.0000
  Ag  Ag4       1.0  0.01069  0.94967  0.7601199999999999  1.0000
  H   H1        1.0  0.7505699999999997  0.60999  0.36684  1.0000
  H   H2        1.0  0.56243  0.56997  0.31811999999999996  1.0000
  H   H3        1.0  0.70045  0.2913  0.54472  1.0000
  H   H4        1.0  0.8816499999999999  0.34223  0.58582  1.0000
  H   H5        1.0  0.46322  0.36467  0.45121  1.0000
  H   H6        1.0  0.42777000000000004  0.46809999999999996  0.35096  1.0000
  H   H7        1.0  0.57894  0.16991  0.42238  1.0000
  H   H8        1.0  0.73501  0.16637  0.38617  1.0000
  H   H9        1.0  0.7146599999999997  0.00206  0.30699  1.0000
  H   H10       1.0  0.5574699999999999  0.0995  0.25118  1.0000
  H   H11       1.0  0.56181  0.23739999999999997  0.11319999999999998  1.0000
  H   H12       1.0  0.7197699999999998  0.23496  0.08397  1.0000
  H   H13       1.0  0.72984  0.31163  0.25209  1.0000
  H   H14       1.0  0.57287  0.40305  0.19497  1.0000
  H   H15       1.0  0.67494  0.04049  0.057429999999999995  1.0000
  H   H16       1.0  0.7819599999999999  0.93474  0.14662  1.0000
  H   H17       1.0  0.026849999999999968  0.86001  0.13966  1.0000
  H   H18       1.0  0.77294  0.12173  0.92877  1.0000
  H   H19       1.0  0.6368199999999999  0.61004  0.12848  1.0000
  H   H20       1.0  0.86549  0.57178  0.17708999999999997  1.0000
  H   H21       1.0  0.013949999999999971  0.28893  0.9577499999999998  1.0000
  H   H22       1.0  0.78113  0.3377  0.91744  1.0000
  H   H23       1.0  0.17631  0.3625  0.0508  1.0000
  H   H24       1.0  0.10537000000000007  0.4664099999999999  0.14919999999999997  1.0000
  H   H25       1.0  0.26677000000000006  0.16898  0.0847  1.0000
  H   H26       1.0  0.11365  0.16217  0.11181999999999999  1.0000
  H   H27       1.0  0.29694  0.0007799999999999997  0.19947  1.0000
  H   H28       1.0  0.34736999999999996  0.1001  0.25997  1.0000
  H   H29       1.0  0.19318  0.23636  0.39037  1.0000
  H   H30       1.0  0.0368  0.23312  0.41366  1.0000
  H   H31       1.0  0.95825  0.30636  0.24176  1.0000
  H   H32       1.0  0.01405000000000002  0.40087  0.30201  1.0000
  H   H33       1.0  0.28655  0.03754  0.44595999999999997  1.0000
  H   H34       1.0  0.28753  0.9320999999999999  0.3575799999999999  1.0000
  H   H35       1.0  0.11334000000000007  0.86657  0.3544699999999999  1.0000
  H   H36       1.0  0.09779  0.12413999999999999  0.57118  1.0000
  H   H37       1.0  0.24942000000000003  0.3900099999999999  0.63317  1.0000
  H   H38       1.0  0.43755  0.4300299999999999  0.6818799999999998  1.0000
  H   H39       1.0  0.29954  0.7087  0.45528  1.0000
  H   H40       1.0  0.11834000000000008  0.6577799999999999  0.41418999999999995  1.0000
  H   H41       1.0  0.5367699999999997  0.63533  0.5488  1.0000
  H   H42       1.0  0.5722199999999997  0.5319  0.64904  1.0000
  H   H43       1.0  0.4210499999999999  0.83009  0.57763  1.0000
  H   H44       1.0  0.26498000000000005  0.8336299999999999  0.61384  1.0000
  H   H45       1.0  0.2853299999999999  0.9979399999999999  0.6930099999999998  1.0000
  H   H46       1.0  0.4425200000000001  0.9004999999999997  0.7488199999999998  1.0000
  H   H47       1.0  0.43818000000000007  0.7626  0.8868  1.0000
  H   H48       1.0  0.28022  0.76504  0.91603  1.0000
  H   H49       1.0  0.2701499999999999  0.68837  0.74792  1.0000
  H   H50       1.0  0.42712000000000006  0.59695  0.80503  1.0000
  H   H51       1.0  0.3250499999999999  0.95951  0.9425699999999998  1.0000
  H   H52       1.0  0.21802999999999997  0.06525999999999998  0.85339  1.0000
  H   H53       1.0  0.97314  0.13999  0.8603399999999999  1.0000
  H   H54       1.0  0.22706  0.87827  0.07124  1.0000
  H   H55       1.0  0.36317  0.38996  0.87153  1.0000
  H   H56       1.0  0.13450999999999988  0.42821999999999993  0.8229099999999999  1.0000
  H   H57       1.0  0.98604  0.71107  0.04226  1.0000
  H   H58       1.0  0.2188699999999999  0.6623  0.08256999999999999  1.0000
  H   H59       1.0  0.82368  0.6375  0.9492  1.0000
  H   H60       1.0  0.8946299999999999  0.53359  0.8508  1.0000
  H   H61       1.0  0.7332300000000002  0.83102  0.9152999999999999  1.0000
  H   H62       1.0  0.8863400000000001  0.8378299999999997  0.88818  1.0000
  H   H63       1.0  0.7030499999999998  0.99922  0.80053  1.0000
  H   H64       1.0  0.65262  0.8999  0.74003  1.0000
  H   H65       1.0  0.8068099999999999  0.76364  0.60964  1.0000
  H   H66       1.0  0.9631900000000001  0.76687  0.5863399999999999  1.0000
  H   H67       1.0  0.0417400000000001  0.6936399999999999  0.7582399999999998  1.0000
  H   H68       1.0  0.98594  0.59914  0.6979999999999998  1.0000
  H   H69       1.0  0.71344  0.9624599999999999  0.55404  1.0000
  H   H70       1.0  0.7124699999999998  0.0679  0.64242  1.0000
  H   H71       1.0  0.8866599999999998  0.13342999999999994  0.64553  1.0000
  H   H72       1.0  0.9022100000000001  0.87586  0.42882  1.0000
  C   C1        1.0  0.7354199999999999  0.54077  0.4046799999999999  1.0000
  C   C2        1.0  0.6308799999999998  0.5175  0.37798999999999994  1.0000
  C   C3        1.0  0.61029  0.42811  0.42827  1.0000
  C   C4        1.0  0.70644  0.36324  0.50357  1.0000
  C   C5        1.0  0.8087199999999999  0.39076999999999995  0.52727  1.0000
  C   C6        1.0  0.50866  0.39227999999999996  0.38816  1.0000
  C   C7        1.0  0.6357399999999999  0.18088  0.35742999999999997  1.0000
  C   C8        1.0  0.65625  0.09027  0.27549  1.0000
  C   C9        1.0  0.6586299999999999  0.22463999999999995  0.14578  1.0000
  C   C10       1.0  0.6331099999999997  0.31563  0.22785  1.0000
  C   C11       1.0  0.76208  0.01766  0.10793  1.0000
  C   C12       1.0  0.8831999999999999  0.00488  0.04800999999999998  1.0000
  C   C13       1.0  0.012800000000000067  0.9387499999999999  0.09708999999999998  1.0000
  C   C14       1.0  0.8723799999999999  0.06640999999999998  0.9589699999999998  1.0000
  C   C15       1.0  0.7231000000000002  0.54048  0.09218999999999997  1.0000
  C   C16       1.0  0.85128  0.51808  0.11879  1.0000
  C   C17       1.0  0.9635  0.42796  0.07057  1.0000
  C   C18       1.0  0.9342399999999998  0.36159999999999987  0.99716  1.0000
  C   C19       1.0  0.8038699999999999  0.3881899999999999  0.9737399999999999  1.0000
  C   C20       1.0  0.10129000000000005  0.39115999999999995  0.11251  1.0000
  C   C21       1.0  0.19392999999999996  0.17922999999999997  0.14567  1.0000
  C   C22       1.0  0.26144  0.08928  0.23021999999999995  1.0000
  C   C23       1.0  0.1117  0.22292  0.35469999999999996  1.0000
  C   C24       1.0  0.04791000000000002  0.31294999999999995  0.27004  1.0000
  C   C25       1.0  0.22305999999999995  0.015000000000000001  0.39523  1.0000
  C   C26       1.0  0.11352000000000001  0.00297  0.45392999999999994  1.0000
  C   C27       1.0  0.055840000000000035  0.93401  0.40965999999999997  1.0000
  C   C28       1.0  0.05628  0.06841999999999998  0.54068  1.0000
  C   C29       1.0  0.26456  0.45923  0.59532  1.0000
  C   C30       1.0  0.36910999999999994  0.48249999999999993  0.6220099999999998  1.0000
  C   C31       1.0  0.38969999999999994  0.57189  0.57174  1.0000
  C   C32       1.0  0.2935599999999999  0.63676  0.49643  1.0000
  C   C33       1.0  0.19127000000000008  0.6092299999999999  0.47273  1.0000
  C   C34       1.0  0.4913299999999998  0.6077199999999999  0.61185  1.0000
  C   C35       1.0  0.36425999999999986  0.8191199999999998  0.6425699999999998  1.0000
  C   C36       1.0  0.34374  0.9097299999999998  0.72452  1.0000
  C   C37       1.0  0.34136000000000005  0.7753599999999999  0.85423  1.0000
  C   C38       1.0  0.36687999999999976  0.68437  0.77215  1.0000
  C   C39       1.0  0.2379100000000001  0.9823399999999998  0.89207  1.0000
  C   C40       1.0  0.11679  0.99512  0.9519899999999998  1.0000
  C   C41       1.0  0.9871899999999999  0.06125  0.90292  1.0000
  C   C42       1.0  0.1276100000000001  0.9335899999999998  0.04104  1.0000
  C   C43       1.0  0.27689  0.45952  0.90782  1.0000
  C   C44       1.0  0.14871  0.48191999999999996  0.88121  1.0000
  C   C45       1.0  0.036489999999999995  0.57204  0.92943  1.0000
  C   C46       1.0  0.06575  0.6384  0.002839999999999999  1.0000
  C   C47       1.0  0.19612  0.61181  0.026269999999999995  1.0000
  C   C48       1.0  0.8987  0.60884  0.8874899999999999  1.0000
  C   C49       1.0  0.8060600000000001  0.8207699999999998  0.85433  1.0000
  C   C50       1.0  0.73856  0.91072  0.76979  1.0000
  C   C51       1.0  0.8882899999999999  0.77708  0.6452999999999999  1.0000
  C   C52       1.0  0.9520799999999998  0.6870599999999999  0.7299699999999998  1.0000
  C   C53       1.0  0.7769299999999998  0.985  0.60477  1.0000
  C   C54       1.0  0.88648  0.9970299999999999  0.5460699999999999  1.0000
  C   C55       1.0  0.9441499999999999  0.06599  0.59035  1.0000
  C   C56       1.0  0.9437099999999999  0.93158  0.45932  1.0000
  N   N1        1.0  0.8258  0.47948999999999997  0.4794799999999999  1.0000
  N   N2        1.0  0.5594699999999998  0.29701  0.31316999999999995  1.0000
  N   N3        1.0  0.73078  0.10659999999999999  0.18887  1.0000
  N   N4        1.0  0.6960099999999999  0.47747  0.01954  1.0000
  N   N5        1.0  0.14513999999999996  0.2958  0.18879  1.0000
  N   N6        1.0  0.16451999999999997  0.10417999999999997  0.31282  1.0000
  N   N7        1.0  0.17419000000000007  0.5205099999999999  0.52053  1.0000
  N   N8        1.0  0.44052999999999987  0.7029899999999998  0.68684  1.0000
  N   N9        1.0  0.2692100000000001  0.8933999999999997  0.8111299999999998  1.0000
  N   N10       1.0  0.30398000000000003  0.5225399999999999  0.9804599999999998  1.0000
  N   N11       1.0  0.8548500000000001  0.7042  0.81121  1.0000
  N   N12       1.0  0.8354799999999998  0.89581  0.68718  1.0000
