data_image0
_chemical_formula_structural       Cu8H20C36N24O28
_chemical_formula_sum              "Cu8 H20 C36 N24 O28"
_cell_length_a       6.52646
_cell_length_b       14.575940000000001
_cell_length_c       15.745779999999998
_cell_angle_alpha    89.99860999999999
_cell_angle_beta     90.00091999999998
_cell_angle_gamma    90.32124999999999

_space_group_name_H-M_alt    "P 1"
_space_group_IT_number       1

loop_
  _space_group_symop_operation_xyz
  'x, y, z'

loop_
  _atom_site_type_symbol
  _atom_site_label
  _atom_site_symmetry_multiplicity
  _atom_site_fract_x
  _atom_site_fract_y
  _atom_site_fract_z
  _atom_site_occupancy
  Cu  Cu1       1.0  0.7612300000000002  0.59869  0.6263900000000002  1.0000
  Cu  Cu2       1.0  0.011370000000000002  0.74992  0.49958000000000014  1.0000
  Cu  Cu3       1.0  0.7365400000000002  0.40121000000000007  0.12645000000000006  1.0000
  Cu  Cu4       1.0  0.48813000000000006  0.2499  0.9995500000000002  1.0000
  Cu  Cu5       1.0  0.24172000000000002  0.09862  0.8735600000000002  1.0000
  Cu  Cu6       1.0  0.9882400000000001  0.25017000000000006  3.0000000000000004e-05  1.0000
  Cu  Cu7       1.0  0.25921  0.90145  0.37353  1.0000
  Cu  Cu8       1.0  0.5112400000000001  0.7498800000000002  0.4998300000000001  1.0000
  H   H1        1.0  0.12895  0.48459000000000013  0.7491700000000002  1.0000
  H   H2        1.0  0.39195000000000013  0.48386  0.74978  1.0000
  H   H3        1.0  0.7368600000000001  0.5673500000000001  0.8897000000000003  1.0000
  H   H4        1.0  0.7288900000000001  0.73107  0.11743000000000003  1.0000
  H   H5        1.0  0.7339000000000002  0.8624400000000002  0.8714100000000002  1.0000
  H   H6        1.0  0.37159  0.5153800000000001  0.24923  1.0000
  H   H7        1.0  0.10856  0.51623  0.24970000000000006  1.0000
  H   H8        1.0  0.76288  0.4326200000000001  0.3897200000000001  1.0000
  H   H9        1.0  0.7707  0.2688400000000001  0.61743  1.0000
  H   H10       1.0  0.76602  0.13754  0.3714000000000001  1.0000
  H   H11       1.0  0.8770600000000001  0.9847300000000002  0.7513200000000002  1.0000
  H   H12       1.0  0.61411  0.9836900000000002  0.74945  1.0000
  H   H13       1.0  0.26330000000000003  0.06741  0.61039  1.0000
  H   H14       1.0  0.2712  0.2311  0.3826200000000001  1.0000
  H   H15       1.0  0.26615  0.36253000000000013  0.62858  1.0000
  H   H16       1.0  0.62313  0.015190000000000004  0.25126  1.0000
  H   H17       1.0  0.8860900000000002  0.01646  0.24946000000000004  1.0000
  H   H18       1.0  0.23680000000000007  0.9325500000000002  0.11039000000000003  1.0000
  H   H19       1.0  0.22916  0.76883  0.8826100000000002  1.0000
  H   H20       1.0  0.23387  0.63743  0.12857000000000005  1.0000
  C   C1        1.0  0.7342200000000002  0.71441  0.8701400000000002  1.0000
  C   C2        1.0  0.7342600000000001  0.6344900000000002  0.9198500000000002  1.0000
  C   C3        1.0  0.7311700000000002  0.63997  0.00844  1.0000
  C   C4        1.0  0.73004  0.7258700000000002  0.04858000000000001  1.0000
  C   C5        1.0  0.7313200000000001  0.8040900000000002  0.9982  1.0000
  C   C6        1.0  0.73288  0.8001500000000002  0.90947  1.0000
  C   C7        1.0  0.73621  0.70838  0.7744600000000003  1.0000
  C   C8        1.0  0.7315200000000002  0.5543800000000002  0.06016  1.0000
  C   C9        1.0  0.26239000000000007  0.5676700000000002  0.6625900000000002  1.0000
  C   C10       1.0  0.7655800000000003  0.2855400000000001  0.3701700000000001  1.0000
  C   C11       1.0  0.7657600000000002  0.36548  0.41985  1.0000
  C   C12       1.0  0.7687000000000003  0.3600000000000001  0.50844  1.0000
  C   C13       1.0  0.76994  0.2741000000000001  0.54859  1.0000
  C   C14       1.0  0.7685300000000003  0.19586000000000003  0.49825  1.0000
  C   C15       1.0  0.76738  0.19979000000000005  0.4095200000000001  1.0000
  C   C16       1.0  0.76041  0.29146000000000005  0.2744800000000001  1.0000
  C   C17       1.0  0.76776  0.44559  0.5601600000000002  1.0000
  C   C18       1.0  0.23768  0.43230000000000013  0.16263000000000005  1.0000
  C   C19       1.0  0.26607  0.21447000000000005  0.62991  1.0000
  C   C20       1.0  0.2657300000000001  0.13454000000000002  0.58022  1.0000
  C   C21       1.0  0.26831  0.14002  0.4916300000000001  1.0000
  C   C22       1.0  0.26978  0.22591  0.4514700000000001  1.0000
  C   C23       1.0  0.26873  0.3041300000000001  0.50184  1.0000
  C   C24       1.0  0.26718000000000003  0.3002100000000001  0.59057  1.0000
  C   C25       1.0  0.26414000000000004  0.20839000000000002  0.7255700000000003  1.0000
  C   C26       1.0  0.2676700000000001  0.05442  0.43996000000000013  1.0000
  C   C27       1.0  0.7423600000000001  0.06748000000000003  0.8373400000000002  1.0000
  C   C28       1.0  0.23433  0.7854600000000002  0.12988  1.0000
  C   C29       1.0  0.23411000000000004  0.8654100000000002  0.08022  1.0000
  C   C30       1.0  0.23129  0.8599600000000002  0.99163  1.0000
  C   C31       1.0  0.23004000000000005  0.7740700000000003  0.9514500000000002  1.0000
  C   C32       1.0  0.23138000000000006  0.69582  0.00177  1.0000
  C   C33       1.0  0.23259  0.69971  0.09051000000000002  1.0000
  C   C34       1.0  0.23921  0.7914700000000002  0.22558000000000006  1.0000
  C   C35       1.0  0.23235000000000006  0.9455800000000002  0.93995  1.0000
  C   C36       1.0  0.7580800000000002  0.9325400000000001  0.33733000000000013  1.0000
  N   N1        1.0  0.09124000000000003  0.60744  0.62948  1.0000
  N   N2        1.0  0.43275  0.60705  0.6284  1.0000
  N   N3        1.0  0.36123  0.6697600000000001  0.5749100000000003  1.0000
  N   N4        1.0  0.16189  0.6699900000000002  0.5754700000000003  1.0000
  N   N5        1.0  0.26119  0.4961700000000001  0.7167500000000002  1.0000
  N   N6        1.0  0.7319700000000002  0.89465  0.03937  1.0000
  N   N7        1.0  0.40853  0.39246  0.12944  1.0000
  N   N8        1.0  0.06707  0.3930000000000001  0.12852000000000005  1.0000
  N   N9        1.0  0.13848000000000002  0.33026  0.07500000000000002  1.0000
  N   N10       1.0  0.33782  0.3299500000000001  0.07545  1.0000
  N   N11       1.0  0.23938000000000006  0.5038  0.21678000000000006  1.0000
  N   N12       1.0  0.76446  0.10533  0.5394700000000002  1.0000
  N   N13       1.0  0.9119200000000002  0.10779  0.8713000000000002  1.0000
  N   N14       1.0  0.5704500000000001  0.10633000000000002  0.8706700000000003  1.0000
  N   N15       1.0  0.63974  0.16928000000000004  0.9245900000000002  1.0000
  N   N16       1.0  0.83909  0.17007  0.9248400000000002  1.0000
  N   N17       1.0  0.7441300000000001  0.9960500000000002  0.78314  1.0000
  N   N18       1.0  0.26811  0.3946800000000001  0.46065  1.0000
  N   N19       1.0  0.5885100000000001  0.89235  0.37139  1.0000
  N   N20       1.0  0.9299900000000002  0.89359  0.37057  1.0000
  N   N21       1.0  0.8605300000000002  0.8306400000000003  0.42452  1.0000
  N   N22       1.0  0.66118  0.8300200000000002  0.42486  1.0000
  N   N23       1.0  0.75609  0.00394  0.28310000000000013  1.0000
  N   N24       1.0  0.23539000000000004  0.60531  0.9605600000000002  1.0000
  O   O1        1.0  0.75851  0.6251700000000002  0.7462400000000002  1.0000
  O   O2        1.0  0.7368600000000001  0.477  0.02035  1.0000
  O   O3        1.0  0.7584900000000002  0.7137500000000002  0.5485500000000002  1.0000
  O   O4        1.0  0.72773  0.5564400000000003  0.14074000000000006  1.0000
  O   O5        1.0  0.7171200000000001  0.77847  0.72992  1.0000
  O   O6        1.0  0.7271800000000003  0.8979900000000002  0.1183  1.0000
  O   O7        1.0  0.7371700000000001  0.9632200000000002  0.9928000000000002  1.0000
  O   O8        1.0  0.73745  0.3746600000000001  0.24628000000000005  1.0000
  O   O9        1.0  0.75845  0.52291  0.52038  1.0000
  O   O10       1.0  0.7404800000000002  0.28622  0.04876000000000001  1.0000
  O   O11       1.0  0.77496  0.44357000000000013  0.64069  1.0000
  O   O12       1.0  0.77731  0.22126000000000007  0.22996000000000005  1.0000
  O   O13       1.0  0.7672200000000001  0.102  0.6184200000000002  1.0000
  O   O14       1.0  0.7574100000000002  0.03681  0.4928800000000001  1.0000
  O   O15       1.0  0.24187  0.12506  0.75374  1.0000
  O   O16       1.0  0.26241000000000003  0.9770100000000003  0.47976000000000013  1.0000
  O   O17       1.0  0.23526000000000005  0.21399000000000007  0.9506600000000002  1.0000
  O   O18       1.0  0.27135  0.05648000000000001  0.35938  1.0000
  O   O19       1.0  0.28323  0.2785  0.7701900000000003  1.0000
  O   O20       1.0  0.273  0.3979900000000001  0.38172  1.0000
  O   O21       1.0  0.26274  0.46322  0.5071900000000001  1.0000
  O   O22       1.0  0.2619  0.8748200000000002  0.25371  1.0000
  O   O23       1.0  0.24204000000000003  0.02295000000000001  0.9797100000000002  1.0000
  O   O24       1.0  0.26377  0.7859600000000001  0.4506300000000001  1.0000
  O   O25       1.0  0.22515000000000007  0.9435600000000002  0.8594200000000002  1.0000
  O   O26       1.0  0.22253  0.72121  0.27016  1.0000
  O   O27       1.0  0.23253  0.6020000000000002  0.8816100000000002  1.0000
  O   O28       1.0  0.2426000000000001  0.5368100000000002  0.007130000000000002  1.0000
