data_image0
_chemical_formula_structural       Cd2H52C64N8O8
_chemical_formula_sum              "Cd2 H52 C64 N8 O8"
_cell_length_a       10.94379
_cell_length_b       13.214690000000001
_cell_length_c       12.5143
_cell_angle_alpha    76.68159
_cell_angle_beta     60.96843
_cell_angle_gamma    75.79749

_space_group_name_H-M_alt    "P 1"
_space_group_IT_number       1

loop_
  _space_group_symop_operation_xyz
  'x, y, z'

loop_
  _atom_site_type_symbol
  _atom_site_label
  _atom_site_symmetry_multiplicity
  _atom_site_fract_x
  _atom_site_fract_y
  _atom_site_fract_z
  _atom_site_occupancy
  Cd  Cd1       1.0  0.58243  0.47284  0.33037  1.0000
  Cd  Cd2       1.0  0.4175699999999999  0.5271600000000001  0.6696299999999998  1.0000
  H   H1        1.0  0.17242999999999994  0.48236  0.47395  1.0000
  H   H2        1.0  0.28495  0.36138  0.44672999999999996  1.0000
  H   H3        1.0  0.18153  0.20554  0.51609  1.0000
  H   H4        1.0  0.97382  0.11217  0.64173  1.0000
  H   H5        1.0  0.7471699999999998  0.20371000000000003  0.7911799999999999  1.0000
  H   H6        1.0  0.9395899999999999  0.48053  0.6934  1.0000
  H   H7        1.0  0.6379400000000001  0.35297  0.9232599999999999  1.0000
  H   H8        1.0  0.7117299999999999  0.47116  0.86976  1.0000
  H   H9        1.0  0.61495  0.29891  0.57181  1.0000
  H   H10       1.0  0.48059  0.276  0.24758  1.0000
  H   H11       1.0  0.5181699999999998  0.09907  0.18452  1.0000
  H   H12       1.0  0.6262899999999999  0.93883  0.27475  1.0000
  H   H13       1.0  0.6920599999999998  0.9462400000000001  0.4372399999999999  1.0000
  H   H14       1.0  0.63684  0.012600000000000004  0.6432599999999999  1.0000
  H   H15       1.0  0.6705999999999998  0.12481  0.67472  1.0000
  H   H16       1.0  0.91218  0.14536000000000002  0.37600999999999996  1.0000
  H   H17       1.0  0.83243  0.9190700000000002  0.70192  1.0000
  H   H18       1.0  0.73165  0.34844  0.06815  1.0000
  H   H19       1.0  0.8893299999999997  0.39412  0.3669799999999999  1.0000
  H   H20       1.0  0.14136999999999997  0.33229  0.32468  1.0000
  H   H21       1.0  0.3135999999999999  0.24982  0.13801  1.0000
  H   H22       1.0  0.23797000000000007  0.21911  0.98965  1.0000
  H   H23       1.0  0.10137000000000013  0.2481  0.8619499999999998  1.0000
  H   H24       1.0  0.9271499999999995  0.25861  0.8886899999999999  1.0000
  H   H25       1.0  0.8923  0.11275999999999999  0.16804  1.0000
  H   H26       1.0  0.10515999999999999  0.07906  0.78139  1.0000
  H   H27       1.0  0.8275500000000001  0.51763  0.52605  1.0000
  H   H28       1.0  0.7150399999999999  0.6386199999999999  0.55327  1.0000
  H   H29       1.0  0.8184599999999997  0.79446  0.48391  1.0000
  H   H30       1.0  0.026149999999999996  0.88784  0.35827  1.0000
  H   H31       1.0  0.25281  0.7962900000000002  0.20882  1.0000
  H   H32       1.0  0.06038999999999998  0.51947  0.3066  1.0000
  H   H33       1.0  0.36206  0.64703  0.07675999999999998  1.0000
  H   H34       1.0  0.28826  0.52884  0.13025  1.0000
  H   H35       1.0  0.38502999999999993  0.70109  0.42819  1.0000
  H   H36       1.0  0.5193900000000001  0.72401  0.75242  1.0000
  H   H37       1.0  0.4818200000000001  0.90094  0.81548  1.0000
  H   H38       1.0  0.3737  0.06117  0.72525  1.0000
  H   H39       1.0  0.30793000000000004  0.053770000000000005  0.56277  1.0000
  H   H40       1.0  0.36315  0.9874  0.35673999999999995  1.0000
  H   H41       1.0  0.32938999999999996  0.87519  0.32529  1.0000
  H   H42       1.0  0.08781000000000007  0.85464  0.6239899999999999  1.0000
  H   H43       1.0  0.16756  0.08093  0.29809  1.0000
  H   H44       1.0  0.26833999999999997  0.6515700000000001  0.93185  1.0000
  H   H45       1.0  0.11065999999999997  0.60588  0.63303  1.0000
  H   H46       1.0  0.85862  0.66771  0.67532  1.0000
  H   H47       1.0  0.6863899999999998  0.7501899999999999  0.862  1.0000
  H   H48       1.0  0.76202  0.78089  0.01036  1.0000
  H   H49       1.0  0.8986099999999997  0.7519  0.13806  1.0000
  H   H50       1.0  0.07284000000000002  0.74139  0.11132  1.0000
  H   H51       1.0  0.10769000000000001  0.88724  0.83196  1.0000
  H   H52       1.0  0.8948299999999998  0.92095  0.21861999999999995  1.0000
  C   C1        1.0  0.26984  0.43  0.59197  1.0000
  C   C2        1.0  0.20138999999999996  0.40642  0.52065  1.0000
  C   C3        1.0  0.07548000000000002  0.34966  0.59578  1.0000
  C   C4        1.0  0.08301  0.2457  0.58221  1.0000
  C   C5        1.0  0.96525  0.19349999999999998  0.65221  1.0000
  C   C6        1.0  0.8377799999999994  0.24506  0.73566  1.0000
  C   C7        1.0  0.8270500000000001  0.34993  0.75035  1.0000
  C   C8        1.0  0.94659  0.40036  0.6800599999999999  1.0000
  C   C9        1.0  0.6909400000000001  0.40768  0.8408299999999999  1.0000
  C   C10       1.0  0.58419  0.45536  0.78937  1.0000
  C   C11       1.0  0.60682  0.2544  0.51278  1.0000
  C   C12       1.0  0.5671  0.20923000000000005  0.37696999999999997  1.0000
  C   C13       1.0  0.52603  0.20454  0.28808  1.0000
  C   C14       1.0  0.54803  0.10578  0.25374  1.0000
  C   C15       1.0  0.60908  0.013990000000000004  0.30542  1.0000
  C   C16       1.0  0.6482599999999998  0.01729  0.3951299999999999  1.0000
  C   C17       1.0  0.6257099999999997  0.11585000000000002  0.42975  1.0000
  C   C18       1.0  0.69771  0.07871  0.60124  1.0000
  C   C19       1.0  0.9496000000000001  0.08137  0.43053999999999987  1.0000
  C   C20       1.0  0.8539799999999999  0.036750000000000005  0.54436  1.0000
  C   C21       1.0  0.90528  0.95479  0.61304  1.0000
  C   C22       1.0  0.8132899999999997  0.33989  0.09650999999999998  1.0000
  C   C23       1.0  0.9248600000000001  0.34737  0.19779999999999998  1.0000
  C   C24       1.0  0.96582  0.3595900000000001  0.2837  1.0000
  C   C25       1.0  0.10628999999999995  0.32323  0.26002  1.0000
  C   C26       1.0  0.20416  0.27462  0.15429  1.0000
  C   C27       1.0  0.16362  0.25707  0.0709  1.0000
  C   C28       1.0  0.022530000000000005  0.29314  0.09563999999999999  1.0000
  C   C29       1.0  0.9975299999999998  0.22817  0.9322499999999999  1.0000
  C   C30       1.0  0.9405899999999998  0.06402  0.09372999999999998  1.0000
  C   C31       1.0  9.000000000000736e-05  0.11028000000000002  0.97041  1.0000
  C   C32       1.0  0.05916999999999997  0.04449000000000001  0.87756  1.0000
  C   C33       1.0  0.73018  0.57001  0.40800999999999993  1.0000
  C   C34       1.0  0.7985999999999999  0.59359  0.47934999999999994  1.0000
  C   C35       1.0  0.92452  0.65034  0.4042199999999999  1.0000
  C   C36       1.0  0.91697  0.7543  0.4178  1.0000
  C   C37       1.0  0.03473000000000004  0.8065  0.34779999999999994  1.0000
  C   C38       1.0  0.16221  0.7549500000000001  0.26434  1.0000
  C   C39       1.0  0.17294  0.65008  0.24965999999999997  1.0000
  C   C40       1.0  0.05340000000000005  0.5996399999999998  0.31995  1.0000
  C   C41       1.0  0.3090399999999999  0.59233  0.15918  1.0000
  C   C42       1.0  0.41579  0.54465  0.21065  1.0000
  C   C43       1.0  0.39316999999999996  0.7456100000000001  0.48722  1.0000
  C   C44       1.0  0.43287999999999993  0.79078  0.62303  1.0000
  C   C45       1.0  0.47395999999999994  0.7954700000000001  0.71193  1.0000
  C   C46       1.0  0.4519599999999998  0.8942300000000001  0.74627  1.0000
  C   C47       1.0  0.39091000000000004  0.98602  0.6945799999999999  1.0000
  C   C48       1.0  0.35172999999999993  0.9827200000000001  0.60488  1.0000
  C   C49       1.0  0.3742799999999998  0.8841500000000001  0.57026  1.0000
  C   C50       1.0  0.30227999999999977  0.9212900000000002  0.39876  1.0000
  C   C51       1.0  0.050389999999999956  0.91863  0.56946  1.0000
  C   C52       1.0  0.14601000000000006  0.96326  0.4556399999999999  1.0000
  C   C53       1.0  0.09470999999999999  0.045219999999999996  0.38696  1.0000
  C   C54       1.0  0.1867  0.66011  0.9035  1.0000
  C   C55       1.0  0.07513000000000002  0.65263  0.80221  1.0000
  C   C56       1.0  0.034170000000000034  0.64041  0.71631  1.0000
  C   C57       1.0  0.8937  0.67678  0.73998  1.0000
  C   C58       1.0  0.79583  0.72538  0.84571  1.0000
  C   C59       1.0  0.8363699999999998  0.74294  0.9291  1.0000
  C   C60       1.0  0.97745  0.70686  0.9043599999999999  1.0000
  C   C61       1.0  0.002450000000000013  0.77183  0.06775  1.0000
  C   C62       1.0  0.059400000000000015  0.9359800000000001  0.9062699999999999  1.0000
  C   C63       1.0  0.9999  0.88973  0.0296  1.0000
  C   C64       1.0  0.94081  0.95551  0.12245  1.0000
  N   N1        1.0  0.5582200000000002  0.29435999999999996  0.43026  1.0000
  N   N2        1.0  0.64792  0.1471  0.51709  1.0000
  N   N3        1.0  0.79556  0.37756  0.1939  1.0000
  N   N4        1.0  0.94734  0.28841  0.03407  1.0000
  N   N5        1.0  0.44177  0.70565  0.56975  1.0000
  N   N6        1.0  0.3520699999999999  0.8529100000000001  0.48292  1.0000
  N   N7        1.0  0.20442999999999997  0.6224500000000001  0.80611  1.0000
  N   N8        1.0  0.05265  0.7116  0.96594  1.0000
  O   O1        1.0  0.5296399999999999  0.5522699999999999  0.79589  1.0000
  O   O2        1.0  0.3504300000000001  0.50265  0.53327  1.0000
  O   O3        1.0  0.24838000000000002  0.38459  0.6972  1.0000
  O   O4        1.0  0.5534900000000001  0.39555000000000007  0.7414399999999999  1.0000
  O   O5        1.0  0.47035  0.44774  0.20414  1.0000
  O   O6        1.0  0.64956  0.49736  0.46669999999999995  1.0000
  O   O7        1.0  0.7516399999999998  0.61543  0.30279  1.0000
  O   O8        1.0  0.4465  0.60445  0.25857  1.0000
