data_image0
_chemical_formula_structural       Ba4Cd4H32C64O32
_chemical_formula_sum              "Ba4 Cd4 H32 C64 O32"
_cell_length_a       10.18471
_cell_length_b       13.246640000000001
_cell_length_c       17.12008
_cell_angle_alpha    90.0
_cell_angle_beta     90.0
_cell_angle_gamma    112.75704

_space_group_name_H-M_alt    "P 1"
_space_group_IT_number       1

loop_
  _space_group_symop_operation_xyz
  'x, y, z'

loop_
  _atom_site_type_symbol
  _atom_site_label
  _atom_site_symmetry_multiplicity
  _atom_site_fract_x
  _atom_site_fract_y
  _atom_site_fract_z
  _atom_site_occupancy
  Ba  Ba1       1.0  0.5366899999999999  0.7070299999999999  0.71284  1.0000
  Ba  Ba2       1.0  0.03668999999999998  0.20703  0.7871600000000001  1.0000
  Ba  Ba3       1.0  0.46331  0.29297  0.2871600000000001  1.0000
  Ba  Ba4       1.0  0.96331  0.79297  0.21284000000000006  1.0000
  Cd  Cd1       1.0  0.62845  0.59592  0.30096  1.0000
  Cd  Cd2       1.0  0.87155  0.9040899999999998  0.80096  1.0000
  Cd  Cd3       1.0  0.37155999999999995  0.40409  0.6990400000000001  1.0000
  Cd  Cd4       1.0  0.12844  0.09591999999999998  0.19904  1.0000
  H   H1        1.0  0.0011799999999999923  0.68027  0.48160000000000003  1.0000
  H   H2        1.0  0.38751  0.67208  0.08895  1.0000
  H   H3        1.0  0.61249  0.32792  0.9110500000000002  1.0000
  H   H4        1.0  0.31478999999999985  0.8762799999999998  0.04231  1.0000
  H   H5        1.0  0.7407899999999998  0.8811899999999998  0.0391  1.0000
  H   H6        1.0  0.4024199999999999  0.6561699999999999  0.94381  1.0000
  H   H7        1.0  0.74503  0.69364  0.03422  1.0000
  H   H8        1.0  0.6898  0.49527  0.8286600000000002  1.0000
  H   H9        1.0  0.18521  0.62372  0.54231  1.0000
  H   H10       1.0  0.12601  0.57191  0.29118  1.0000
  H   H11       1.0  0.24503  0.19363  0.4657800000000001  1.0000
  H   H12       1.0  0.09757999999999992  0.84383  0.44381  1.0000
  H   H13       1.0  0.9024199999999998  0.15616999999999998  0.55619  1.0000
  H   H14       1.0  0.75921  0.61881  0.5391  1.0000
  H   H15       1.0  0.25497  0.30637  0.9657800000000001  1.0000
  H   H16       1.0  0.8739899999999999  0.42809  0.70883  1.0000
  H   H17       1.0  0.24078999999999992  0.3811899999999999  0.4609  1.0000
  H   H18       1.0  0.1124799999999999  0.82792  0.58895  1.0000
  H   H19       1.0  0.25921  0.11881  0.96091  1.0000
  H   H20       1.0  0.4988199999999999  0.8197299999999997  0.9816  1.0000
  H   H21       1.0  0.99882  0.31973  0.5184  1.0000
  H   H22       1.0  0.68521  0.12371999999999998  0.95769  1.0000
  H   H23       1.0  0.62601  0.07192  0.20882  1.0000
  H   H24       1.0  0.3102  0.50473  0.17134000000000002  1.0000
  H   H25       1.0  0.8875199999999999  0.17207999999999998  0.41105  1.0000
  H   H26       1.0  0.8147899999999999  0.37628  0.45769  1.0000
  H   H27       1.0  0.59758  0.34383  0.05619000000000001  1.0000
  H   H28       1.0  0.18979999999999989  0.99527  0.67135  1.0000
  H   H29       1.0  0.50118  0.18026999999999999  0.0184  1.0000
  H   H30       1.0  0.37399  0.92809  0.79118  1.0000
  H   H31       1.0  0.75496  0.80637  0.53423  1.0000
  H   H32       1.0  0.8102  0.004729999999999999  0.3286600000000001  1.0000
  C   C1        1.0  0.3277699999999999  0.4806199999999999  0.9453900000000001  1.0000
  C   C2        1.0  0.67223  0.51938  0.05461  1.0000
  C   C3        1.0  0.3416099999999999  0.51388  0.33583  1.0000
  C   C4        1.0  0.4762  0.12922  0.96643  1.0000
  C   C5        1.0  0.15837999999999994  0.98612  0.8358300000000002  1.0000
  C   C6        1.0  0.22455999999999998  0.10502999999999997  0.57312  1.0000
  C   C7        1.0  0.59588  0.013979999999999998  0.16062  1.0000
  C   C8        1.0  0.68683  0.50189  0.8919000000000002  1.0000
  C   C9        1.0  0.5424599999999999  0.023969999999999995  0.8696300000000001  1.0000
  C   C10       1.0  0.7184199999999998  0.61337  0.00808  1.0000
  C   C11       1.0  0.4041199999999999  0.98602  0.8393800000000002  1.0000
  C   C12       1.0  0.9575399999999998  0.47603  0.3696300000000001  1.0000
  C   C13       1.0  0.9762  0.62922  0.53357  1.0000
  C   C14       1.0  0.57873  0.09697  0.933  1.0000
  C   C15       1.0  0.17223  0.01938  0.44539  1.0000
  C   C16       1.0  0.18683  0.00189  0.6081  1.0000
  C   C17       1.0  0.28158  0.38662999999999986  0.9919200000000001  1.0000
  C   C18       1.0  0.14831  0.48224  0.66231  1.0000
  C   C19       1.0  0.4212699999999999  0.9030299999999999  0.06701  1.0000
  C   C20       1.0  0.13460999999999992  0.91631  0.48077  1.0000
  C   C21       1.0  0.77544  0.8949699999999998  0.42688  1.0000
  C   C22       1.0  0.31316999999999995  0.49810999999999994  0.1081  1.0000
  C   C23       1.0  0.86539  0.08369  0.51923  1.0000
  C   C24       1.0  0.69619  0.97669  0.12983  1.0000
  C   C25       1.0  0.23381  0.29343  0.12091  1.0000
  C   C26       1.0  0.7815799999999998  0.8866299999999999  0.50808  1.0000
  C   C27       1.0  0.07871999999999987  0.5969699999999999  0.56701  1.0000
  C   C28       1.0  0.5237999999999999  0.8707899999999997  0.03357  1.0000
  C   C29       1.0  0.64314  0.40793  0.93834  1.0000
  C   C30       1.0  0.36538999999999994  0.58369  0.9807700000000001  1.0000
  C   C31       1.0  0.6483  0.9822499999999997  0.83769  1.0000
  C   C32       1.0  0.73381  0.79343  0.37909  1.0000
  C   C33       1.0  0.35685999999999996  0.59207  0.06167  1.0000
  C   C34       1.0  0.7245599999999999  0.60504  0.92688  1.0000
  C   C35       1.0  0.09587999999999997  0.51398  0.33938  1.0000
  C   C36       1.0  0.81317  0.99811  0.3919  1.0000
  C   C37       1.0  0.6604099999999999  0.9058699999999997  0.06523000000000002  1.0000
  C   C38       1.0  0.14313999999999996  0.90793  0.5616700000000002  1.0000
  C   C39       1.0  0.33959  0.09413  0.9347700000000001  1.0000
  C   C40       1.0  0.19619  0.47669  0.37017  1.0000
  C   C41       1.0  0.27543999999999996  0.39497  0.07312  1.0000
  C   C42       1.0  0.92127  0.40303  0.43299  1.0000
  C   C43       1.0  0.82776  0.98062  0.55461  1.0000
  C   C44       1.0  0.4575299999999999  0.9760299999999998  0.13037000000000007  1.0000
  C   C45       1.0  0.30381  0.02331  0.87017  1.0000
  C   C46       1.0  0.8395899999999998  0.59413  0.56523  1.0000
  C   C47       1.0  0.8038099999999999  0.52331  0.62983  1.0000
  C   C48       1.0  0.85686  0.09207  0.43834  1.0000
  C   C49       1.0  0.65608  0.52845  0.1405  1.0000
  C   C50       1.0  0.04245999999999998  0.52397  0.63038  1.0000
  C   C51       1.0  0.90412  0.4860199999999999  0.66063  1.0000
  C   C52       1.0  0.15606999999999996  0.028439999999999997  0.3595000000000001  1.0000
  C   C53       1.0  0.76619  0.70657  0.87909  1.0000
  C   C54       1.0  0.2661899999999999  0.20656999999999998  0.62092  1.0000
  C   C55       1.0  0.16040999999999997  0.4058699999999999  0.43477  1.0000
  C   C56       1.0  0.63461  0.4163099999999999  0.019230000000000004  1.0000
  C   C57       1.0  0.8516899999999998  0.51775  0.33769  1.0000
  C   C58       1.0  0.8439199999999999  0.97155  0.6405  1.0000
  C   C59       1.0  0.65839  0.48612  0.66417  1.0000
  C   C60       1.0  0.8416199999999999  0.01388  0.16417000000000007  1.0000
  C   C61       1.0  0.02379999999999999  0.37078  0.46643  1.0000
  C   C62       1.0  0.34392999999999996  0.47155999999999987  0.8595000000000003  1.0000
  C   C63       1.0  0.21842  0.11337  0.4919200000000001  1.0000
  C   C64       1.0  0.35169  0.017759999999999998  0.16231  1.0000
  O   O1        1.0  0.25355  0.30135  0.19531  1.0000
  O   O2        1.0  0.09192999999999993  0.9425199999999999  0.3199900000000001  1.0000
  O   O3        1.0  0.4173  0.45726999999999995  0.35226  1.0000
  O   O4        1.0  0.29405  0.37502  0.8285  1.0000
  O   O5        1.0  0.8892799999999997  0.09855  0.20664000000000005  1.0000
  O   O6        1.0  0.89717  0.61129  0.30438  1.0000
  O   O7        1.0  0.75355  0.80135  0.30469  1.0000
  O   O8        1.0  0.6028299999999998  0.8887099999999998  0.80438  1.0000
  O   O9        1.0  0.18019999999999994  0.20126999999999998  0.08628  1.0000
  O   O10       1.0  0.9173  0.95728  0.14774  1.0000
  O   O11       1.0  0.6107200000000002  0.40146  0.7066400000000003  1.0000
  O   O12       1.0  0.10283  0.38871999999999995  0.6956300000000001  1.0000
  O   O13       1.0  0.7940299999999998  0.8749999999999998  0.67151  1.0000
  O   O14       1.0  0.24644999999999995  0.19864999999999997  0.6953100000000001  1.0000
  O   O15       1.0  0.70597  0.625  0.17151  1.0000
  O   O16       1.0  0.6801999999999998  0.7012699999999997  0.41372  1.0000
  O   O17       1.0  0.0827  0.04273  0.85226  1.0000
  O   O18       1.0  0.71871  0.45968  0.34711  1.0000
  O   O19       1.0  0.38928  0.59854  0.2933600000000001  1.0000
  O   O20       1.0  0.59193  0.4425299999999999  0.18001  1.0000
  O   O21       1.0  0.11072000000000004  0.90146  0.7933700000000002  1.0000
  O   O22       1.0  0.3198  0.29874  0.58628  1.0000
  O   O23       1.0  0.39717  0.11128  0.19562  1.0000
  O   O24       1.0  0.8197999999999999  0.7987399999999999  0.9137200000000002  1.0000
  O   O25       1.0  0.9080699999999999  0.05746999999999999  0.68001  1.0000
  O   O26       1.0  0.28129  0.54033  0.65289  1.0000
  O   O27       1.0  0.20594999999999997  0.12498  0.32849  1.0000
  O   O28       1.0  0.21871  0.95968  0.15289000000000003  1.0000
  O   O29       1.0  0.78129  0.04032  0.84712  1.0000
  O   O30       1.0  0.74645  0.6986499999999999  0.80469  1.0000
  O   O31       1.0  0.5827  0.54273  0.64774  1.0000
  O   O32       1.0  0.40806  0.55748  0.8199900000000001  1.0000
