data_image0
_chemical_formula_structural       Cd6H20C48N6O24
_chemical_formula_sum              "Cd6 H20 C48 N6 O24"
_cell_length_a       13.58875
_cell_length_b       13.732669999999999
_cell_length_c       13.732789999999998
_cell_angle_alpha    74.82843999999999
_cell_angle_beta     87.45237
_cell_angle_gamma    87.45234

_symmetry_space_group_name_H-M    'P 1'
_symmetry_Int_Tables_number       1

loop_
  _symmetry_equiv_pos_as_xyz
  'x,y,z'

loop_
  _atom_site_type_symbol
  _atom_site_label
  _atom_site_symmetry_multiplicity
  _atom_site_fract_x
  _atom_site_fract_y
  _atom_site_fract_z
  _atom_site_occupancy
  Cd  Cd1       1.0  0.28067  0.60535  0.10915  1.0000
  Cd  Cd2       1.0  0.21933  0.8908500000000001  0.39465  1.0000
  Cd  Cd3       1.0  0.71933  0.3946500000000002  0.89085  1.0000
  Cd  Cd4       1.0  0.78067  0.10914999999999998  0.60535  1.0000
  Cd  Cd5       1.0  0.2500000000000001  0.6266600000000002  0.37334  1.0000
  Cd  Cd6       1.0  0.7500000000000003  0.37333999999999995  0.6266600000000001  1.0000
  H   H1        1.0  0.52628  0.39689000000000013  0.45645  1.0000
  H   H2        1.0  0.72796  0.27353  0.26428  1.0000
  H   H3        1.0  0.50807  0.49907  0.1324  1.0000
  H   H4        1.0  0.25318000000000007  0.84616  0.9214000000000001  1.0000
  H   H5        1.0  0.25104  0.03455  0.85223  1.0000
  H   H6        1.0  0.97371  0.54354  0.60311  1.0000
  H   H7        1.0  0.77203  0.73572  0.7264600000000001  1.0000
  H   H8        1.0  0.99192  0.8676  0.50093  1.0000
  H   H9        1.0  0.24682  0.07859000000000001  0.15383  1.0000
  H   H10       1.0  0.24895  0.14776999999999998  0.96544  1.0000
  H   H11       1.0  0.47371000000000013  0.60311  0.54355  1.0000
  H   H12       1.0  0.2720300000000001  0.7264599999999999  0.7357200000000002  1.0000
  H   H13       1.0  0.49192  0.50093  0.8676  1.0000
  H   H14       1.0  0.7468200000000003  0.15383  0.07859  1.0000
  H   H15       1.0  0.74895  0.9654500000000003  0.14777  1.0000
  H   H16       1.0  0.02628  0.45645000000000013  0.3968900000000001  1.0000
  H   H17       1.0  0.22796  0.26428  0.27353  1.0000
  H   H18       1.0  0.008069999999999997  0.13240000000000005  0.49907  1.0000
  H   H19       1.0  0.7531800000000002  0.9214000000000002  0.8461600000000001  1.0000
  H   H20       1.0  0.75104  0.85223  0.03455  1.0000
  C   C1        1.0  0.4217300000000001  0.52399  0.30604000000000003  1.0000
  C   C2        1.0  0.67696  0.25939  0.46054  1.0000
  C   C3        1.0  0.65851  0.38568  0.08442  1.0000
  C   C4        1.0  0.50767  0.45526  0.29593  1.0000
  C   C5        1.0  0.5528  0.39392  0.3813  1.0000
  C   C6        1.0  0.63175  0.32817000000000013  0.36993  1.0000
  C   C7        1.0  0.66661  0.32454  0.27306  1.0000
  C   C8        1.0  0.6222400000000001  0.38695  0.1879  1.0000
  C   C9        1.0  0.54275  0.4520600000000001  0.19926000000000002  1.0000
  C   C10       1.0  0.25115  0.8587100000000002  0.07632  1.0000
  C   C11       1.0  0.25180000000000013  0.8967800000000001  0.97063  1.0000
  C   C12       1.0  0.25074  0.0017400000000000113  0.93344  1.0000
  C   C13       1.0  0.07827  0.69396  0.47601  1.0000
  C   C14       1.0  0.82303  0.53946  0.74061  1.0000
  C   C15       1.0  0.84148  0.91558  0.61432  1.0000
  C   C16       1.0  0.99232  0.70406  0.54473  1.0000
  C   C17       1.0  0.9471900000000002  0.61869  0.60607  1.0000
  C   C18       1.0  0.8682500000000002  0.6300700000000004  0.67183  1.0000
  C   C19       1.0  0.83338  0.72694  0.67545  1.0000
  C   C20       1.0  0.8777500000000003  0.8121  0.61305  1.0000
  C   C21       1.0  0.95724  0.8007400000000002  0.54794  1.0000
  C   C22       1.0  0.24884999999999996  0.9236800000000002  0.14129  1.0000
  C   C23       1.0  0.24819000000000005  0.029370000000000004  0.10322  1.0000
  C   C24       1.0  0.24926000000000004  0.06655000000000001  0.99826  1.0000
  C   C25       1.0  0.57827  0.47600999999999993  0.69396  1.0000
  C   C26       1.0  0.32303  0.7406100000000001  0.53946  1.0000
  C   C27       1.0  0.34148000000000006  0.61432  0.91558  1.0000
  C   C28       1.0  0.49232000000000004  0.54473  0.70406  1.0000
  C   C29       1.0  0.4471900000000001  0.6060699999999999  0.6186900000000001  1.0000
  C   C30       1.0  0.36825  0.6718300000000003  0.6300699999999999  1.0000
  C   C31       1.0  0.33338  0.6754500000000001  0.72694  1.0000
  C   C32       1.0  0.37775000000000003  0.61305  0.8121  1.0000
  C   C33       1.0  0.45724  0.54794  0.80074  1.0000
  C   C34       1.0  0.74885  0.14129000000000003  0.92368  1.0000
  C   C35       1.0  0.74819  0.10322000000000003  0.02937  1.0000
  C   C36       1.0  0.74925  0.9982600000000001  0.06655  1.0000
  C   C37       1.0  0.92173  0.30604  0.52399  1.0000
  C   C38       1.0  0.17696000000000003  0.46054000000000006  0.25939  1.0000
  C   C39       1.0  0.15851  0.08442000000000002  0.38567999999999997  1.0000
  C   C40       1.0  0.007669999999999998  0.29593  0.45526  1.0000
  C   C41       1.0  0.05279999999999998  0.3813  0.39392  1.0000
  C   C42       1.0  0.13175000000000006  0.36993  0.32817  1.0000
  C   C43       1.0  0.16661  0.27306  0.32454  1.0000
  C   C44       1.0  0.12224  0.18789  0.38695  1.0000
  C   C45       1.0  0.04276  0.19926000000000002  0.45206  1.0000
  C   C46       1.0  0.7511500000000001  0.07632  0.8587  1.0000
  C   C47       1.0  0.7518  0.9706300000000001  0.8967800000000001  1.0000
  C   C48       1.0  0.75074  0.9334400000000003  0.00174  1.0000
  N   N1        1.0  0.25212  0.7619800000000001  0.13677  1.0000
  N   N2        1.0  0.24788  0.8632300000000003  0.23802  1.0000
  N   N3        1.0  0.74788  0.23802000000000004  0.86322  1.0000
  N   N4        1.0  0.75212  0.13677  0.76198  1.0000
  N   N5        1.0  0.24999999999999992  0.7677699999999998  0.23223000000000002  1.0000
  N   N6        1.0  0.7500000000000002  0.23223000000000002  0.76777  1.0000
  O   O1        1.0  0.39821999999999996  0.5948500000000002  0.22917  1.0000
  O   O2        1.0  0.3755400000000001  0.50961  0.39162  1.0000
  O   O3        1.0  0.65906  0.2745900000000001  0.54792  1.0000
  O   O4        1.0  0.73129  0.18491  0.44809  1.0000
  O   O5        1.0  0.72975  0.32583000000000006  0.07117  1.0000
  O   O6        1.0  0.61785  0.44621  0.00837  1.0000
  O   O7        1.0  0.10177000000000005  0.77082  0.40515  1.0000
  O   O8        1.0  0.12446000000000002  0.60837  0.49039  1.0000
  O   O9        1.0  0.84094  0.45207  0.7254  1.0000
  O   O10       1.0  0.7687  0.5519100000000002  0.81509  1.0000
  O   O11       1.0  0.77024  0.9288300000000003  0.67417  1.0000
  O   O12       1.0  0.88214  0.99163  0.55379  1.0000
  O   O13       1.0  0.60177  0.40515  0.77082  1.0000
  O   O14       1.0  0.62446  0.49039000000000005  0.6083699999999999  1.0000
  O   O15       1.0  0.3409400000000001  0.7254000000000003  0.45207  1.0000
  O   O16       1.0  0.2687  0.81509  0.55191  1.0000
  O   O17       1.0  0.27024  0.6741700000000002  0.92883  1.0000
  O   O18       1.0  0.3821399999999999  0.55378  0.99163  1.0000
  O   O19       1.0  0.89822  0.22917000000000007  0.59485  1.0000
  O   O20       1.0  0.87554  0.39162  0.50961  1.0000
  O   O21       1.0  0.15906000000000003  0.54793  0.27459  1.0000
  O   O22       1.0  0.23129000000000005  0.44809  0.18491000000000002  1.0000
  O   O23       1.0  0.22975  0.07117  0.32583  1.0000
  O   O24       1.0  0.11785  0.008360000000000006  0.44621  1.0000
