data_image0
_chemical_formula_structural       Na6EuH24C40S8N8ClO36
_chemical_formula_sum              "Na6 Eu1 H24 C40 S8 N8 Cl1 O36"
_cell_length_a       12.48441
_cell_length_b       12.47752
_cell_length_c       12.437409999999998
_cell_angle_alpha    90.04409999999999
_cell_angle_beta     90.01797
_cell_angle_gamma    90.40322999999998

_space_group_name_H-M_alt    "P 1"
_space_group_IT_number       1

loop_
  _space_group_symop_operation_xyz
  'x, y, z'

loop_
  _atom_site_type_symbol
  _atom_site_label
  _atom_site_symmetry_multiplicity
  _atom_site_fract_x
  _atom_site_fract_y
  _atom_site_fract_z
  _atom_site_occupancy
  Na  Na1       1.0  0.52392  0.29619  0.49747  1.0000
  Na  Na2       1.0  0.47603  0.709  0.49219  1.0000
  Na  Na3       1.0  0.29622  0.46556  0.50788  1.0000
  Na  Na4       1.0  0.69854  0.52924  0.5078599999999999  1.0000
  Na  Na5       1.0  3.000000000000007e-05  0.50791  0.48148  1.0000
  Na  Na6       1.0  0.49212  9.999999999999992e-06  0.53952  1.0000
  Eu  Eu1       1.0  0.99965  0.999  0.99749  1.0000
  H   H1        1.0  0.89494  0.27202  0.88866  1.0000
  H   H2        1.0  0.88555  0.3555  0.70282  1.0000
  H   H3        1.0  0.76136  0.05223  0.58681  1.0000
  H   H4        1.0  0.60142  0.99123  0.7276  1.0000
  H   H5        1.0  0.65695  0.66472  0.8285999999999998  1.0000
  H   H6        1.0  0.8470499999999999  0.72294  0.87555  1.0000
  H   H7        1.0  0.10878  0.72349  0.8860299999999999  1.0000
  H   H8        1.0  0.12101000000000003  0.64307  0.69899  1.0000
  H   H9        1.0  0.23748999999999998  0.95173  0.5888  1.0000
  H   H10       1.0  0.39775  0.00911  0.73231  1.0000
  H   H11       1.0  0.3391  0.33677  0.82713  1.0000
  H   H12       1.0  0.1495  0.27767  0.8744999999999998  1.0000
  H   H13       1.0  0.27204  0.10345  0.11189  1.0000
  H   H14       1.0  0.35248  0.10787  0.2996599999999999  1.0000
  H   H15       1.0  0.05088999999999999  0.23244  0.41294  1.0000
  H   H16       1.0  0.9917300000000001  0.39404  0.2798399999999999  1.0000
  H   H17       1.0  0.6674699999999999  0.34093  0.16935  1.0000
  H   H18       1.0  0.72453  0.1527  0.11703  1.0000
  H   H19       1.0  0.72606  0.8963  0.11171  1.0000
  H   H20       1.0  0.6459  0.8921599999999998  0.29954  1.0000
  H   H21       1.0  0.94884  0.76977  0.41231999999999996  1.0000
  H   H22       1.0  0.00703  0.6062  0.2774  1.0000
  H   H23       1.0  0.33228  0.66021  0.17028  1.0000
  H   H24       1.0  0.27514  0.84834  0.11803999999999999  1.0000
  C   C1        1.0  0.86666  0.22992  0.81772  1.0000
  C   C2        1.0  0.86015  0.27303  0.7160899999999999  1.0000
  C   C3        1.0  0.8216  0.20935  0.6317499999999999  1.0000
  C   C4        1.0  0.79131  0.10358  0.65127  1.0000
  C   C5        1.0  0.79866  0.06232  0.7551099999999998  1.0000
  C   C6        1.0  0.75742  0.95451  0.78188  1.0000
  C   C7        1.0  0.65173  0.92767  0.75883  1.0000
  C   C8        1.0  0.61391  0.82329  0.7739  1.0000
  C   C9        1.0  0.6836  0.74708  0.81656  1.0000
  C   C10       1.0  0.78774  0.77621  0.8415399999999998  1.0000
  C   C11       1.0  0.13624  0.76745  0.8159399999999998  1.0000
  C   C12       1.0  0.14403  0.7261299999999999  0.7135699999999998  1.0000
  C   C13       1.0  0.18099000000000004  0.79214  0.63042  1.0000
  C   C14       1.0  0.20865  0.89824  0.65196  1.0000
  C   C15       1.0  0.2006  0.9374399999999998  0.75658  1.0000
  C   C16       1.0  0.24096  0.0454  0.78445  1.0000
  C   C17       1.0  0.34657  0.07264  0.7620099999999997  1.0000
  C   C18       1.0  0.38364  0.17749  0.77533  1.0000
  C   C19       1.0  0.31331  0.25396  0.81637  1.0000
  C   C20       1.0  0.20931999999999998  0.22431  0.8415599999999999  1.0000
  C   C21       1.0  0.22923  0.13057  0.18264999999999995  1.0000
  C   C22       1.0  0.271  0.13457  0.28521  1.0000
  C   C23       1.0  0.20743  0.17199  0.36965  1.0000
  C   C24       1.0  0.10259000000000001  0.20338  0.3488  1.0000
  C   C25       1.0  0.06237  0.1981  0.24444  1.0000
  C   C26       1.0  0.95535  0.23979999999999996  0.21788999999999994  1.0000
  C   C27       1.0  0.92902  0.34439999999999993  0.24473999999999999  1.0000
  C   C28       1.0  0.82551  0.38241  0.22904999999999995  1.0000
  C   C29       1.0  0.74925  0.31425  0.18236  1.0000
  C   C30       1.0  0.77772  0.21095  0.15429999999999996  1.0000
  C   C31       1.0  0.7688500000000001  0.86943  0.18254999999999993  1.0000
  C   C32       1.0  0.7273900000000001  0.86557  0.2851  1.0000
  C   C33       1.0  0.79156  0.82847  0.36921  1.0000
  C   C34       1.0  0.89657  0.7978099999999999  0.34821  1.0000
  C   C35       1.0  0.93645  0.8025599999999999  0.24365999999999993  1.0000
  C   C36       1.0  0.0437  0.76086  0.21706  1.0000
  C   C37       1.0  0.07008  0.6561399999999998  0.24343  1.0000
  C   C38       1.0  0.17386  0.61834  0.22856  1.0000
  C   C39       1.0  0.25035  0.6867099999999999  0.1828  1.0000
  C   C40       1.0  0.22185  0.78999  0.15487  1.0000
  S   S1        1.0  0.80958  0.26866  0.50192  1.0000
  S   S2        1.0  0.47947999999999996  0.78553  0.73732  1.0000
  S   S3        1.0  0.19274000000000002  0.73569  0.49931  1.0000
  S   S4        1.0  0.51808  0.21339  0.73754  1.0000
  S   S5        1.0  0.264  0.18383  0.5014  1.0000
  S   S6        1.0  0.79156  0.5165  0.26771  1.0000
  S   S7        1.0  0.73474  0.81602  0.50056  1.0000
  S   S8        1.0  0.20784  0.4843  0.26737  1.0000
  N   N1        1.0  0.83549  0.12669  0.8367799999999997  1.0000
  N   N2        1.0  0.82507  0.8777999999999999  0.8226999999999998  1.0000
  N   N3        1.0  0.16486  0.87109  0.83694  1.0000
  N   N4        1.0  0.17273  0.12224  0.8239499999999998  1.0000
  N   N5        1.0  0.12678  0.16249  0.1627  1.0000
  N   N6        1.0  0.8785  0.17312  0.17394999999999997  1.0000
  N   N7        1.0  0.87119  0.83751  0.16224  1.0000
  N   N8        1.0  0.12092  0.82764  0.17397  1.0000
  Cl  Cl1       1.0  0.49682  0.50201  0.48763  1.0000
  O   O1        1.0  0.84014  0.09018  0.9357  1.0000
  O   O2        1.0  0.92605  0.89995  0.8409  1.0000
  O   O3        1.0  0.91391  0.32312  0.4856  1.0000
  O   O4        1.0  0.78808  0.18016  0.42443999999999993  1.0000
  O   O5        1.0  0.71885  0.3438  0.51316  1.0000
  O   O6        1.0  0.45507  0.8526999999999999  0.64011  1.0000
  O   O7        1.0  0.48593  0.67148  0.70952  1.0000
  O   O8        1.0  0.4131699999999999  0.81467  0.8303199999999997  1.0000
  O   O9        1.0  0.13702  0.45560999999999996  0.60442  1.0000
  O   O10       1.0  0.15906  0.9056499999999998  0.93649  1.0000
  O   O11       1.0  0.07174  0.09958  0.8415899999999997  1.0000
  O   O12       1.0  0.08613  0.68688  0.4803299999999999  1.0000
  O   O13       1.0  0.21696  0.82561  0.42405  1.0000
  O   O14       1.0  0.2803  0.65682  0.50796  1.0000
  O   O15       1.0  0.54031  0.14415  0.6410499999999999  1.0000
  O   O16       1.0  0.51361  0.32747  0.70884  1.0000
  O   O17       1.0  0.58439  0.18489  0.8306  1.0000
  O   O18       1.0  0.86222  0.58269  0.5924899999999999  1.0000
  O   O19       1.0  0.09058  0.15925  0.06345  1.0000
  O   O20       1.0  0.89984  0.07267  0.15394  1.0000
  O   O21       1.0  0.32789000000000007  0.08484999999999998  0.5134199999999999  1.0000
  O   O22       1.0  0.1747  0.19562  0.57656  1.0000
  O   O23       1.0  0.33424000000000004  0.28064  0.4922399999999999  1.0000
  O   O24       1.0  0.86164  0.5405  0.36336  1.0000
  O   O25       1.0  0.6776499999999999  0.51323  0.29631  1.0000
  O   O26       1.0  0.82073  0.58303  0.17457999999999999  1.0000
  O   O27       1.0  0.39703  0.86718  0.41726999999999986  1.0000
  O   O28       1.0  0.90579  0.84048  0.06261  1.0000
  O   O29       1.0  0.09977  0.92811  0.15399999999999997  1.0000
  O   O30       1.0  0.67152  0.9152399999999999  0.51384  1.0000
  O   O31       1.0  0.82462  0.80384  0.57622  1.0000
  O   O32       1.0  0.6649900000000001  0.71917  0.4919599999999999  1.0000
  O   O33       1.0  0.13789  0.46024999999999994  0.36281  1.0000
  O   O34       1.0  0.32197  0.48696  0.29564  1.0000
  O   O35       1.0  0.17917  0.4172  0.17432  1.0000
  O   O36       1.0  0.60338  0.13797  0.40811999999999987  1.0000
