data_image0
_chemical_formula_structural       Zn4H36C68O16
_chemical_formula_sum              "Zn4 H36 C68 O16"
_cell_length_a       9.59339
_cell_length_b       19.518569999999997
_cell_length_c       19.51868
_cell_angle_alpha    67.79997
_cell_angle_beta     75.88637
_cell_angle_gamma    75.88629

_space_group_name_H-M_alt    "P 1"
_space_group_IT_number       1

loop_
  _space_group_symop_operation_xyz
  'x, y, z'

loop_
  _atom_site_type_symbol
  _atom_site_label
  _atom_site_symmetry_multiplicity
  _atom_site_fract_x
  _atom_site_fract_y
  _atom_site_fract_z
  _atom_site_occupancy
  Zn  Zn1       1.0  0.61549  0.51198  0.51198  1.0000
  Zn  Zn2       1.0  0.1401200000000001  0.9879499999999999  0.98795  1.0000
  Zn  Zn3       1.0  0.85987  0.01205  0.01205  1.0000
  Zn  Zn4       1.0  0.3845100000000001  0.4880199999999999  0.48802  1.0000
  H   H1        1.0  0.8934400000000001  0.5531  0.29187  1.0000
  H   H2        1.0  0.02122000000000007  0.5510999999999999  0.16472999999999996  1.0000
  H   H3        1.0  0.6473400000000001  0.48804999999999993  0.13402  1.0000
  H   H4        1.0  0.5197  0.4914299999999999  0.26096  1.0000
  H   H5        1.0  0.2389  0.94694  0.2088  1.0000
  H   H6        1.0  0.23633000000000018  0.9490999999999999  0.33601  1.0000
  H   H7        1.0  0.76928  0.011499999999999996  0.36546  1.0000
  H   H8        1.0  0.77325  0.008170000000000002  0.2383  1.0000
  H   H9        1.0  0.7610999999999999  0.79121  0.05307  1.0000
  H   H10       1.0  0.76367  0.66399  0.0509  1.0000
  H   H11       1.0  0.23071999999999993  0.63454  0.9885000000000002  1.0000
  H   H12       1.0  0.22675000000000003  0.7617  0.99183  1.0000
  H   H13       1.0  0.10656000000000004  0.7081399999999999  0.4469  1.0000
  H   H14       1.0  0.9787700000000003  0.8352799999999997  0.4489  1.0000
  H   H15       1.0  0.35266  0.8659799999999999  0.51195  1.0000
  H   H16       1.0  0.4802900000000001  0.7390399999999999  0.50857  1.0000
  H   H17       1.0  0.10656000000000004  0.4469099999999999  0.70813  1.0000
  H   H18       1.0  0.97877  0.4489100000000001  0.83527  1.0000
  H   H19       1.0  0.3526599999999999  0.5119500000000001  0.86597  1.0000
  H   H20       1.0  0.4802900000000001  0.50857  0.73904  1.0000
  H   H21       1.0  0.7610999999999999  0.05307000000000001  0.7912  1.0000
  H   H22       1.0  0.7636699999999998  0.05089999999999998  0.66399  1.0000
  H   H23       1.0  0.23072000000000006  0.98851  0.63454  1.0000
  H   H24       1.0  0.22675000000000012  0.9918299999999999  0.7617  1.0000
  H   H25       1.0  0.2389000000000002  0.2088  0.94693  1.0000
  H   H26       1.0  0.23632999999999998  0.33602  0.9491  1.0000
  H   H27       1.0  0.7692800000000001  0.36546  0.0115  1.0000
  H   H28       1.0  0.77325  0.2383  0.00817  1.0000
  H   H29       1.0  0.8934400000000001  0.29187  0.55309  1.0000
  H   H30       1.0  0.021220000000000024  0.16472999999999996  0.5511  1.0000
  H   H31       1.0  0.6473400000000001  0.13402999999999998  0.48805  1.0000
  H   H32       1.0  0.5197100000000001  0.26096  0.4914299999999999  1.0000
  H   H33       1.0  0.8668300000000002  0.40320999999999996  0.09650999999999998  1.0000
  H   H34       1.0  0.86683  0.09652000000000002  0.40321  1.0000
  H   H35       1.0  0.13317000000000004  0.59679  0.9034799999999998  1.0000
  H   H36       1.0  0.13317000000000004  0.9034899999999999  0.59679  1.0000
  C   C1        1.0  0.6251100000000004  0.52177  0.36105999999999994  1.0000
  C   C2        1.0  0.6988499999999999  0.52267  0.28405  1.0000
  C   C3        1.0  0.84043  0.53955  0.25645  1.0000
  C   C4        1.0  0.9116300000000002  0.53791  0.18571  1.0000
  C   C5        1.0  0.8434600000000001  0.51855  0.14092  1.0000
  C   C6        1.0  0.70141  0.502  0.16882  1.0000
  C   C7        1.0  0.6294900000000001  0.5041699999999999  0.23937  1.0000
  C   C8        1.0  0.9209200000000001  0.51222  0.0674  1.0000
  C   C9        1.0  0.007470000000000088  0.9783299999999999  0.13891  1.0000
  C   C10       1.0  0.0060300000000000084  0.9769499999999999  0.21601  1.0000
  C   C11       1.0  0.1366700000000001  0.9601799999999999  0.24391000000000002  1.0000
  C   C12       1.0  0.13485000000000003  0.9618299999999999  0.3148  1.0000
  C   C13       1.0  0.002560000000000028  0.98094  0.35935  1.0000
  C   C14       1.0  0.8721699999999999  0.9974  0.33112  1.0000
  C   C15       1.0  0.8736399999999999  0.9952799999999999  0.26043  1.0000
  C   C16       1.0  0.00016000000000011169  0.9874799999999998  0.4328  1.0000
  C   C17       1.0  0.9925200000000002  0.86109  0.02168  1.0000
  C   C18       1.0  0.9939700000000001  0.78399  0.02305  1.0000
  C   C19       1.0  0.8633300000000002  0.75609  0.03983  1.0000
  C   C20       1.0  0.86515  0.6851999999999999  0.03818  1.0000
  C   C21       1.0  0.9974400000000001  0.64065  0.01906  1.0000
  C   C22       1.0  0.12781999999999996  0.66888  0.00261  1.0000
  C   C23       1.0  0.12635  0.73957  0.004719999999999999  1.0000
  C   C24       1.0  0.9998300000000002  0.5672  0.01252  1.0000
  C   C25       1.0  0.37488999999999995  0.63894  0.47822999999999993  1.0000
  C   C26       1.0  0.30115000000000014  0.7159599999999998  0.47733  1.0000
  C   C27       1.0  0.15957000000000005  0.7435499999999999  0.46046000000000004  1.0000
  C   C28       1.0  0.08836999999999998  0.8143  0.4621  1.0000
  C   C29       1.0  0.15653000000000006  0.8590899999999999  0.48145  1.0000
  C   C30       1.0  0.29859  0.83119  0.49801  1.0000
  C   C31       1.0  0.3705000000000001  0.7606399999999999  0.49583  1.0000
  C   C32       1.0  0.07906999999999999  0.93261  0.48778  1.0000
  C   C33       1.0  0.37489000000000006  0.47823  0.63894  1.0000
  C   C34       1.0  0.3011499999999999  0.4773299999999998  0.71595  1.0000
  C   C35       1.0  0.15957000000000002  0.46046  0.74355  1.0000
  C   C36       1.0  0.08837000000000006  0.4621  0.81429  1.0000
  C   C37       1.0  0.15652999999999997  0.48144999999999993  0.85908  1.0000
  C   C38       1.0  0.2985900000000001  0.49801  0.83118  1.0000
  C   C39       1.0  0.3705  0.49584  0.76063  1.0000
  C   C40       1.0  0.07908000000000007  0.48779000000000006  0.9325999999999999  1.0000
  C   C41       1.0  0.99253  0.02168000000000004  0.86109  1.0000
  C   C42       1.0  0.9939700000000001  0.023060000000000025  0.7839899999999999  1.0000
  C   C43       1.0  0.8633300000000002  0.03982999999999999  0.75608  1.0000
  C   C44       1.0  0.86515  0.03818000000000001  0.6852  1.0000
  C   C45       1.0  0.9974400000000001  0.019070000000000004  0.64065  1.0000
  C   C46       1.0  0.12782  0.002609999999999988  0.66888  1.0000
  C   C47       1.0  0.12635000000000002  0.004719999999999993  0.73957  1.0000
  C   C48       1.0  0.99984  0.012520000000000014  0.5672  1.0000
  C   C49       1.0  0.007469999999999926  0.13890999999999998  0.9783200000000001  1.0000
  C   C50       1.0  0.006029999999999986  0.21601999999999996  0.9769400000000001  1.0000
  C   C51       1.0  0.13667000000000012  0.24392  0.9601699999999999  1.0000
  C   C52       1.0  0.13485000000000005  0.3147999999999999  0.9618199999999999  1.0000
  C   C53       1.0  0.0025600000000000514  0.35935000000000006  0.9809299999999999  1.0000
  C   C54       1.0  0.8721699999999999  0.33111999999999997  0.99739  1.0000
  C   C55       1.0  0.87365  0.26043999999999995  0.9952800000000002  1.0000
  C   C56       1.0  0.00015999999999997283  0.4328099999999999  0.98748  1.0000
  C   C57       1.0  0.6251100000000004  0.36107  0.52177  1.0000
  C   C58       1.0  0.6988500000000001  0.2840499999999999  0.52267  1.0000
  C   C59       1.0  0.84043  0.25645  0.53954  1.0000
  C   C60       1.0  0.9116300000000002  0.1857099999999999  0.5379  1.0000
  C   C61       1.0  0.8434700000000002  0.14092  0.51855  1.0000
  C   C62       1.0  0.70141  0.16881999999999997  0.50199  1.0000
  C   C63       1.0  0.6295  0.23937  0.50417  1.0000
  C   C64       1.0  0.9209200000000001  0.06740000000000002  0.51222  1.0000
  C   C65       1.0  0.92243  0.4468  0.05305  1.0000
  C   C66       1.0  0.92243  0.05305000000000001  0.4468  1.0000
  C   C67       1.0  0.07755999999999989  0.5532100000000001  0.94695  1.0000
  C   C68       1.0  0.07756000000000003  0.94695  0.5532  1.0000
  O   O1        1.0  0.7002399999999999  0.53095  0.40209  1.0000
  O   O2        1.0  0.4926300000000002  0.5105  0.3812  1.0000
  O   O3        1.0  0.13221000000000002  0.96906  0.09783  1.0000
  O   O4        1.0  0.8834900000000001  0.98995  0.11889999999999999  1.0000
  O   O5        1.0  0.86778  0.90217  0.03094  1.0000
  O   O6        1.0  0.11650000000000002  0.88111  0.01006  1.0000
  O   O7        1.0  0.2997600000000002  0.5979199999999999  0.46904999999999997  1.0000
  O   O8        1.0  0.5073599999999999  0.6188  0.48950000000000005  1.0000
  O   O9        1.0  0.29976  0.46906  0.59791  1.0000
  O   O10       1.0  0.5073599999999999  0.4895  0.6188  1.0000
  O   O11       1.0  0.86778  0.03094999999999997  0.9021700000000001  1.0000
  O   O12       1.0  0.11651000000000009  0.010060000000000029  0.8811  1.0000
  O   O13       1.0  0.13221999999999995  0.09784000000000004  0.9690499999999999  1.0000
  O   O14       1.0  0.8834900000000001  0.11890000000000003  0.9899399999999999  1.0000
  O   O15       1.0  0.70024  0.40209  0.53095  1.0000
  O   O16       1.0  0.4926300000000002  0.38119999999999993  0.5105  1.0000
