data_image0
_chemical_formula_structural       Zn8H22C32N26O12
_chemical_formula_sum              "Zn8 H22 C32 N26 O12"
_cell_length_a       13.84012
_cell_length_b       13.84283
_cell_length_c       14.17084
_cell_angle_alpha    87.57052999999999
_cell_angle_beta     87.59818
_cell_angle_gamma    57.95478000000001

_symmetry_space_group_name_H-M    'P 1'
_symmetry_Int_Tables_number       1

loop_
  _symmetry_equiv_pos_as_xyz
  'x,y,z'

loop_
  _atom_site_type_symbol
  _atom_site_label
  _atom_site_symmetry_multiplicity
  _atom_site_fract_x
  _atom_site_fract_y
  _atom_site_fract_z
  _atom_site_occupancy
  Zn  Zn1       1.0  0.14657999999999993  0.48736000000000007  0.98738  1.0000
  Zn  Zn2       1.0  0.9802  0.42861  0.607  1.0000
  Zn  Zn3       1.0  0.51262  0.85343  0.51267  1.0000
  Zn  Zn4       1.0  0.57138  0.019749999999999997  0.8930000000000001  1.0000
  Zn  Zn5       1.0  0.85342  0.51264  0.01262  1.0000
  Zn  Zn6       1.0  0.019800000000000026  0.57139  0.393  1.0000
  Zn  Zn7       1.0  0.48738999999999993  0.14657  0.48733  1.0000
  Zn  Zn8       1.0  0.42861999999999995  0.9802500000000001  0.107  1.0000
  H   H1        1.0  0.16608999999999996  0.42621  0.7580500000000002  1.0000
  H   H2        1.0  0.81853  0.53876  0.78548  1.0000
  H   H3        1.0  0.70554  0.58536  0.60575  1.0000
  H   H4        1.0  0.75479  0.78465  0.3990900000000001  1.0000
  H   H5        1.0  0.06573  0.09890000000000003  0.6862  1.0000
  H   H6        1.0  0.57377  0.83399  0.7421500000000001  1.0000
  H   H7        1.0  0.46124  0.18148  0.71429  1.0000
  H   H8        1.0  0.41449  0.29456  0.89432  1.0000
  H   H9        1.0  0.21543999999999994  0.24504000000000006  0.10097  1.0000
  H   H10       1.0  0.90107  0.93425  0.81381  1.0000
  H   H11       1.0  0.83392  0.57379  0.24195000000000003  1.0000
  H   H12       1.0  0.18147999999999997  0.46123  0.21452  1.0000
  H   H13       1.0  0.29447  0.41463  0.39425  1.0000
  H   H14       1.0  0.24522000000000002  0.21535000000000004  0.60091  1.0000
  H   H15       1.0  0.93427  0.90109  0.3138  1.0000
  H   H16       1.0  0.42624  0.16601  0.25785  1.0000
  H   H17       1.0  0.53877  0.81851  0.2857  1.0000
  H   H18       1.0  0.5855099999999999  0.7054300000000001  0.10568  1.0000
  H   H19       1.0  0.78457  0.7549600000000001  0.8990200000000003  1.0000
  H   H20       1.0  0.09894  0.06574  0.18619  1.0000
  H   H21       1.0  0.7045700000000001  0.29546  0.7499800000000001  1.0000
  H   H22       1.0  0.29544  0.70453  0.25001  1.0000
  C   C1        1.0  0.08121999999999992  0.4569100000000001  0.78709  1.0000
  C   C2        1.0  0.9036900000000001  0.51757  0.8009900000000002  1.0000
  C   C3        1.0  0.7426600000000001  0.61763  0.55438  1.0000
  C   C4        1.0  0.76872  0.71718  0.44911  1.0000
  C   C5        1.0  0.88466  0.20887  0.71471  1.0000
  C   C6        1.0  0.9889500000000002  0.10429  0.7141700000000001  1.0000
  C   C7        1.0  0.88194  0.31393  0.67889  1.0000
  C   C8        1.0  0.54307  0.91882  0.713  1.0000
  C   C9        1.0  0.48242999999999997  0.09631000000000003  0.69891  1.0000
  C   C10       1.0  0.38233  0.25734  0.9456700000000002  1.0000
  C   C11       1.0  0.28286  0.23121  0.05095  1.0000
  C   C12       1.0  0.79111  0.11536  0.7852700000000002  1.0000
  C   C13       1.0  0.89568  0.011060000000000004  0.78583  1.0000
  C   C14       1.0  0.68604  0.11813000000000003  0.8211000000000003  1.0000
  C   C15       1.0  0.91878  0.54309  0.21291  1.0000
  C   C16       1.0  0.09630999999999997  0.48243  0.19901000000000005  1.0000
  C   C17       1.0  0.25734  0.38237  0.44562  1.0000
  C   C18       1.0  0.23129000000000002  0.28282  0.55089  1.0000
  C   C19       1.0  0.11534000000000003  0.79112  0.28529  1.0000
  C   C20       1.0  0.011050000000000022  0.8957  0.28583  1.0000
  C   C21       1.0  0.11806999999999998  0.68607  0.32111  1.0000
  C   C22       1.0  0.45693  0.08118  0.287  1.0000
  C   C23       1.0  0.51757  0.90369  0.30109  1.0000
  C   C24       1.0  0.6176800000000001  0.74266  0.054320000000000014  1.0000
  C   C25       1.0  0.71715  0.76879  0.9490500000000002  1.0000
  C   C26       1.0  0.20889000000000005  0.88463  0.21473  1.0000
  C   C27       1.0  0.10433000000000002  0.98894  0.21417  1.0000
  C   C28       1.0  0.3139700000000001  0.88187  0.1789  1.0000
  C   C29       1.0  0.7857  0.21433  0.7499800000000001  1.0000
  C   C30       1.0  0.99288  0.007080000000000004  0.75001  1.0000
  C   C31       1.0  0.21430999999999994  0.78567  0.25001  1.0000
  C   C32       1.0  0.007119999999999997  0.99291  0.24999  1.0000
  N   N1        1.0  0.05358999999999999  0.47655  0.87892  1.0000
  N   N2        1.0  0.9390500000000002  0.5163  0.88774  1.0000
  N   N3        1.0  0.9898800000000003  0.48117000000000004  0.73589  1.0000
  N   N4        1.0  0.8542699999999994  0.56024  0.53326  1.0000
  N   N5        1.0  0.87104  0.62422  0.46522  1.0000
  N   N6        1.0  0.6861  0.71641  0.50331  1.0000
  N   N7        1.0  0.52349  0.94638  0.62113  1.0000
  N   N8        1.0  0.48375  0.0609  0.61219  1.0000
  N   N9        1.0  0.51878  0.010179999999999998  0.7641100000000001  1.0000
  N   N10       1.0  0.4397399999999999  0.14572  0.96675  1.0000
  N   N11       1.0  0.3758  0.12892  0.03479  1.0000
  N   N12       1.0  0.28359000000000006  0.31385  0.99676  1.0000
  N   N13       1.0  0.94642  0.52345  0.12108  1.0000
  N   N14       1.0  0.06095999999999998  0.4837  0.11225  1.0000
  N   N15       1.0  0.010130000000000054  0.51883  0.26411  1.0000
  N   N16       1.0  0.14574000000000004  0.43975  0.4667400000000001  1.0000
  N   N17       1.0  0.12895999999999996  0.37578  0.53478  1.0000
  N   N18       1.0  0.31389999999999996  0.28358  0.49669  1.0000
  N   N19       1.0  0.47652  0.05362  0.37887  1.0000
  N   N20       1.0  0.51625  0.9391  0.38781  1.0000
  N   N21       1.0  0.48122999999999994  0.9898100000000001  0.23589  1.0000
  N   N22       1.0  0.5602699999999999  0.85428  0.03325  1.0000
  N   N23       1.0  0.62421  0.87108  0.9652100000000002  1.0000
  N   N24       1.0  0.71642  0.68614  0.00324  1.0000
  N   N25       1.0  0.10256000000000005  0.89741  0.75001  1.0000
  N   N26       1.0  0.89744  0.10259  0.24999  1.0000
  O   O1        1.0  0.9750700000000001  0.29295999999999994  0.6331300000000001  1.0000
  O   O2        1.0  0.79776  0.41147  0.69442  1.0000
  O   O3        1.0  0.10112999999999998  0.80974  0.7712000000000001  1.0000
  O   O4        1.0  0.7070200000000002  0.025  0.86687  1.0000
  O   O5        1.0  0.58846  0.20234  0.8055500000000002  1.0000
  O   O6        1.0  0.19022000000000006  0.89883  0.7288  1.0000
  O   O7        1.0  0.02494  0.7070400000000001  0.36686  1.0000
  O   O8        1.0  0.20224  0.58853  0.30558  1.0000
  O   O9        1.0  0.89887  0.19025000000000003  0.22880000000000003  1.0000
  O   O10       1.0  0.2929899999999999  0.9750000000000001  0.13313  1.0000
  O   O11       1.0  0.41153999999999996  0.79765  0.19445  1.0000
  O   O12       1.0  0.80978  0.10116  0.27119  1.0000
