data_image0
_chemical_formula_structural       MnH60C60N6O6
_chemical_formula_sum              "Mn1 H60 C60 N6 O6"
_cell_length_a       11.49009
_cell_length_b       11.31258
_cell_length_c       11.73439
_cell_angle_alpha    93.90571000000001
_cell_angle_beta     94.03850999999999
_cell_angle_gamma    114.27954

_symmetry_space_group_name_H-M    'P 1'
_symmetry_Int_Tables_number       1

loop_
  _symmetry_equiv_pos_as_xyz
  'x,y,z'

loop_
  _atom_site_type_symbol
  _atom_site_label
  _atom_site_symmetry_multiplicity
  _atom_site_fract_x
  _atom_site_fract_y
  _atom_site_fract_z
  _atom_site_occupancy
  Mn  Mn1       1.0  0.50008  0.9999600000000001  0.4996699999999999  1.0000
  H   H1        1.0  0.3849  0.20315  0.46623999999999993  1.0000
  H   H2        1.0  0.18853  0.30422  0.1875  1.0000
  H   H3        1.0  0.18142999999999995  0.10830999999999998  0.06706999999999999  1.0000
  H   H4        1.0  0.30587  0.46663  0.36724  1.0000
  H   H5        1.0  0.36343000000000003  0.41067000000000004  0.48723  1.0000
  H   H6        1.0  0.19599  0.357  0.4494199999999999  1.0000
  H   H7        1.0  0.18778  0.90882  0.06118  1.0000
  H   H8        1.0  0.26394000000000006  0.8641400000000001  0.17765  1.0000
  H   H9        1.0  0.35466999999999993  0.10696999999999998  0.9561099999999998  1.0000
  H   H10       1.0  0.45729  0.84966  0.15222999999999998  1.0000
  H   H11       1.0  0.55548  0.72021  0.34394  1.0000
  H   H12       1.0  0.24345  0.50269  0.07802  1.0000
  H   H13       1.0  0.10139999999999999  0.57241  0.19122  1.0000
  H   H14       1.0  0.53776  0.63169  0.06587999999999998  1.0000
  H   H15       1.0  0.45504999999999995  0.46852000000000005  0.09638  1.0000
  H   H16       1.0  0.58693  0.5797400000000001  0.19251  1.0000
  H   H17       1.0  0.10076000000000002  0.74863  0.32297  1.0000
  H   H18       1.0  0.21770999999999993  0.80647  0.44405  1.0000
  H   H19       1.0  0.23465999999999992  0.61392  0.5582  1.0000
  H   H20       1.0  0.9004299999999998  0.57532  0.343  1.0000
  H   H21       1.0  0.41383000000000003  0.8113100000000001  0.6907699999999999  1.0000
  H   H22       1.0  0.10339999999999995  0.68833  0.9058299999999999  1.0000
  H   H23       1.0  0.04456000000000007  0.86407  0.8376299999999999  1.0000
  H   H24       1.0  0.23375  0.5401  0.82553  1.0000
  H   H25       1.0  0.32871  0.65363  0.94305  1.0000
  H   H26       1.0  0.3966899999999999  0.6446699999999999  0.81279  1.0000
  H   H27       1.0  0.25997999999999993  0.12751  0.7061  1.0000
  H   H28       1.0  0.12456  0.06825999999999997  0.7851499999999998  1.0000
  H   H29       1.0  0.10853000000000003  0.22005  0.60737  1.0000
  H   H30       1.0  0.03378000000000004  0.8132900000000001  0.57075  1.0000
  H   H31       1.0  0.61425  0.79702  0.5343  1.0000
  H   H32       1.0  0.81282  0.69668  0.81185  1.0000
  H   H33       1.0  0.82042  0.89279  0.9323399999999997  1.0000
  H   H34       1.0  0.6927399999999999  0.53342  0.6328099999999999  1.0000
  H   H35       1.0  0.63646  0.5902  0.51265  1.0000
  H   H36       1.0  0.80365  0.6426900000000001  0.5511  1.0000
  H   H37       1.0  0.81232  0.09128999999999998  0.9393099999999998  1.0000
  H   H38       1.0  0.73658  0.13634  0.8228099999999999  1.0000
  H   H39       1.0  0.6453000000000001  0.89288  0.04378  1.0000
  H   H40       1.0  0.54272  0.15023  0.8477599999999998  1.0000
  H   H41       1.0  0.44440999999999997  0.28068  0.65617  1.0000
  H   H42       1.0  0.7564399999999999  0.49741  0.9221999999999999  1.0000
  H   H43       1.0  0.8981799999999999  0.42724000000000006  0.80882  1.0000
  H   H44       1.0  0.46197  0.3682099999999999  0.9340799999999998  1.0000
  H   H45       1.0  0.54512  0.5316  0.9044199999999998  1.0000
  H   H46       1.0  0.41333000000000003  0.42123000000000005  0.80792  1.0000
  H   H47       1.0  0.8987399999999998  0.25151  0.67708  1.0000
  H   H48       1.0  0.78172  0.19343  0.55603  1.0000
  H   H49       1.0  0.76467  0.38599000000000006  0.44164  1.0000
  H   H50       1.0  0.09892000000000001  0.4246400000000001  0.65686  1.0000
  H   H51       1.0  0.58575  0.18803  0.30870999999999993  1.0000
  H   H52       1.0  0.89704  0.31223  0.09438999999999999  1.0000
  H   H53       1.0  0.95591  0.13636  0.16247  1.0000
  H   H54       1.0  0.76631  0.45958  0.17441  1.0000
  H   H55       1.0  0.67101  0.3463  0.05677999999999999  1.0000
  H   H56       1.0  0.60334  0.35533  0.18716  1.0000
  H   H57       1.0  0.74048  0.87243  0.29313  1.0000
  H   H58       1.0  0.8764  0.93261  0.21483  1.0000
  H   H59       1.0  0.89114  0.7799300000000001  0.39276999999999995  1.0000
  H   H60       1.0  0.96604  0.18674  0.42939  1.0000
  C   C1        1.0  0.33586  0.07685  0.31129  1.0000
  C   C2        1.0  0.33783  0.186  0.3793799999999999  1.0000
  C   C3        1.0  0.2859099999999999  0.26836  0.33825  1.0000
  C   C4        1.0  0.22847  0.24080000000000001  0.22290999999999997  1.0000
  C   C5        1.0  0.22420999999999996  0.13439000000000004  0.15580999999999998  1.0000
  C   C6        1.0  0.28846  0.38162  0.4144399999999999  1.0000
  C   C7        1.0  0.27364000000000005  0.94205  0.12341999999999997  1.0000
  C   C8        1.0  0.39196  0.97397  0.06079999999999999  1.0000
  C   C9        1.0  0.41846  0.060129999999999975  0.9760399999999998  1.0000
  C   C10       1.0  0.47508  0.91438  0.08469999999999998  1.0000
  C   C11       1.0  0.37748  0.72778  0.36893999999999993  1.0000
  C   C12       1.0  0.45698999999999995  0.68793  0.30582  1.0000
  C   C13       1.0  0.41301  0.60789  0.20047999999999994  1.0000
  C   C14       1.0  0.28281  0.56657  0.15786999999999998  1.0000
  C   C15       1.0  0.20314  0.60509  0.21766  1.0000
  C   C16       1.0  0.50254  0.57001  0.13586  1.0000
  C   C17       1.0  0.15992  0.72061  0.38343999999999995  1.0000
  C   C18       1.0  0.07636999999999998  0.60788  0.4447499999999999  1.0000
  C   C19       1.0  0.13178000000000004  0.56403  0.53308  1.0000
  C   C20       1.0  0.94396  0.54242  0.41225999999999996  1.0000
  C   C21       1.0  0.29864  0.91919  0.687  1.0000
  C   C22       1.0  0.33349  0.8210300000000001  0.72695  1.0000
  C   C23       1.0  0.26809000000000005  0.7400300000000001  0.80651  1.0000
  C   C24       1.0  0.15996000000000002  0.75306  0.84665  1.0000
  C   C25       1.0  0.12698999999999996  0.84938  0.81169  1.0000
  C   C26       1.0  0.30937  0.63934  0.8487699999999999  1.0000
  C   C27       1.0  0.16824  0.0441  0.71173  1.0000
  C   C28       1.0  0.08083999999999998  0.018939999999999988  0.6018099999999998  1.0000
  C   C29       1.0  0.060490000000000016  0.12307000000000001  0.56076  1.0000
  C   C30       1.0  0.019280000000000023  0.8954400000000001  0.5403899999999999  1.0000
  C   C31       1.0  0.66426  0.92342  0.68897  1.0000
  C   C32       1.0  0.6617100000000001  0.8139300000000002  0.6209599999999998  1.0000
  C   C33       1.0  0.7139799999999997  0.73186  0.66185  1.0000
  C   C34       1.0  0.7723299999999998  0.75983  0.7768399999999998  1.0000
  C   C35       1.0  0.7766999999999998  0.86634  0.84396  1.0000
  C   C36       1.0  0.71104  0.61857  0.58565  1.0000
  C   C37       1.0  0.7266199999999999  0.05822999999999999  0.8768999999999999  1.0000
  C   C38       1.0  0.60819  0.02617000000000002  0.93936  1.0000
  C   C39       1.0  0.58157  0.93985  0.023979999999999994  1.0000
  C   C40       1.0  0.52499  0.08561999999999997  0.9153499999999998  1.0000
  C   C41       1.0  0.62237  0.2729  0.6310299999999999  1.0000
  C   C42       1.0  0.54284  0.31281  0.6942499999999999  1.0000
  C   C43       1.0  0.58697  0.39257  0.79972  1.0000
  C   C44       1.0  0.717  0.43368  0.84229  1.0000
  C   C45       1.0  0.79653  0.39492  0.7823899999999998  1.0000
  C   C46       1.0  0.4975  0.43035  0.86448  1.0000
  C   C47       1.0  0.8395599999999999  0.27939  0.6165  1.0000
  C   C48       1.0  0.923  0.39200000000000007  0.55505  1.0000
  C   C49       1.0  0.86756  0.43587  0.46674  1.0000
  C   C50       1.0  0.055400000000000074  0.4575000000000001  0.58757  1.0000
  C   C51       1.0  0.70169  0.0809  0.31301  1.0000
  C   C52       1.0  0.66644  0.17875  0.27279  1.0000
  C   C53       1.0  0.7318699999999999  0.25978  0.19329  1.0000
  C   C54       1.0  0.84022  0.24716  0.15321999999999997  1.0000
  C   C55       1.0  0.8732899999999999  0.15083  0.18823  1.0000
  C   C56       1.0  0.69053  0.36047  0.15107  1.0000
  C   C57       1.0  0.83214  0.95615  0.28808999999999996  1.0000
  C   C58       1.0  0.91904  0.9810900000000001  0.39826999999999996  1.0000
  C   C59       1.0  0.9392600000000001  0.8769300000000001  0.43937  1.0000
  C   C60       1.0  0.9805199999999998  0.10456999999999998  0.4597399999999999  1.0000
  N   N1        1.0  0.27581999999999995  0.05306  0.19799999999999998  1.0000
  N   N2        1.0  0.24962  0.68796  0.31955  1.0000
  N   N3        1.0  0.19798  0.93471  0.73864  1.0000
  N   N4        1.0  0.7243600000000001  0.9472200000000001  0.8021299999999999  1.0000
  N   N5        1.0  0.74998  0.31234  0.68044  1.0000
  N   N6        1.0  0.8022599999999999  0.06549  0.26119  1.0000
  O   O1        1.0  0.38363  0.99945  0.34314  1.0000
  O   O2        1.0  0.41135999999999995  0.79488  0.46775  1.0000
  O   O3        1.0  0.34908  0.99382  0.61144  1.0000
  O   O4        1.0  0.6167299999999999  0.000819999999999997  0.65679  1.0000
  O   O5        1.0  0.5883799999999999  0.20609  0.53218  1.0000
  O   O6        1.0  0.65144  0.0063300000000000006  0.38864  1.0000
