data_image0
_chemical_formula_structural       Ag8H32C32N48
_chemical_formula_sum              "Ag8 H32 C32 N48"
_cell_length_a       13.1578
_cell_length_b       9.56896
_cell_length_c       16.94864
_cell_angle_alpha    103.34793
_cell_angle_beta     89.99504
_cell_angle_gamma    90.14053

_space_group_name_H-M_alt    "P 1"
_space_group_IT_number       1

loop_
  _space_group_symop_operation_xyz
  'x, y, z'

loop_
  _atom_site_type_symbol
  _atom_site_label
  _atom_site_symmetry_multiplicity
  _atom_site_fract_x
  _atom_site_fract_y
  _atom_site_fract_z
  _atom_site_occupancy
  Ag  Ag1       1.0  0.34305  0.89368  0.06328000000000003  1.0000
  Ag  Ag2       1.0  0.54449  0.7899000000000002  0.89386  1.0000
  Ag  Ag3       1.0  0.84255  0.60506  0.43659  1.0000
  Ag  Ag4       1.0  0.044489999999999995  0.71336  0.6067  1.0000
  Ag  Ag5       1.0  0.65722  0.10669999999999998  0.93735  1.0000
  Ag  Ag6       1.0  0.45539  0.21186  0.10726  1.0000
  Ag  Ag7       1.0  0.15589999999999998  0.39504  0.56393  1.0000
  Ag  Ag8       1.0  0.9547  0.28602000000000005  0.3921600000000001  1.0000
  H   H1        1.0  0.50732  0.87627  0.24494  1.0000
  H   H2        1.0  0.74328  0.78457  0.0692  1.0000
  H   H3        1.0  0.6702199999999999  0.59852  0.25876  1.0000
  H   H4        1.0  0.80366  0.9989800000000001  0.25182  1.0000
  H   H5        1.0  0.41636999999999996  0.5639400000000002  0.5689700000000002  1.0000
  H   H6        1.0  0.24164  0.9346100000000002  0.5898800000000002  1.0000
  H   H7        1.0  0.15878  0.88269  0.9197000000000002  1.0000
  H   H8        1.0  0.3877299999999999  0.7956400000000002  0.7433700000000002  1.0000
  H   H9        1.0  0.00856  0.61928  0.25537  1.0000
  H   H10       1.0  0.2434  0.71502  0.4314500000000001  1.0000
  H   H11       1.0  0.17019  0.89879  0.24109  1.0000
  H   H12       1.0  0.30352  0.49956000000000006  0.24832  1.0000
  H   H13       1.0  0.9178599999999998  0.93787  0.92956  1.0000
  H   H14       1.0  0.7415  0.56792  0.91083  1.0000
  H   H15       1.0  0.6594799999999998  0.6191200000000001  0.5796100000000002  1.0000
  H   H16       1.0  0.88822  0.70593  0.75651  1.0000
  H   H17       1.0  0.49172  0.12584000000000006  0.7549300000000001  1.0000
  H   H18       1.0  0.25728  0.21517999999999995  0.93174  1.0000
  H   H19       1.0  0.32979  0.4002700000000002  0.7410100000000002  1.0000
  H   H20       1.0  0.19544  0.0011400000000000249  0.74961  1.0000
  H   H21       1.0  0.58231  0.4351900000000001  0.43004  1.0000
  H   H22       1.0  0.75681  0.06496  0.41097  1.0000
  H   H23       1.0  0.84047  0.12026000000000003  0.08046000000000003  1.0000
  H   H24       1.0  0.61413  0.20566  0.2583  1.0000
  H   H25       1.0  0.9924  0.37993000000000005  0.7448600000000001  1.0000
  H   H26       1.0  0.75614  0.28538  0.56889  1.0000
  H   H27       1.0  0.8308999999999999  0.10187  0.7599  1.0000
  H   H28       1.0  0.69604  0.50087  0.75209  1.0000
  H   H29       1.0  0.08164  0.06276000000000002  0.07167000000000003  1.0000
  H   H30       1.0  0.25665  0.43252  0.08974000000000003  1.0000
  H   H31       1.0  0.34043  0.37809  0.4205600000000001  1.0000
  H   H32       1.0  0.11337999999999998  0.29241  0.24308000000000002  1.0000
  C   C1        1.0  0.54617  0.8593799999999999  0.18716  1.0000
  C   C2        1.0  0.66892  0.81137  0.09618000000000003  1.0000
  C   C3        1.0  0.7220999999999999  0.68905  0.27169  1.0000
  C   C4        1.0  0.79399  0.8960400000000001  0.26813  1.0000
  C   C5        1.0  0.35419  0.6392800000000001  0.5765  1.0000
  C   C6        1.0  0.26763  0.8267599999999999  0.58746  1.0000
  C   C7        1.0  0.23088  0.8556700000000002  0.88915  1.0000
  C   C8        1.0  0.34574999999999995  0.8115300000000001  0.7999200000000002  1.0000
  C   C9        1.0  0.04681  0.6373200000000002  0.3133700000000001  1.0000
  C   C10       1.0  0.16902999999999999  0.6869000000000002  0.40459  1.0000
  C   C11       1.0  0.22184999999999996  0.80818  0.22779  1.0000
  C   C12       1.0  0.29411  0.60242  0.23193  1.0000
  C   C13       1.0  0.85526  0.86264  0.92297  1.0000
  C   C14       1.0  0.76774  0.6754100000000002  0.9124100000000003  1.0000
  C   C15       1.0  0.7316299999999999  0.64561  0.6105400000000002  1.0000
  C   C16       1.0  0.84631  0.6901700000000001  0.69983  1.0000
  C   C17       1.0  0.45365999999999995  0.14141  0.8129  1.0000
  C   C18       1.0  0.33161999999999997  0.18825999999999998  0.90441  1.0000
  C   C19       1.0  0.27784  0.30975000000000014  0.7282600000000002  1.0000
  C   C20       1.0  0.2055  0.10355999999999996  0.73274  1.0000
  C   C21       1.0  0.64476  0.36016  0.42331  1.0000
  C   C22       1.0  0.73113  0.17278  0.41315  1.0000
  C   C23       1.0  0.7683  0.14538  0.11106  1.0000
  C   C24       1.0  0.65469  0.18904000000000004  0.20104000000000005  1.0000
  C   C25       1.0  0.95332  0.36168  0.68702  1.0000
  C   C26       1.0  0.83049  0.31271  0.5960300000000002  1.0000
  C   C27       1.0  0.77877  0.19184  0.77228  1.0000
  C   C28       1.0  0.7061  0.39793  0.76833  1.0000
  C   C29       1.0  0.14482  0.13687  0.07778  1.0000
  C   C30       1.0  0.23171999999999998  0.32405  0.08735  1.0000
  C   C31       1.0  0.26805  0.35458  0.39018  1.0000
  C   C32       1.0  0.1543  0.31067  0.30003  1.0000
  N   N1        1.0  0.7997  0.7096699999999999  0.3219  1.0000
  N   N2        1.0  0.84588  0.83958  0.31922  1.0000
  N   N3        1.0  0.7149  0.80482  0.23658000000000004  1.0000
  N   N4        1.0  0.6473  0.82251  0.17712  1.0000
  N   N5        1.0  0.58597  0.83845  0.05938  1.0000
  N   N6        1.0  0.50894  0.86812  0.11650000000000003  1.0000
  N   N7        1.0  0.25915  0.60151  0.59185  1.0000
  N   N8        1.0  0.20346  0.7244999999999999  0.59919  1.0000
  N   N9        1.0  0.3641  0.7790500000000002  0.5735  1.0000
  N   N10       1.0  0.24636  0.84651  0.80906  1.0000
  N   N11       1.0  0.31422  0.82855  0.92834  1.0000
  N   N12       1.0  0.38911  0.7997600000000001  0.8698700000000003  1.0000
  N   N13       1.0  0.29864  0.7874  0.17693  1.0000
  N   N14       1.0  0.34531  0.6580900000000001  0.18007  1.0000
  N   N15       1.0  0.21542  0.6935300000000001  0.2639100000000001  1.0000
  N   N16       1.0  0.14782  0.67516  0.32353  1.0000
  N   N17       1.0  0.08621  0.6590199999999999  0.44124  1.0000
  N   N18       1.0  0.00927  0.62826  0.3839500000000001  1.0000
  N   N19       1.0  0.7601699999999998  0.90072  0.9083400000000003  1.0000
  N   N20       1.0  0.70394  0.7778600000000001  0.90108  1.0000
  N   N21       1.0  0.8644899999999999  0.7229300000000001  0.9257800000000003  1.0000
  N   N22       1.0  0.74716  0.6534800000000001  0.6904600000000002  1.0000
  N   N23       1.0  0.81469  0.67458  0.57156  1.0000
  N   N24       1.0  0.88941  0.70386  0.63017  1.0000
  N   N25       1.0  0.20073  0.2885300000000001  0.6777600000000003  1.0000
  N   N26       1.0  0.15428  0.15908000000000005  0.6808400000000001  1.0000
  N   N27       1.0  0.28446  0.19506000000000007  0.76427  1.0000
  N   N28       1.0  0.35246  0.17759000000000003  0.82357  1.0000
  N   N29       1.0  0.41493  0.16156  0.9409  1.0000
  N   N30       1.0  0.49165  0.13267  0.88347  1.0000
  N   N31       1.0  0.7400999999999999  0.39777  0.4087  1.0000
  N   N32       1.0  0.7956699999999999  0.27477000000000007  0.40167  1.0000
  N   N33       1.0  0.6347799999999999  0.22063000000000002  0.42643  1.0000
  N   N34       1.0  0.75381  0.15349000000000002  0.19109  1.0000
  N   N35       1.0  0.68449  0.17276  0.07246  1.0000
  N   N36       1.0  0.61037  0.20144  0.13154000000000005  1.0000
  N   N37       1.0  0.70179  0.21250999999999998  0.82308  1.0000
  N   N38       1.0  0.65517  0.34186  0.82017  1.0000
  N   N39       1.0  0.78496  0.30702  0.73651  1.0000
  N   N40       1.0  0.8521699999999999  0.32487  0.67705  1.0000
  N   N41       1.0  0.91362  0.3392800000000002  0.5591500000000001  1.0000
  N   N42       1.0  0.9906599999999998  0.36937  0.61628  1.0000
  N   N43       1.0  0.24009  0.09929000000000002  0.09202  1.0000
  N   N44       1.0  0.29613  0.22226000000000004  0.09852  1.0000
  N   N45       1.0  0.13517  0.27627  0.07462  1.0000
  N   N46       1.0  0.25341  0.34763  0.31019  1.0000
  N   N47       1.0  0.18436  0.3253700000000001  0.4285600000000001  1.0000
  N   N48       1.0  0.11024999999999997  0.29650000000000004  0.3694400000000001  1.0000
