data_image0
_chemical_formula_structural       Mg4H32C52N4O20
_chemical_formula_sum              "Mg4 H32 C52 N4 O20"
_cell_length_a       12.19672
_cell_length_b       12.46963
_cell_length_c       12.46953
_cell_angle_alpha    94.63183
_cell_angle_beta     112.26398
_cell_angle_gamma    112.26427999999999

_symmetry_space_group_name_H-M    'P 1'
_symmetry_Int_Tables_number       1

loop_
  _symmetry_equiv_pos_as_xyz
  'x,y,z'

loop_
  _atom_site_type_symbol
  _atom_site_label
  _atom_site_symmetry_multiplicity
  _atom_site_fract_x
  _atom_site_fract_y
  _atom_site_fract_z
  _atom_site_occupancy
  Mg  Mg1       1.0  0.74999  0.69571  0.30421  1.0000
  Mg  Mg2       1.0  0.25001  0.30429  0.69579  1.0000
  Mg  Mg3       1.0  0.5  0.5  0.0  1.0000
  Mg  Mg4       1.0  0.0  0.0  0.5  1.0000
  H   H1        1.0  0.59794  0.93116  0.8934500000000002  1.0000
  H   H2        1.0  0.64607  0.76374  0.96142  1.0000
  H   H3        1.0  0.4434100000000001  0.93523  0.15442000000000003  1.0000
  H   H4        1.0  0.02118000000000005  0.58621  0.33524000000000004  1.0000
  H   H5        1.0  0.7500500000000001  0.15131  0.27314000000000005  1.0000
  H   H6        1.0  0.65299  0.27044  0.14819  1.0000
  H   H7        1.0  0.12120999999999996  0.4664099999999999  0.45642  1.0000
  H   H8        1.0  0.50605  0.7721799999999999  0.21471  1.0000
  H   H9        1.0  0.9020800000000001  0.10655  0.06889  1.0000
  H   H10       1.0  0.85388  0.038520000000000006  0.23625  1.0000
  H   H11       1.0  0.05660999999999993  0.8455899999999997  0.06479  1.0000
  H   H12       1.0  0.47875  0.66471  0.41382  1.0000
  H   H13       1.0  0.7499200000000003  0.72681  0.8487100000000002  1.0000
  H   H14       1.0  0.8469700000000001  0.85179  0.7296000000000001  1.0000
  H   H15       1.0  0.37875000000000003  0.54355  0.53363  1.0000
  H   H16       1.0  0.99389  0.78523  0.22777000000000003  1.0000
  H   H17       1.0  0.40206  0.06884  0.10655000000000003  1.0000
  H   H18       1.0  0.35393  0.23626  0.03858  1.0000
  H   H19       1.0  0.5565900000000004  0.06477000000000005  0.8455800000000002  1.0000
  H   H20       1.0  0.9788200000000005  0.41379  0.66476  1.0000
  H   H21       1.0  0.24996  0.84869  0.72686  1.0000
  H   H22       1.0  0.34702000000000016  0.72956  0.8518100000000001  1.0000
  H   H23       1.0  0.8788000000000002  0.53359  0.54358  1.0000
  H   H24       1.0  0.49395999999999995  0.22781999999999997  0.78529  1.0000
  H   H25       1.0  0.09793000000000003  0.89346  0.9311100000000001  1.0000
  H   H26       1.0  0.14613000000000015  0.96148  0.7637500000000003  1.0000
  H   H27       1.0  0.9434000000000001  0.15441  0.93521  1.0000
  H   H28       1.0  0.52126  0.33529  0.5861800000000001  1.0000
  H   H29       1.0  0.25009  0.2732  0.15129  1.0000
  H   H30       1.0  0.15303000000000003  0.14821000000000004  0.27040000000000003  1.0000
  H   H31       1.0  0.6212600000000001  0.45646000000000003  0.4663700000000001  1.0000
  H   H32       1.0  0.006120000000000006  0.21477  0.77223  1.0000
  C   C1        1.0  0.5755600000000002  0.90143  0.9654900000000001  1.0000
  C   C2        1.0  0.60528  0.80998  0.0012500000000000002  1.0000
  C   C3        1.0  0.001650000000000041  0.23446000000000003  0.4500400000000001  1.0000
  C   C4        1.0  0.51672  0.95157  0.01884  1.0000
  C   C5        1.0  0.94233  0.30167999999999995  0.37043  1.0000
  C   C6        1.0  0.76632  0.50653  0.16827000000000003  1.0000
  C   C7        1.0  0.83154  0.4342800000000001  0.23254000000000005  1.0000
  C   C8        1.0  0.4898600000000001  0.9029  0.10916000000000002  1.0000
  C   C9        1.0  0.7557999999999998  0.31131  0.21418000000000004  1.0000
  C   C10       1.0  0.52103  0.81175  0.14388000000000004  1.0000
  C   C11       1.0  0.8100200000000001  0.24547  0.28301000000000004  1.0000
  C   C12       1.0  0.019309999999999942  0.4243  0.38711  1.0000
  C   C13       1.0  0.96405  0.49025  0.31956  1.0000
  C   C14       1.0  0.9244200000000001  0.03448  0.09858  1.0000
  C   C15       1.0  0.89465  0.99868  0.18999000000000002  1.0000
  C   C16       1.0  0.4982400000000001  0.54997  0.7655200000000002  1.0000
  C   C17       1.0  0.9832700000000001  0.9811499999999997  0.04843  1.0000
  C   C18       1.0  0.5576099999999999  0.6295699999999997  0.69834  1.0000
  C   C19       1.0  0.73351  0.83156  0.4933500000000001  1.0000
  C   C20       1.0  0.66839  0.76745  0.56574  1.0000
  C   C21       1.0  0.010120000000000004  0.89083  0.09709  1.0000
  C   C22       1.0  0.74415  0.78582  0.68872  1.0000
  C   C23       1.0  0.9789  0.8560599999999999  0.18821  1.0000
  C   C24       1.0  0.6899400000000001  0.7169600000000002  0.7545600000000002  1.0000
  C   C25       1.0  0.48063000000000006  0.61287  0.57573  1.0000
  C   C26       1.0  0.5358900000000001  0.6804300000000001  0.5097900000000001  1.0000
  C   C27       1.0  0.42444  0.09857999999999999  0.03451  1.0000
  C   C28       1.0  0.39473000000000014  0.19002000000000002  0.9987500000000001  1.0000
  C   C29       1.0  0.99836  0.7655399999999999  0.54996  1.0000
  C   C30       1.0  0.48328  0.04843  0.98116  1.0000
  C   C31       1.0  0.05767000000000002  0.69833  0.62957  1.0000
  C   C32       1.0  0.23369000000000012  0.49348  0.83173  1.0000
  C   C33       1.0  0.1684700000000001  0.56572  0.7674600000000003  1.0000
  C   C34       1.0  0.5101400000000001  0.09711000000000002  0.8908400000000001  1.0000
  C   C35       1.0  0.24419999999999994  0.6886899999999999  0.78582  1.0000
  C   C36       1.0  0.4789700000000001  0.18825  0.8561200000000001  1.0000
  C   C37       1.0  0.18998999999999994  0.7545399999999999  0.71699  1.0000
  C   C38       1.0  0.98069  0.57571  0.61289  1.0000
  C   C39       1.0  0.035960000000000034  0.50976  0.6804400000000002  1.0000
  C   C40       1.0  0.07559000000000007  0.96552  0.9014200000000002  1.0000
  C   C41       1.0  0.10536000000000001  0.0013200000000000304  0.81001  1.0000
  C   C42       1.0  0.50176  0.45003999999999994  0.23448  1.0000
  C   C43       1.0  0.016740000000000043  0.018850000000000023  0.9515700000000001  1.0000
  C   C44       1.0  0.44240000000000007  0.37043  0.30166000000000004  1.0000
  C   C45       1.0  0.2664900000000001  0.16845000000000002  0.5066500000000002  1.0000
  C   C46       1.0  0.33161  0.23256000000000002  0.4342600000000001  1.0000
  C   C47       1.0  0.98988  0.10917999999999999  0.90291  1.0000
  C   C48       1.0  0.2558500000000001  0.21418000000000004  0.31128000000000006  1.0000
  C   C49       1.0  0.021100000000000084  0.14394000000000007  0.8117900000000001  1.0000
  C   C50       1.0  0.31006  0.28304  0.24544000000000002  1.0000
  C   C51       1.0  0.51937  0.38714  0.4242700000000001  1.0000
  C   C52       1.0  0.46412000000000003  0.31957  0.49021000000000003  1.0000
  N   N1        1.0  0.57911  0.76725  0.09029  1.0000
  N   N2        1.0  0.9207900000000001  0.90963  0.23270000000000005  1.0000
  N   N3        1.0  0.42089000000000004  0.23275  0.90971  1.0000
  N   N4        1.0  0.07920999999999999  0.09037  0.7673  1.0000
  O   O1        1.0  0.60999  0.68055  0.12394000000000001  1.0000
  O   O2        1.0  0.82609  0.62045  0.21372000000000002  1.0000
  O   O3        1.0  0.11710000000000002  0.29611  0.5340300000000001  1.0000
  O   O4        1.0  0.93268  0.1212  0.42795  1.0000
  O   O5        1.0  0.65441  0.4508299999999999  0.07708  1.0000
  O   O6        1.0  0.8899299999999999  0.8759699999999999  0.3194100000000001  1.0000
  O   O7        1.0  0.67363  0.78587  0.37945  1.0000
  O   O8        1.0  0.38265  0.46617  0.70389  1.0000
  O   O9        1.0  0.5673  0.57188  0.87873  1.0000
  O   O10       1.0  0.84539  0.9227899999999998  0.5489  1.0000
  O   O11       1.0  0.39002000000000014  0.31945  0.87606  1.0000
  O   O12       1.0  0.1739100000000001  0.37956000000000006  0.7862800000000001  1.0000
  O   O13       1.0  0.8829100000000001  0.7038899999999998  0.46597  1.0000
  O   O14       1.0  0.06731999999999994  0.8788099999999999  0.57205  1.0000
  O   O15       1.0  0.34560000000000013  0.54917  0.9229200000000001  1.0000
  O   O16       1.0  0.11006999999999997  0.12402999999999997  0.68059  1.0000
  O   O17       1.0  0.32637000000000005  0.21412999999999996  0.6205500000000002  1.0000
  O   O18       1.0  0.61736  0.53383  0.29611000000000004  1.0000
  O   O19       1.0  0.4327000000000001  0.42813000000000007  0.12127000000000002  1.0000
  O   O20       1.0  0.15461  0.07721  0.4511  1.0000
