data_image0
_chemical_formula_structural       Mg4Fe6H36C60N18O26
_chemical_formula_sum              "Mg4 Fe6 H36 C60 N18 O26"
_cell_length_a       14.11349
_cell_length_b       14.113499999999998
_cell_length_c       17.86491
_cell_angle_alpha    90.0
_cell_angle_beta     90.0
_cell_angle_gamma    120.14306999999998

_symmetry_space_group_name_H-M    'P 1'
_symmetry_Int_Tables_number       1

loop_
  _symmetry_equiv_pos_as_xyz
  'x,y,z'

loop_
  _atom_site_type_symbol
  _atom_site_label
  _atom_site_symmetry_multiplicity
  _atom_site_fract_x
  _atom_site_fract_y
  _atom_site_fract_z
  _atom_site_occupancy
  Mg  Mg1       1.0  8.999999999992526e-05  0.9999099999999999  0.65492  1.0000
  Mg  Mg2       1.0  0.99991  9e-05  0.15491999999999997  1.0000
  Mg  Mg3       1.0  0.99991  9e-05  0.34508  1.0000
  Mg  Mg4       1.0  8.999999999992526e-05  0.9999099999999999  0.8450799999999998  1.0000
  Fe  Fe1       1.0  0.25455  0.74545  0.75  1.0000
  Fe  Fe2       1.0  0.4909299999999998  0.7455199999999997  0.75  1.0000
  Fe  Fe3       1.0  0.25448  0.50907  0.75  1.0000
  Fe  Fe4       1.0  0.74545  0.25455  0.25  1.0000
  Fe  Fe5       1.0  0.50907  0.25448  0.25  1.0000
  Fe  Fe6       1.0  0.74552  0.49093  0.25  1.0000
  H   H1        1.0  0.32235999999999987  0.9481499999999998  0.56096  1.0000
  H   H2        1.0  0.62603  0.67784  0.5609199999999999  1.0000
  H   H3        1.0  0.051759999999999994  0.37425  0.56085  1.0000
  H   H4        1.0  0.6776400000000001  0.05185  0.06096000000000001  1.0000
  H   H5        1.0  0.37397  0.32215999999999995  0.060919999999999995  1.0000
  H   H6        1.0  0.94824  0.62575  0.06085  1.0000
  H   H7        1.0  0.37425  0.05176  0.43915  1.0000
  H   H8        1.0  0.94815  0.3223599999999999  0.43903999999999993  1.0000
  H   H9        1.0  0.67784  0.62603  0.43909  1.0000
  H   H10       1.0  0.62575  0.9482399999999997  0.9391500000000002  1.0000
  H   H11       1.0  0.05184999999999992  0.6776499999999998  0.93905  1.0000
  H   H12       1.0  0.32215999999999995  0.37397  0.93909  1.0000
  H   H13       1.0  0.6776400000000001  0.05185  0.43903999999999993  1.0000
  H   H14       1.0  0.37397  0.32215999999999995  0.43909  1.0000
  H   H15       1.0  0.94824  0.62575  0.43915  1.0000
  H   H16       1.0  0.32235999999999987  0.9481499999999998  0.93905  1.0000
  H   H17       1.0  0.62603  0.67784  0.93909  1.0000
  H   H18       1.0  0.051759999999999994  0.37425  0.9391500000000002  1.0000
  H   H19       1.0  0.62575  0.9482399999999997  0.56085  1.0000
  H   H20       1.0  0.05184999999999992  0.6776499999999998  0.56096  1.0000
  H   H21       1.0  0.32215999999999995  0.37397  0.5609199999999999  1.0000
  H   H22       1.0  0.37425  0.05176  0.06085  1.0000
  H   H23       1.0  0.94815  0.3223599999999999  0.06096000000000001  1.0000
  H   H24       1.0  0.67784  0.62603  0.060919999999999995  1.0000
  H   H25       1.0  0.14272  0.85729  0.6331899999999999  1.0000
  H   H26       1.0  0.71449  0.8572499999999997  0.63317  1.0000
  H   H27       1.0  0.14275  0.28551  0.63317  1.0000
  H   H28       1.0  0.85729  0.14271999999999999  0.13319  1.0000
  H   H29       1.0  0.28551  0.14275  0.13317  1.0000
  H   H30       1.0  0.85725  0.71449  0.13317  1.0000
  H   H31       1.0  0.28551  0.14275  0.36683  1.0000
  H   H32       1.0  0.85729  0.14271999999999999  0.36681  1.0000
  H   H33       1.0  0.85725  0.71449  0.36683  1.0000
  H   H34       1.0  0.71449  0.8572499999999997  0.86683  1.0000
  H   H35       1.0  0.14272  0.85729  0.86681  1.0000
  H   H36       1.0  0.14275  0.28551  0.86683  1.0000
  C   C1        1.0  0.39980000000000004  0.97126  0.53367  1.0000
  C   C2        1.0  0.5716399999999999  0.60033  0.53361  1.0000
  C   C3        1.0  0.028659999999999995  0.42851  0.53358  1.0000
  C   C4        1.0  0.6002  0.02874  0.03367  1.0000
  C   C5        1.0  0.42836  0.3996799999999999  0.03361  1.0000
  C   C6        1.0  0.9713399999999999  0.57149  0.03357999999999999  1.0000
  C   C7        1.0  0.4285099999999999  0.02866  0.46641999999999995  1.0000
  C   C8        1.0  0.97126  0.3997999999999999  0.46633  1.0000
  C   C9        1.0  0.60033  0.57164  0.46638999999999997  1.0000
  C   C10       1.0  0.5714899999999999  0.9713399999999998  0.96642  1.0000
  C   C11       1.0  0.028739999999999963  0.6002  0.9663299999999999  1.0000
  C   C12       1.0  0.39968  0.42836  0.9663899999999999  1.0000
  C   C13       1.0  0.6002  0.02874  0.46633  1.0000
  C   C14       1.0  0.42836  0.3996799999999999  0.46638999999999997  1.0000
  C   C15       1.0  0.9713399999999999  0.57149  0.46641999999999995  1.0000
  C   C16       1.0  0.39980000000000004  0.97126  0.9663299999999999  1.0000
  C   C17       1.0  0.5716399999999999  0.60033  0.9663899999999999  1.0000
  C   C18       1.0  0.028659999999999995  0.42851  0.96642  1.0000
  C   C19       1.0  0.5714899999999999  0.9713399999999998  0.53358  1.0000
  C   C20       1.0  0.028739999999999963  0.6002  0.53367  1.0000
  C   C21       1.0  0.39968  0.42836  0.53361  1.0000
  C   C22       1.0  0.4285099999999999  0.02866  0.03357999999999999  1.0000
  C   C23       1.0  0.97126  0.3997999999999999  0.03367  1.0000
  C   C24       1.0  0.60033  0.57164  0.03361  1.0000
  C   C25       1.0  0.43902  0.87803  0.63924  1.0000
  C   C26       1.0  0.47101  0.94207  0.56786  1.0000
  C   C27       1.0  0.43901  0.56099  0.6392299999999999  1.0000
  C   C28       1.0  0.47104  0.52897  0.56786  1.0000
  C   C29       1.0  0.12197  0.56098  0.63924  1.0000
  C   C30       1.0  0.057929999999999995  0.52899  0.56786  1.0000
  C   C31       1.0  0.56098  0.12196999999999997  0.13924  1.0000
  C   C32       1.0  0.52899  0.05792999999999999  0.06786  1.0000
  C   C33       1.0  0.56099  0.43901  0.13923  1.0000
  C   C34       1.0  0.52897  0.4710399999999999  0.06786  1.0000
  C   C35       1.0  0.8780300000000001  0.4390199999999999  0.13924  1.0000
  C   C36       1.0  0.94207  0.47100999999999993  0.06786  1.0000
  C   C37       1.0  0.56098  0.12196999999999997  0.36076  1.0000
  C   C38       1.0  0.52899  0.05792999999999999  0.43214  1.0000
  C   C39       1.0  0.8780300000000001  0.4390199999999999  0.36076  1.0000
  C   C40       1.0  0.94207  0.47100999999999993  0.43214  1.0000
  C   C41       1.0  0.56099  0.43901  0.36077  1.0000
  C   C42       1.0  0.52897  0.4710399999999999  0.43214  1.0000
  C   C43       1.0  0.43902  0.87803  0.86076  1.0000
  C   C44       1.0  0.47101  0.94207  0.9321400000000001  1.0000
  C   C45       1.0  0.12197  0.56098  0.86076  1.0000
  C   C46       1.0  0.057929999999999995  0.52899  0.9321400000000001  1.0000
  C   C47       1.0  0.43901  0.56099  0.86077  1.0000
  C   C48       1.0  0.47104  0.52897  0.9321400000000001  1.0000
  C   C49       1.0  0.12867000000000003  0.87133  0.6907  1.0000
  C   C50       1.0  0.7425799999999999  0.8712999999999997  0.69069  1.0000
  C   C51       1.0  0.1287  0.25742  0.69069  1.0000
  C   C52       1.0  0.87133  0.12867  0.1907  1.0000
  C   C53       1.0  0.25741999999999987  0.1287  0.19069  1.0000
  C   C54       1.0  0.8713  0.74258  0.19069  1.0000
  C   C55       1.0  0.25741999999999987  0.1287  0.30931  1.0000
  C   C56       1.0  0.87133  0.12867  0.3093  1.0000
  C   C57       1.0  0.8713  0.74258  0.30931  1.0000
  C   C58       1.0  0.7425799999999999  0.8712999999999997  0.80931  1.0000
  C   C59       1.0  0.12867000000000003  0.87133  0.8092999999999999  1.0000
  C   C60       1.0  0.1287  0.25742  0.80931  1.0000
  N   N1        1.0  0.16263999999999998  0.8373599999999999  0.75  1.0000
  N   N2        1.0  0.6745200000000001  0.83731  0.75  1.0000
  N   N3        1.0  0.16268999999999997  0.32547999999999994  0.75  1.0000
  N   N4        1.0  0.83736  0.16263999999999998  0.25  1.0000
  N   N5        1.0  0.32548  0.16269  0.25  1.0000
  N   N6        1.0  0.8373099999999999  0.6745199999999999  0.25  1.0000
  N   N7        1.0  0.07590000000000001  0.9241  0.71094  1.0000
  N   N8        1.0  0.84832  0.92413  0.71095  1.0000
  N   N9        1.0  0.07587  0.15168  0.71095  1.0000
  N   N10       1.0  0.9241  0.0759  0.21094  1.0000
  N   N11       1.0  0.15168  0.07587  0.21094  1.0000
  N   N12       1.0  0.92413  0.8483199999999999  0.21094  1.0000
  N   N13       1.0  0.15168  0.07587  0.28906  1.0000
  N   N14       1.0  0.9241  0.0759  0.28906  1.0000
  N   N15       1.0  0.92413  0.8483199999999999  0.28906  1.0000
  N   N16       1.0  0.84832  0.92413  0.78906  1.0000
  N   N17       1.0  0.07590000000000001  0.9241  0.78906  1.0000
  N   N18       1.0  0.07587  0.15168  0.78906  1.0000
  O   O1        1.0  0.34584  0.85299  0.66668  1.0000
  O   O2        1.0  0.50731  0.6543  0.66661  1.0000
  O   O3        1.0  0.14694999999999991  0.49286999999999986  0.66661  1.0000
  O   O4        1.0  0.65416  0.14700999999999997  0.16668  1.0000
  O   O5        1.0  0.49269  0.34569999999999995  0.16661  1.0000
  O   O6        1.0  0.85305  0.50713  0.16661  1.0000
  O   O7        1.0  0.49287  0.14695  0.33339  1.0000
  O   O8        1.0  0.85299  0.34584  0.33332  1.0000
  O   O9        1.0  0.6543  0.50731  0.33339  1.0000
  O   O10       1.0  0.50713  0.85305  0.83339  1.0000
  O   O11       1.0  0.14700999999999995  0.6541599999999999  0.8333199999999997  1.0000
  O   O12       1.0  0.3456999999999999  0.4926899999999999  0.83339  1.0000
  O   O13       1.0  0.65416  0.14700999999999997  0.33332  1.0000
  O   O14       1.0  0.49269  0.34569999999999995  0.33339  1.0000
  O   O15       1.0  0.85305  0.50713  0.33339  1.0000
  O   O16       1.0  0.34584  0.85299  0.8333199999999997  1.0000
  O   O17       1.0  0.50731  0.6543  0.83339  1.0000
  O   O18       1.0  0.14694999999999991  0.49286999999999986  0.83339  1.0000
  O   O19       1.0  0.50713  0.85305  0.66661  1.0000
  O   O20       1.0  0.14700999999999995  0.6541599999999999  0.66668  1.0000
  O   O21       1.0  0.3456999999999999  0.4926899999999999  0.66661  1.0000
  O   O22       1.0  0.49287  0.14695  0.16661  1.0000
  O   O23       1.0  0.85299  0.34584  0.16668  1.0000
  O   O24       1.0  0.6543  0.50731  0.16661  1.0000
  O   O25       1.0  0.3332899999999999  0.6667099999999999  0.75  1.0000
  O   O26       1.0  0.66671  0.33329  0.25  1.0000
