data_image0
_chemical_formula_structural       Zn2H32C48N4O16
_chemical_formula_sum              "Zn2 H32 C48 N4 O16"
_cell_length_a       10.50684
_cell_length_b       10.52222
_cell_length_c       12.52831
_cell_angle_alpha    81.43789999999998
_cell_angle_beta     81.3054
_cell_angle_gamma    74.72438

_symmetry_space_group_name_H-M    'P 1'
_symmetry_Int_Tables_number       1

loop_
  _symmetry_equiv_pos_as_xyz
  'x,y,z'

loop_
  _atom_site_type_symbol
  _atom_site_label
  _atom_site_symmetry_multiplicity
  _atom_site_fract_x
  _atom_site_fract_y
  _atom_site_fract_z
  _atom_site_occupancy
  Zn  Zn1       1.0  0.33086  0.66864  0.25125  1.0000
  Zn  Zn2       1.0  0.66922  0.33136  0.74868  1.0000
  H   H1        1.0  0.35156  0.19707999999999998  0.64808  1.0000
  H   H2        1.0  0.2897600000000001  0.92637  0.50796  1.0000
  H   H3        1.0  0.31771  0.33577000000000007  0.4957099999999999  1.0000
  H   H4        1.0  0.32232  0.16637  0.20296  1.0000
  H   H5        1.0  0.3947800000000001  0.012390000000000024  0.7624199999999999  1.0000
  H   H6        1.0  0.45445999999999986  0.93087  0.64479  1.0000
  H   H7        1.0  0.08587  0.06413  0.72121  1.0000
  H   H8        1.0  0.42336999999999997  0.7256700000000001  0.71857  1.0000
  H   H9        1.0  0.8025200000000001  0.6485700000000001  0.8519099999999998  1.0000
  H   H10       1.0  0.07355000000000003  0.7107099999999998  0.99118  1.0000
  H   H11       1.0  0.6631400000000001  0.68295  0.005049999999999999  1.0000
  H   H12       1.0  0.83445  0.6777399999999999  0.29699  1.0000
  H   H13       1.0  0.9887100000000001  0.60514  0.73754  1.0000
  H   H14       1.0  0.07041000000000003  0.54646  0.85494  1.0000
  H   H15       1.0  0.93575  0.9144700000000001  0.77904  1.0000
  H   H16       1.0  0.27509  0.57761  0.78064  1.0000
  H   H17       1.0  0.64849  0.8032699999999998  0.35174  1.0000
  H   H18       1.0  0.7102400000000001  0.07384  0.49197  1.0000
  H   H19       1.0  0.6826699999999998  0.66441  0.5040699999999999  1.0000
  H   H20       1.0  0.6778199999999999  0.8337400000000003  0.79694  1.0000
  H   H21       1.0  0.60505  0.98838  0.23749999999999993  1.0000
  H   H22       1.0  0.54557  0.06988000000000001  0.35514  1.0000
  H   H23       1.0  0.9140699999999998  0.9363200000000002  0.2786  1.0000
  H   H24       1.0  0.57679  0.27503  0.28121  1.0000
  H   H25       1.0  0.19772000000000003  0.35164  0.14799  1.0000
  H   H26       1.0  0.9267499999999999  0.28901  0.00879  1.0000
  H   H27       1.0  0.33691  0.31736  0.9948099999999999  1.0000
  H   H28       1.0  0.16552999999999998  0.32265  0.70285  1.0000
  H   H29       1.0  0.011629999999999984  0.3951200000000001  0.26237  1.0000
  H   H30       1.0  0.93006  0.45386  0.14491999999999997  1.0000
  H   H31       1.0  0.06434  0.08585999999999999  0.22083  1.0000
  H   H32       1.0  0.7252700000000001  0.4229  0.21916  1.0000
  C   C1        1.0  0.31349000000000005  0.9213  0.28942  1.0000
  C   C2        1.0  0.29789  0.03866  0.3511  1.0000
  C   C3        1.0  0.29544000000000004  0.02196000000000001  0.46312999999999993  1.0000
  C   C4        1.0  0.30626  0.12876  0.51651  1.0000
  C   C5        1.0  0.30738  0.25477000000000005  0.45544  1.0000
  C   C6        1.0  0.30745  0.27062  0.34374  1.0000
  C   C7        1.0  0.30623999999999996  0.16149  0.29101  1.0000
  C   C8        1.0  0.31916999999999995  0.40042  0.27847  1.0000
  C   C9        1.0  0.36468  0.98978  0.68845  1.0000
  C   C10       1.0  0.26520000000000005  0.90545  0.71782  1.0000
  C   C11       1.0  0.12762999999999994  0.95755  0.73417  1.0000
  C   C12       1.0  0.31690999999999997  0.76787  0.7329299999999999  1.0000
  C   C13       1.0  0.07878999999999999  0.68479  0.21090999999999996  1.0000
  C   C14       1.0  0.96158  0.70204  0.14872  1.0000
  C   C15       1.0  0.9780999999999999  0.70476  0.03666  1.0000
  C   C16       1.0  0.87094  0.69387  0.9836  1.0000
  C   C17       1.0  0.74459  0.69307  0.04498  1.0000
  C   C18       1.0  0.72888  0.69319  0.15669  1.0000
  C   C19       1.0  0.8384299999999999  0.69419  0.20904999999999999  1.0000
  C   C20       1.0  0.5992899999999999  0.68104  0.22276999999999994  1.0000
  C   C21       1.0  0.010769999999999955  0.6356500000000002  0.81152  1.0000
  C   C22       1.0  0.09480999999999984  0.73543  0.78214  1.0000
  C   C23       1.0  0.042539999999999994  0.87275  0.7659399999999998  1.0000
  C   C24       1.0  0.23266999999999996  0.68387  0.7666  1.0000
  C   C25       1.0  0.6865499999999999  0.07885000000000003  0.7103999999999999  1.0000
  C   C26       1.0  0.7022199999999997  0.9614500000000001  0.6488  1.0000
  C   C27       1.0  0.70464  0.97823  0.53677  1.0000
  C   C28       1.0  0.69381  0.8714900000000001  0.48333  1.0000
  C   C29       1.0  0.6929199999999995  0.7453900000000002  0.54439  1.0000
  C   C30       1.0  0.69288  0.72941  0.65613  1.0000
  C   C31       1.0  0.69397  0.83857  0.70888  1.0000
  C   C32       1.0  0.68093  0.59968  0.72152  1.0000
  C   C33       1.0  0.63526  0.010829999999999992  0.31147  1.0000
  C   C34       1.0  0.7348499999999999  0.09507  0.28205  1.0000
  C   C35       1.0  0.8723999999999997  0.042910000000000004  0.26564999999999994  1.0000
  C   C36       1.0  0.6832200000000002  0.23267000000000002  0.26686  1.0000
  C   C37       1.0  0.92122  0.31529000000000007  0.78916  1.0000
  C   C38       1.0  0.03855999999999999  0.29813  0.8512299999999999  1.0000
  C   C39       1.0  0.022129999999999997  0.29525000000000007  0.96332  1.0000
  C   C40       1.0  0.12927000000000002  0.30636  0.01629  1.0000
  C   C41       1.0  0.25558  0.307  0.95488  1.0000
  C   C42       1.0  0.27129999999999993  0.30687  0.84318  1.0000
  C   C43       1.0  0.16169  0.306  0.79079  1.0000
  C   C44       1.0  0.401  0.3188599999999999  0.77731  1.0000
  C   C45       1.0  0.98956  0.36463  0.18839  1.0000
  C   C46       1.0  0.90539  0.26498  0.21776  1.0000
  C   C47       1.0  0.9575699999999999  0.12764  0.23391  1.0000
  C   C48       1.0  0.7675399999999999  0.31661  0.23321999999999998  1.0000
  N   N1        1.0  0.32386  0.11604000000000003  0.6226199999999998  1.0000
  N   N2        1.0  0.88395  0.67559  0.87757  1.0000
  N   N3        1.0  0.6759199999999999  0.88445  0.37725  1.0000
  N   N4        1.0  0.11634999999999998  0.32457  0.12234  1.0000
  O   O1        1.0  0.28046  0.81873  0.3437899999999999  1.0000
  O   O2        1.0  0.36238000000000004  0.932  0.19186  1.0000
  O   O3        1.0  0.29967999999999995  0.4181  0.17931999999999998  1.0000
  O   O4        1.0  0.35044999999999993  0.48292000000000007  0.32826  1.0000
  O   O5        1.0  0.18119000000000005  0.72017  0.15853  1.0000
  O   O6        1.0  0.06773000000000001  0.6318800000000001  0.30724999999999997  1.0000
  O   O7        1.0  0.58181  0.7011000000000001  0.32179  1.0000
  O   O8        1.0  0.51683  0.64851  0.17367999999999997  1.0000
  O   O9        1.0  0.71945  0.18142  0.6559699999999999  1.0000
  O   O10       1.0  0.63777  0.06812  0.80802  1.0000
  O   O11       1.0  0.70066  0.58194  0.82062  1.0000
  O   O12       1.0  0.6492199999999998  0.51732  0.67183  1.0000
  O   O13       1.0  0.8188300000000001  0.27987000000000006  0.84152  1.0000
  O   O14       1.0  0.9321900000000001  0.36798000000000003  0.6927499999999998  1.0000
  O   O15       1.0  0.41864000000000023  0.29856  0.6782999999999999  1.0000
  O   O16       1.0  0.48333  0.35162  0.82636  1.0000
