data_image0
_chemical_formula_structural       Sm4Zn2H24C64N8O32
_chemical_formula_sum              "Sm4 Zn2 H24 C64 N8 O32"
_cell_length_a       12.74355
_cell_length_b       13.388539999999999
_cell_length_c       15.074829999999999
_cell_angle_alpha    116.5356
_cell_angle_beta     115.44539
_cell_angle_gamma    89.75607

_space_group_name_H-M_alt    "P 1"
_space_group_IT_number       1

loop_
  _space_group_symop_operation_xyz
  'x, y, z'

loop_
  _atom_site_type_symbol
  _atom_site_label
  _atom_site_symmetry_multiplicity
  _atom_site_fract_x
  _atom_site_fract_y
  _atom_site_fract_z
  _atom_site_occupancy
  Sm  Sm1       1.0  0.4541399999999999  0.2750999999999999  0.68458  1.0000
  Sm  Sm2       1.0  0.77423  0.72536  0.31588  1.0000
  Sm  Sm3       1.0  0.27234  0.5927600000000001  0.31732  1.0000
  Sm  Sm4       1.0  0.9543499999999999  0.40709999999999985  0.6829799999999999  1.0000
  Zn  Zn1       1.0  0.14117999999999997  0.4996499999999999  0.9997699999999999  1.0000
  Zn  Zn2       1.0  0.6450999999999998  0.5001  5.999999999999999e-05  1.0000
  H   H1        1.0  0.08257  0.8203499999999998  0.013589999999999998  1.0000
  H   H2        1.0  0.29746999999999996  0.91762  0.3644099999999999  1.0000
  H   H3        1.0  0.23022999999999993  0.17816999999999994  0.2669099999999999  1.0000
  H   H4        1.0  0.33489999999999975  0.40199999999999986  0.9681599999999998  1.0000
  H   H5        1.0  0.31624  0.04038000000000002  0.80189  1.0000
  H   H6        1.0  0.32516999999999996  0.20233999999999996  0.12564  1.0000
  H   H7        1.0  0.06695999999999995  0.17906  0.98517  1.0000
  H   H8        1.0  0.9354699999999998  0.08065999999999993  0.63491  1.0000
  H   H9        1.0  0.9643999999999999  0.8210399999999998  0.73322  1.0000
  H   H10       1.0  0.3668  0.59885  0.03332  1.0000
  H   H11       1.0  0.51541  0.9602599999999999  0.1997  1.0000
  H   H12       1.0  0.1991399999999999  0.79775  0.87388  1.0000
  H   H13       1.0  0.56755  0.8063099999999996  0.9853799999999999  1.0000
  H   H14       1.0  0.43612  0.55325  0.63524  1.0000
  H   H15       1.0  0.46277999999999986  0.9111599999999999  0.7328299999999998  1.0000
  H   H16       1.0  0.8687799999999998  0.43448  0.03431  1.0000
  H   H17       1.0  0.016389999999999964  0.23922999999999991  0.20082999999999995  1.0000
  H   H18       1.0  0.70057  0.07663  0.87474  1.0000
  H   H19       1.0  0.5830499999999998  0.19394999999999998  0.013249999999999996  1.0000
  H   H20       1.0  0.8001999999999999  0.4470999999999999  0.36434  1.0000
  H   H21       1.0  0.72848  0.08891  0.26579  1.0000
  H   H22       1.0  0.8350599999999998  0.56508  0.96636  1.0000
  H   H23       1.0  0.81692  0.7601499999999999  0.8008499999999997  1.0000
  H   H24       1.0  0.8259400000000001  0.9228799999999998  0.12508  1.0000
  C   C1        1.0  0.32198  0.41601  0.14850999999999998  1.0000
  C   C2        1.0  0.13470999999999994  0.88541  0.10175999999999998  1.0000
  C   C3        1.0  0.2700699999999999  0.056809999999999965  0.32878999999999997  1.0000
  C   C4        1.0  0.18632  0.85545  0.18605999999999998  1.0000
  C   C5        1.0  0.25515  0.9409599999999998  0.29891  1.0000
  C   C6        1.0  0.17692999999999992  0.73392  0.16061999999999999  1.0000
  C   C7        1.0  0.21818999999999994  0.08813000000000001  0.24499  1.0000
  C   C8        1.0  0.1526  0.0019899999999999987  0.13122  1.0000
  C   C9        1.0  0.343  0.14081999999999997  0.45158999999999994  1.0000
  C   C10       1.0  0.34328999999999976  0.23609999999999998  0.7902699999999999  1.0000
  C   C11       1.0  0.3292  0.32055  0.9673499999999999  1.0000
  C   C12       1.0  0.32606999999999997  0.31309  0.05585  1.0000
  C   C13       1.0  0.32817999999999986  0.22309999999999983  0.8772299999999998  1.0000
  C   C14       1.0  0.3197499999999998  0.11691999999999989  0.8731999999999998  1.0000
  C   C15       1.0  0.32562999999999986  0.20859999999999992  0.05631999999999999  1.0000
  C   C16       1.0  0.32086999999999977  0.1101299999999999  0.9636999999999998  1.0000
  C   C17       1.0  0.17326  0.58428  0.85242  1.0000
  C   C18       1.0  0.03194999999999993  0.11380999999999991  0.8972799999999999  1.0000
  C   C19       1.0  0.9434899999999998  0.9422299999999996  0.67097  1.0000
  C   C20       1.0  0.00047999999999991604  0.14379999999999984  0.8132199999999998  1.0000
  C   C21       1.0  0.9579699999999999  0.058099999999999964  0.7007299999999999  1.0000
  C   C22       1.0  0.017689999999999997  0.26568  0.83955  1.0000
  C   C23       1.0  0.97394  0.9109799999999997  0.7546099999999998  1.0000
  C   C24       1.0  0.0208299999999999  0.9972799999999998  0.8681299999999997  1.0000
  C   C25       1.0  0.8963199999999999  0.85834  0.54851  1.0000
  C   C26       1.0  0.55529  0.76419  0.21123  1.0000
  C   C27       1.0  0.36221  0.68034  0.03417  1.0000
  C   C28       1.0  0.2701199999999999  0.6875499999999998  0.9449699999999998  1.0000
  C   C29       1.0  0.45176999999999995  0.77767  0.12462  1.0000
  C   C30       1.0  0.44725  0.8836999999999999  0.12821999999999997  1.0000
  C   C31       1.0  0.26919  0.79173  0.94387  1.0000
  C   C32       1.0  0.35745999999999994  0.8901699999999998  0.03685999999999999  1.0000
  C   C33       1.0  0.6745599999999998  0.26734999999999987  0.8523699999999997  1.0000
  C   C34       1.0  0.5322199999999998  0.7833599999999997  0.8974099999999998  1.0000
  C   C35       1.0  0.4432599999999998  0.7279299999999997  0.6710699999999999  1.0000
  C   C36       1.0  0.5009299999999998  0.6690899999999997  0.8133299999999999  1.0000
  C   C37       1.0  0.45830999999999983  0.6418999999999999  0.7007799999999997  1.0000
  C   C38       1.0  0.518  0.57337  0.83939  1.0000
  C   C39       1.0  0.47313999999999984  0.8429399999999998  0.7545599999999998  1.0000
  C   C40       1.0  0.5204499999999997  0.8705599999999996  0.8680799999999997  1.0000
  C   C41       1.0  0.39589  0.69008  0.54899  1.0000
  C   C42       1.0  0.054980000000000015  0.44796  0.21257  1.0000
  C   C43       1.0  0.8634699999999997  0.35368  0.03468999999999999  1.0000
  C   C44       1.0  0.77162  0.25728  0.9454  1.0000
  C   C45       1.0  0.9528399999999999  0.3468899999999999  0.12544  1.0000
  C   C46       1.0  0.94871  0.24453  0.12917  1.0000
  C   C47       1.0  0.7707599999999997  0.1523199999999999  0.9448099999999998  1.0000
  C   C48       1.0  0.85901  0.14673  0.03781  1.0000
  C   C49       1.0  0.8237899999999998  0.7326  0.14793999999999996  1.0000
  C   C50       1.0  0.63519  0.21693  0.10138999999999997  1.0000
  C   C51       1.0  0.77072  0.27241999999999994  0.3283499999999999  1.0000
  C   C52       1.0  0.6877999999999997  0.33114999999999994  0.18571999999999997  1.0000
  C   C53       1.0  0.7568699999999999  0.35843  0.2985999999999999  1.0000
  C   C54       1.0  0.6792299999999999  0.42682  0.15977  1.0000
  C   C55       1.0  0.7177399999999998  0.15738999999999997  0.24444999999999995  1.0000
  C   C56       1.0  0.65228  0.12975999999999996  0.13072999999999999  1.0000
  C   C57       1.0  0.8439799999999997  0.31043999999999994  0.4508699999999999  1.0000
  C   C58       1.0  0.8428099999999997  0.5521099999999998  0.7886599999999999  1.0000
  C   C59       1.0  0.8294899999999995  0.6459299999999996  0.9659799999999997  1.0000
  C   C60       1.0  0.82701  0.74235  0.05492999999999999  1.0000
  C   C61       1.0  0.82779  0.65276  0.87565  1.0000
  C   C62       1.0  0.8200599999999999  0.7551999999999999  0.87202  1.0000
  C   C63       1.0  0.82643  0.8473199999999999  0.05545  1.0000
  C   C64       1.0  0.82175  0.8530099999999998  0.96298  1.0000
  N   N1        1.0  0.11101999999999997  0.03996  0.05091  1.0000
  N   N2        1.0  0.31592  0.9993  0.95307  1.0000
  N   N3        1.0  0.05889999999999994  0.95947  0.9485499999999999  1.0000
  N   N4        1.0  0.36289  0.0007899999999999938  0.047099999999999996  1.0000
  N   N5        1.0  0.5586099999999998  0.9890399999999999  0.9481799999999998  1.0000
  N   N6        1.0  0.8642999999999998  0.04611  0.0477  1.0000
  N   N7        1.0  0.61004  0.011309999999999997  0.05058  1.0000
  N   N8        1.0  0.8173499999999999  0.9537099999999996  0.9532999999999998  1.0000
  O   O1        1.0  0.35355  0.4240399999999999  0.24334  1.0000
  O   O2        1.0  0.2844899999999999  0.5011  0.13216999999999998  1.0000
  O   O3        1.0  0.3389299999999999  0.24691  0.49347  1.0000
  O   O4        1.0  0.40867999999999993  0.10199999999999994  0.51551  1.0000
  O   O5        1.0  0.11434999999999998  0.65455  0.05736  1.0000
  O   O6        1.0  0.23386999999999988  0.7163299999999998  0.24309999999999996  1.0000
  O   O7        1.0  0.34959  0.14971  0.71016  1.0000
  O   O8        1.0  0.35844  0.33685  0.80139  1.0000
  O   O9        1.0  0.10903999999999985  0.5754599999999997  0.7571199999999998  1.0000
  O   O10       1.0  0.15318  0.49963  0.86929  1.0000
  O   O11       1.0  0.84941  0.75236  0.50571  1.0000
  O   O12       1.0  0.9010299999999998  0.89703  0.4858299999999999  1.0000
  O   O13       1.0  0.05717999999999982  0.3446199999999998  0.9427399999999998  1.0000
  O   O14       1.0  0.99481  0.2841199999999999  0.7581899999999998  1.0000
  O   O15       1.0  0.6419599999999999  0.8505999999999999  0.29209999999999997  1.0000
  O   O16       1.0  0.5605699999999999  0.66314  0.19893999999999998  1.0000
  O   O17       1.0  0.60946  0.18034999999999984  0.7577799999999998  1.0000
  O   O18       1.0  0.65488  0.3690599999999999  0.8681899999999999  1.0000
  O   O19       1.0  0.3495199999999999  0.7546299999999998  0.5075799999999999  1.0000
  O   O20       1.0  0.3996899999999998  0.5884399999999999  0.4851899999999999  1.0000
  O   O21       1.0  0.5603299999999998  0.59804  0.9429099999999998  1.0000
  O   O22       1.0  0.49205999999999983  0.47288999999999987  0.75751  1.0000
  O   O23       1.0  0.14252  0.44315999999999994  0.29359  1.0000
  O   O24       1.0  0.05802999999999995  0.53712  0.20075999999999994  1.0000
  O   O25       1.0  0.8537799999999999  0.81984  0.2423  1.0000
  O   O26       1.0  0.78849  0.63114  0.13245999999999997  1.0000
  O   O27       1.0  0.8382899999999998  0.24596  0.4918  1.0000
  O   O28       1.0  0.9113399999999999  0.41227999999999987  0.51536  1.0000
  O   O29       1.0  0.61691  0.40229999999999994  0.05623999999999999  1.0000
  O   O30       1.0  0.73656  0.5269599999999999  0.24178999999999995  1.0000
  O   O31       1.0  0.8467799999999999  0.55687  0.70722  1.0000
  O   O32       1.0  0.8602099999999999  0.4633  0.80094  1.0000
