data_image0
_chemical_formula_structural       Co8H40C48N32O16
_chemical_formula_sum              "Co8 H40 C48 N32 O16"
_cell_length_a       12.54492
_cell_length_b       12.561420000000002
_cell_length_c       15.820159999999998
_cell_angle_alpha    113.40942
_cell_angle_beta     113.4436
_cell_angle_gamma    90.00136999999998

_space_group_name_H-M_alt    "P 1"
_space_group_IT_number       1

loop_
  _space_group_symop_operation_xyz
  'x, y, z'

loop_
  _atom_site_type_symbol
  _atom_site_label
  _atom_site_symmetry_multiplicity
  _atom_site_fract_x
  _atom_site_fract_y
  _atom_site_fract_z
  _atom_site_occupancy
  Co  Co1       1.0  0.49201000000000017  0.6008  0.6214500000000001  1.0000
  Co  Co2       1.0  0.12949  0.020500000000000008  0.62176  1.0000
  Co  Co3       1.0  0.020350000000000045  0.49118000000000006  0.6213600000000001  1.0000
  Co  Co4       1.0  0.60102  0.12968  0.62131  1.0000
  Co  Co5       1.0  0.50798  0.3992  0.37855  1.0000
  Co  Co6       1.0  0.8705  0.9795  0.37824  1.0000
  Co  Co7       1.0  0.9796400000000001  0.50882  0.37864  1.0000
  Co  Co8       1.0  0.39897  0.8703199999999999  0.37869  1.0000
  H   H1        1.0  0.5906200000000001  0.9913399999999998  0.83523  1.0000
  H   H2        1.0  0.5187  0.18611  0.43258  1.0000
  H   H3        1.0  0.6124200000000001  0.52354  0.7928  1.0000
  H   H4        1.0  0.63544  0.38293  0.79275  1.0000
  H   H5        1.0  0.24125000000000008  0.8455  0.8345  1.0000
  H   H6        1.0  0.9154100000000002  0.24659  0.43217  1.0000
  H   H7        1.0  0.1804800000000001  0.26906000000000013  0.7927200000000002  1.0000
  H   H8        1.0  0.15777000000000005  0.40965  0.79259  1.0000
  H   H9        1.0  0.84459  0.59009  0.83456  1.0000
  H   H10       1.0  0.24668  0.51724  0.43269  1.0000
  H   H11       1.0  0.26944  0.61218  0.79302  1.0000
  H   H12       1.0  0.41009  0.63526  0.7929  1.0000
  H   H13       1.0  0.99092  0.2413099999999999  0.83524  1.0000
  H   H14       1.0  0.18522  0.91394  0.43254  1.0000
  H   H15       1.0  0.52358  0.18076  0.79265  1.0000
  H   H16       1.0  0.38286  0.15776  0.79267  1.0000
  H   H17       1.0  0.40937000000000007  0.008659999999999984  0.16477  1.0000
  H   H18       1.0  0.48129000000000005  0.8138899999999999  0.56742  1.0000
  H   H19       1.0  0.3875700000000001  0.47646  0.2072  1.0000
  H   H20       1.0  0.36455  0.61706  0.20725000000000002  1.0000
  H   H21       1.0  0.75874  0.1545  0.1655  1.0000
  H   H22       1.0  0.08458  0.75341  0.56783  1.0000
  H   H23       1.0  0.81952  0.73094  0.20728  1.0000
  H   H24       1.0  0.8422200000000001  0.59035  0.20741  1.0000
  H   H25       1.0  0.15541000000000005  0.40991  0.16544000000000003  1.0000
  H   H26       1.0  0.75331  0.48276  0.5673  1.0000
  H   H27       1.0  0.73055  0.38782  0.20698  1.0000
  H   H28       1.0  0.5899  0.36474  0.2071  1.0000
  H   H29       1.0  0.00907999999999998  0.75869  0.16476  1.0000
  H   H30       1.0  0.81477  0.08606  0.56745  1.0000
  H   H31       1.0  0.47641000000000006  0.8192300000000001  0.20735  1.0000
  H   H32       1.0  0.6171300000000001  0.84224  0.20733000000000001  1.0000
  H   H33       1.0  0.67281  0.77627  0.99887  1.0000
  H   H34       1.0  0.66993  0.17228  0.00097  1.0000
  H   H35       1.0  0.32719  0.22374  0.00113  1.0000
  H   H36       1.0  0.33006  0.82772  0.99903  1.0000
  H   H37       1.0  0.22361000000000003  0.67344  0.00048  1.0000
  H   H38       1.0  0.82758  0.66957  0.99942  1.0000
  H   H39       1.0  0.77639  0.32656000000000013  0.9995200000000001  1.0000
  H   H40       1.0  0.17242000000000002  0.33043  0.00058  1.0000
  C   C1        1.0  0.5841500000000001  0.76201  0.80985  1.0000
  C   C2        1.0  0.62932  0.8721099999999998  0.90664  1.0000
  C   C3        1.0  0.6279400000000002  0.9843499999999998  0.90737  1.0000
  C   C4        1.0  0.53702  0.26683  0.50059  1.0000
  C   C5        1.0  0.58582  0.3909  0.65676  1.0000
  C   C6        1.0  0.22544000000000006  0.05000999999999999  0.81141  1.0000
  C   C7        1.0  0.27662  0.03592  0.90769  1.0000
  C   C8        1.0  0.27768  0.92389  0.90719  1.0000
  C   C9        1.0  0.9647300000000002  0.23375  0.5002  1.0000
  C   C10       1.0  0.07136999999999993  0.26561  0.65654  1.0000
  C   C11       1.0  0.04930000000000007  0.5839700000000001  0.8109600000000001  1.0000
  C   C12       1.0  0.03541000000000009  0.6295399999999999  0.9073600000000002  1.0000
  C   C13       1.0  0.9233400000000004  0.6278  0.9071000000000001  1.0000
  C   C14       1.0  0.23398  0.53588  0.50072  1.0000
  C   C15       1.0  0.26587000000000016  0.5853000000000002  0.6568800000000001  1.0000
  C   C16       1.0  0.7617500000000001  0.22509  0.81028  1.0000
  C   C17       1.0  0.872  0.2764099999999999  0.907  1.0000
  C   C18       1.0  0.9842300000000003  0.27773000000000003  0.9074800000000001  1.0000
  C   C19       1.0  0.2662  0.9637  0.50051  1.0000
  C   C20       1.0  0.39075  0.07108999999999993  0.65673  1.0000
  C   C21       1.0  0.4158400000000001  0.23798  0.19015  1.0000
  C   C22       1.0  0.37067  0.12789  0.09336  1.0000
  C   C23       1.0  0.37205000000000005  0.015650000000000008  0.09263  1.0000
  C   C24       1.0  0.46297  0.73317  0.4994100000000001  1.0000
  C   C25       1.0  0.41417  0.6091000000000001  0.34324000000000005  1.0000
  C   C26       1.0  0.77455  0.9499899999999999  0.18859  1.0000
  C   C27       1.0  0.7233700000000001  0.96408  0.09231  1.0000
  C   C28       1.0  0.72231  0.07611000000000001  0.09281  1.0000
  C   C29       1.0  0.03527000000000008  0.76625  0.49980000000000013  1.0000
  C   C30       1.0  0.9286200000000002  0.73438  0.34346  1.0000
  C   C31       1.0  0.95069  0.41603  0.18904  1.0000
  C   C32       1.0  0.9645800000000002  0.37046  0.09264  1.0000
  C   C33       1.0  0.07665000000000001  0.3722  0.09290000000000001  1.0000
  C   C34       1.0  0.7660200000000003  0.4641199999999999  0.49927  1.0000
  C   C35       1.0  0.73412  0.4147  0.34312  1.0000
  C   C36       1.0  0.23824  0.7749100000000001  0.18972  1.0000
  C   C37       1.0  0.12799000000000002  0.72359  0.093  1.0000
  C   C38       1.0  0.01576  0.72227  0.09252  1.0000
  C   C39       1.0  0.73379  0.036300000000000006  0.49949  1.0000
  C   C40       1.0  0.60924  0.92891  0.34327  1.0000
  C   C41       1.0  0.6743900000000002  0.8628599999999998  0.99924  1.0000
  C   C42       1.0  0.6726  0.08548999999999998  0.00042000000000000007  1.0000
  C   C43       1.0  0.3256  0.13715  0.00076  1.0000
  C   C44       1.0  0.3273900000000001  0.9145099999999998  0.99958  1.0000
  C   C45       1.0  0.13701000000000002  0.6748  0.0003400000000000001  1.0000
  C   C46       1.0  0.9143200000000001  0.67242  0.99965  1.0000
  C   C47       1.0  0.8629800000000001  0.3252  0.99966  1.0000
  C   C48       1.0  0.08568  0.32758999999999994  0.00035000000000000005  1.0000
  N   N1        1.0  0.55598  0.45306  0.60014  1.0000
  N   N2        1.0  0.57503  0.27335  0.59641  1.0000
  N   N3        1.0  0.62516  0.43931999999999993  0.75892  1.0000
  N   N4        1.0  0.52455  0.37083  0.49901  1.0000
  N   N5        1.0  0.04446  0.14680999999999994  0.59972  1.0000
  N   N6        1.0  0.022260000000000026  0.3229099999999999  0.59618  1.0000
  N   N7        1.0  0.13388  0.31938  0.75872  1.0000
  N   N8        1.0  0.97523  0.12808000000000003  0.4985  1.0000
  N   N9        1.0  0.14687000000000006  0.55559  0.60009  1.0000
  N   N10       1.0  0.32334000000000007  0.57401  0.59663  1.0000
  N   N11       1.0  0.31971  0.6249  0.75905  1.0000
  N   N12       1.0  0.12812  0.52385  0.49895  1.0000
  N   N13       1.0  0.4528  0.04457000000000001  0.59997  1.0000
  N   N14       1.0  0.273  0.021400000000000023  0.59644  1.0000
  N   N15       1.0  0.43936000000000003  0.13372  0.75893  1.0000
  N   N16       1.0  0.37028  0.9747599999999998  0.49884  1.0000
  N   N17       1.0  0.4440100000000002  0.54694  0.39986000000000005  1.0000
  N   N18       1.0  0.42496  0.7266499999999999  0.40358  1.0000
  N   N19       1.0  0.3748300000000001  0.56068  0.24108000000000002  1.0000
  N   N20       1.0  0.47544000000000003  0.62917  0.50099  1.0000
  N   N21       1.0  0.95553  0.85319  0.4002800000000001  1.0000
  N   N22       1.0  0.9777300000000002  0.6770899999999999  0.40382  1.0000
  N   N23       1.0  0.86611  0.68062  0.24128  1.0000
  N   N24       1.0  0.02476000000000001  0.87191  0.5015  1.0000
  N   N25       1.0  0.85312  0.44440999999999997  0.39991  1.0000
  N   N26       1.0  0.67665  0.42599  0.40337  1.0000
  N   N27       1.0  0.6802800000000001  0.3751  0.24095  1.0000
  N   N28       1.0  0.8718700000000003  0.47615  0.50105  1.0000
  N   N29       1.0  0.5472  0.95543  0.40003  1.0000
  N   N30       1.0  0.72699  0.9786  0.40356  1.0000
  N   N31       1.0  0.56063  0.86627  0.24107  1.0000
  N   N32       1.0  0.6297100000000002  0.02524  0.50116  1.0000
  O   O1        1.0  0.56188  0.6627099999999999  0.80999  1.0000
  O   O2        1.0  0.5666  0.76722  0.72578  1.0000
  O   O3        1.0  0.24900999999999998  0.14953000000000005  0.81237  1.0000
  O   O4        1.0  0.15874000000000008  0.96083  0.72707  1.0000
  O   O5        1.0  0.14914  0.56176  0.81206  1.0000
  O   O6        1.0  0.9599500000000001  0.56607  0.72662  1.0000
  O   O7        1.0  0.6626400000000002  0.24827000000000005  0.8106400000000001  1.0000
  O   O8        1.0  0.767  0.1587  0.72617  1.0000
  O   O9        1.0  0.43812  0.3372899999999999  0.19001  1.0000
  O   O10       1.0  0.43339  0.23277999999999996  0.27422  1.0000
  O   O11       1.0  0.75098  0.85047  0.18763000000000002  1.0000
  O   O12       1.0  0.84125  0.03917  0.27293  1.0000
  O   O13       1.0  0.85085  0.43823999999999996  0.18794  1.0000
  O   O14       1.0  0.04003999999999999  0.4339299999999999  0.27338  1.0000
  O   O15       1.0  0.3373500000000001  0.7517199999999999  0.18936  1.0000
  O   O16       1.0  0.23300000000000004  0.8413  0.27383  1.0000
