data_image0
_chemical_formula_structural       Gd8H12C60O48
_chemical_formula_sum              "Gd8 H12 C60 O48"
_cell_length_a       10.55349
_cell_length_b       13.47498
_cell_length_c       14.37055
_cell_angle_alpha    89.93395
_cell_angle_beta     89.97539
_cell_angle_gamma    90.07919999999999

_space_group_name_H-M_alt    "P 1"
_space_group_IT_number       1

loop_
  _space_group_symop_operation_xyz
  'x, y, z'

loop_
  _atom_site_type_symbol
  _atom_site_label
  _atom_site_symmetry_multiplicity
  _atom_site_fract_x
  _atom_site_fract_y
  _atom_site_fract_z
  _atom_site_occupancy
  Gd  Gd1       1.0  0.24166  0.78751  0.21201000000000003  1.0000
  Gd  Gd2       1.0  0.99296  0.12813  0.13748  1.0000
  Gd  Gd3       1.0  0.25827  0.7124  0.71227  1.0000
  Gd  Gd4       1.0  0.50659  0.37187  0.63768  1.0000
  Gd  Gd5       1.0  0.7583400000000001  0.21247999999999995  0.78799  1.0000
  Gd  Gd6       1.0  0.00704  0.87187  0.86252  1.0000
  Gd  Gd7       1.0  0.74173  0.2876  0.28773  1.0000
  Gd  Gd8       1.0  0.49341000000000007  0.62813  0.3623200000000001  1.0000
  H   H1        1.0  0.43395000000000006  0.09176  0.14164000000000002  1.0000
  H   H2        1.0  0.12914  0.85739  0.44873  1.0000
  H   H3        1.0  0.9653500000000002  0.57014  0.15598  1.0000
  H   H4        1.0  0.06633  0.40833999999999987  0.6418  1.0000
  H   H5        1.0  0.37088000000000004  0.64264  0.9486  1.0000
  H   H6        1.0  0.53363  0.92988  0.65625  1.0000
  H   H7        1.0  0.56605  0.90824  0.85836  1.0000
  H   H8        1.0  0.8708600000000002  0.14261  0.55126  1.0000
  H   H9        1.0  0.03465  0.42986  0.84402  1.0000
  H   H10       1.0  0.9336700000000001  0.59166  0.3582  1.0000
  H   H11       1.0  0.6291200000000001  0.35736  0.0514  1.0000
  H   H12       1.0  0.46637000000000006  0.07012  0.34375  1.0000
  C   C1        1.0  0.23926  0.99198  0.06505  1.0000
  C   C2        1.0  0.37209000000000003  0.99928  0.02746  1.0000
  C   C3        1.0  0.41048  0.9467699999999999  0.9472  1.0000
  C   C4        1.0  0.31541  0.89479  0.88692  1.0000
  C   C5        1.0  0.46175  0.05227  0.0789  1.0000
  C   C6        1.0  0.08631  0.9799299999999997  0.30997  1.0000
  C   C7        1.0  0.03873  0.9932899999999999  0.40695  1.0000
  C   C8        1.0  0.9638800000000001  0.07419  0.43516  1.0000
  C   C9        1.0  0.91249  0.15247  0.37143  1.0000
  C   C10       1.0  0.07272  0.92019  0.47160000000000013  1.0000
  C   C11       1.0  0.03404  0.70883  0.04384000000000001  1.0000
  C   C12       1.0  0.01514  0.6030299999999997  0.01415  1.0000
  C   C13       1.0  0.03533  0.56284  0.92459  1.0000
  C   C14       1.0  0.08247  0.61789  0.8408000000000001  1.0000
  C   C15       1.0  0.98059  0.53945  0.087  1.0000
  C   C16       1.0  0.2607  0.50807  0.56514  1.0000
  C   C17       1.0  0.12791  0.50088  0.5275  1.0000
  C   C18       1.0  0.08953  0.55324  0.44706  1.0000
  C   C19       1.0  0.18477  0.60517  0.38674  1.0000
  C   C20       1.0  0.03825  0.44783  0.57905  1.0000
  C   C21       1.0  0.41334000000000004  0.51995  0.81015  1.0000
  C   C22       1.0  0.46078  0.50651  0.90712  1.0000
  C   C23       1.0  0.53565  0.42557  0.93529  1.0000
  C   C24       1.0  0.58709  0.34736  0.87157  1.0000
  C   C25       1.0  0.4273  0.57985  0.97156  1.0000
  C   C26       1.0  0.46646  0.79051  0.54376  1.0000
  C   C27       1.0  0.48452000000000006  0.89679  0.51448  1.0000
  C   C28       1.0  0.46486  0.93715  0.4247500000000001  1.0000
  C   C29       1.0  0.41761  0.8823199999999998  0.34087000000000006  1.0000
  C   C30       1.0  0.51883  0.96052  0.58713  1.0000
  C   C31       1.0  0.76074  0.00802  0.93495  1.0000
  C   C32       1.0  0.62791  0.00072  0.97253  1.0000
  C   C33       1.0  0.58952  0.053229999999999986  0.0528  1.0000
  C   C34       1.0  0.68459  0.10520999999999997  0.11308  1.0000
  C   C35       1.0  0.5382500000000001  0.94773  0.9211  1.0000
  C   C36       1.0  0.9136900000000001  0.020069999999999994  0.69003  1.0000
  C   C37       1.0  0.96127  0.00671  0.5930500000000002  1.0000
  C   C38       1.0  0.036120000000000006  0.92581  0.5648400000000001  1.0000
  C   C39       1.0  0.08751  0.84753  0.62857  1.0000
  C   C40       1.0  0.92728  0.07980999999999999  0.5284  1.0000
  C   C41       1.0  0.96596  0.29117  0.95616  1.0000
  C   C42       1.0  0.98486  0.39695999999999987  0.9858500000000001  1.0000
  C   C43       1.0  0.9646700000000001  0.4371599999999999  0.07541000000000003  1.0000
  C   C44       1.0  0.91753  0.3821099999999999  0.15920000000000004  1.0000
  C   C45       1.0  0.01941  0.46054999999999996  0.913  1.0000
  C   C46       1.0  0.73931  0.49193  0.43485  1.0000
  C   C47       1.0  0.87209  0.49912  0.4725  1.0000
  C   C48       1.0  0.9104700000000001  0.44676  0.55293  1.0000
  C   C49       1.0  0.81523  0.39483  0.61325  1.0000
  C   C50       1.0  0.96175  0.55217  0.42094  1.0000
  C   C51       1.0  0.5866600000000001  0.48005  0.18985  1.0000
  C   C52       1.0  0.53923  0.49349  0.09288  1.0000
  C   C53       1.0  0.46435  0.57442  0.0647  1.0000
  C   C54       1.0  0.41291  0.65264  0.12843  1.0000
  C   C55       1.0  0.5727000000000001  0.42015  0.02844  1.0000
  C   C56       1.0  0.53355  0.20949  0.45624  1.0000
  C   C57       1.0  0.51548  0.10320999999999997  0.48552  1.0000
  C   C58       1.0  0.53514  0.06285  0.57525  1.0000
  C   C59       1.0  0.58239  0.11767999999999998  0.65912  1.0000
  C   C60       1.0  0.48117  0.03948  0.41287  1.0000
  O   O1        1.0  0.16875  0.06888  0.06062  1.0000
  O   O2        1.0  0.20607  0.91045  0.10129  1.0000
  O   O3        1.0  0.19938000000000003  0.92446  0.89808  1.0000
  O   O4        1.0  0.34957  0.82902  0.82967  1.0000
  O   O5        1.0  0.10649000000000002  0.05503  0.25819  1.0000
  O   O6        1.0  0.10525  0.89021  0.28692000000000006  1.0000
  O   O7        1.0  0.8947400000000002  0.23904999999999996  0.40338  1.0000
  O   O8        1.0  0.87576  0.13014  0.28793  1.0000
  O   O9        1.0  0.09383  0.7158499999999999  0.1206  1.0000
  O   O10       1.0  0.9872700000000002  0.78084  0.99948  1.0000
  O   O11       1.0  0.11927  0.57094  0.77021  1.0000
  O   O12       1.0  0.09357  0.71456  0.84176  1.0000
  O   O13       1.0  0.33112  0.43106  0.56064  1.0000
  O   O14       1.0  0.29386  0.58937  0.60148  1.0000
  O   O15       1.0  0.30086  0.57572  0.39816  1.0000
  O   O16       1.0  0.15059  0.6706999999999997  0.32915  1.0000
  O   O17       1.0  0.39326  0.44491  0.75841  1.0000
  O   O18       1.0  0.39469000000000004  0.60969  0.78698  1.0000
  O   O19       1.0  0.60514  0.26077  0.90356  1.0000
  O   O20       1.0  0.62382  0.36981  0.78803  1.0000
  O   O21       1.0  0.4069000000000001  0.7811899999999998  0.62038  1.0000
  O   O22       1.0  0.51387  0.71941  0.49861  1.0000
  O   O23       1.0  0.3805999999999998  0.92948  0.27043  1.0000
  O   O24       1.0  0.4064300000000001  0.7856399999999999  0.34172  1.0000
  O   O25       1.0  0.8312500000000002  0.93112  0.9393800000000002  1.0000
  O   O26       1.0  0.7939300000000001  0.08955  0.8987100000000001  1.0000
  O   O27       1.0  0.8006200000000001  0.07554  0.10192  1.0000
  O   O28       1.0  0.65043  0.17098  0.17033  1.0000
  O   O29       1.0  0.89351  0.94497  0.74181  1.0000
  O   O30       1.0  0.8947500000000002  0.10978999999999997  0.71307  1.0000
  O   O31       1.0  0.10526  0.76095  0.59661  1.0000
  O   O32       1.0  0.12424000000000003  0.86985  0.71207  1.0000
  O   O33       1.0  0.90617  0.28415  0.8793900000000002  1.0000
  O   O34       1.0  0.012730000000000002  0.21916  0.00051  1.0000
  O   O35       1.0  0.8807300000000001  0.42906  0.22978  1.0000
  O   O36       1.0  0.90643  0.28544  0.15824000000000002  1.0000
  O   O37       1.0  0.66888  0.56894  0.43935  1.0000
  O   O38       1.0  0.70614  0.41063  0.39852  1.0000
  O   O39       1.0  0.69914  0.4242799999999999  0.60184  1.0000
  O   O40       1.0  0.8494100000000001  0.3293  0.6708500000000002  1.0000
  O   O41       1.0  0.60674  0.55508  0.24159000000000005  1.0000
  O   O42       1.0  0.60531  0.39031  0.21302  1.0000
  O   O43       1.0  0.39486000000000004  0.73923  0.09644  1.0000
  O   O44       1.0  0.37618000000000007  0.63019  0.21197  1.0000
  O   O45       1.0  0.5931  0.21881  0.3796100000000001  1.0000
  O   O46       1.0  0.48613000000000006  0.28059  0.50139  1.0000
  O   O47       1.0  0.6194  0.07052  0.72957  1.0000
  O   O48       1.0  0.59357  0.21435999999999994  0.65827  1.0000
