data_image0
_chemical_formula_structural       Ag8H48C64N24
_chemical_formula_sum              "Ag8 H48 C64 N24"
_cell_length_a       4.36693
_cell_length_b       18.22449
_cell_length_c       19.89356
_cell_angle_alpha    89.98322
_cell_angle_beta     90.00679000000001
_cell_angle_gamma    109.56812999999998

_space_group_name_H-M_alt    "P 1"
_space_group_IT_number       1

loop_
  _space_group_symop_operation_xyz
  'x, y, z'

loop_
  _atom_site_type_symbol
  _atom_site_label
  _atom_site_symmetry_multiplicity
  _atom_site_fract_x
  _atom_site_fract_y
  _atom_site_fract_z
  _atom_site_occupancy
  Ag  Ag1       1.0  0.69045  0.43789  0.4778899999999999  1.0000
  Ag  Ag2       1.0  0.09278  0.35792  0.39663  1.0000
  Ag  Ag3       1.0  0.30941  0.0621  0.97788  1.0000
  Ag  Ag4       1.0  0.9072599999999998  0.14216  0.8967499999999999  1.0000
  Ag  Ag5       1.0  0.30955999999999995  0.56211  0.52211  1.0000
  Ag  Ag6       1.0  0.90724  0.64209  0.60337  1.0000
  Ag  Ag7       1.0  0.69061  0.9379  0.02212  1.0000
  Ag  Ag8       1.0  0.09276  0.85785  0.10324999999999998  1.0000
  H   H1        1.0  0.88958  0.17383  0.50151  1.0000
  H   H2        1.0  0.77582  0.32034  0.5964  1.0000
  H   H3        1.0  0.11516000000000019  0.9513100000000001  0.5918699999999999  1.0000
  H   H4        1.0  0.99445  0.06379000000000001  0.5417299999999999  1.0000
  H   H5        1.0  0.85692  0.21396  0.64041  1.0000
  H   H6        1.0  0.94453  0.09482  0.68362  1.0000
  H   H7        1.0  0.686  0.58422  0.38264999999999993  1.0000
  H   H8        1.0  0.36889  0.51339  0.26328  1.0000
  H   H9        1.0  0.65416  0.76703  0.22485  1.0000
  H   H10       1.0  0.6291100000000002  0.65836  0.30177  1.0000
  H   H11       1.0  0.32534  0.60486  0.175  1.0000
  H   H12       1.0  0.3144  0.71434  0.10162999999999998  1.0000
  H   H13       1.0  0.11099  0.32602  0.00176  1.0000
  H   H14       1.0  0.22387000000000004  0.17961  0.09646  1.0000
  H   H15       1.0  0.8850700000000001  0.54864  0.09172  1.0000
  H   H16       1.0  0.005710000000000008  0.43611  0.04177  1.0000
  H   H17       1.0  0.14364000000000002  0.28605  0.14067  1.0000
  H   H18       1.0  0.05619000000000003  0.40523  0.18372  1.0000
  H   H19       1.0  0.31439  0.91588  0.88266  1.0000
  H   H20       1.0  0.6310400000000004  0.9866700000000002  0.7633  1.0000
  H   H21       1.0  0.34545999999999993  0.7329  0.72513  1.0000
  H   H22       1.0  0.37085999999999997  0.84166  0.80188  1.0000
  H   H23       1.0  0.6741500000000002  0.89501  0.67508  1.0000
  H   H24       1.0  0.6848600000000002  0.7854300000000002  0.60185  1.0000
  H   H25       1.0  0.11043999999999991  0.82617  0.49848999999999993  1.0000
  H   H26       1.0  0.2242  0.67966  0.4036  1.0000
  H   H27       1.0  0.88486  0.04869  0.40813  1.0000
  H   H28       1.0  0.005570000000000283  0.9362100000000001  0.45826999999999996  1.0000
  H   H29       1.0  0.14308999999999997  0.78604  0.35959  1.0000
  H   H30       1.0  0.05548000000000007  0.90518  0.31638  1.0000
  H   H31       1.0  0.3140099999999999  0.41578  0.61735  1.0000
  H   H32       1.0  0.63113  0.48661  0.73672  1.0000
  H   H33       1.0  0.34585  0.23297  0.77515  1.0000
  H   H34       1.0  0.37091  0.34164  0.69823  1.0000
  H   H35       1.0  0.67468  0.39514  0.825  1.0000
  H   H36       1.0  0.68562  0.28566  0.89837  1.0000
  H   H37       1.0  0.8890300000000002  0.67398  0.99824  1.0000
  H   H38       1.0  0.7761500000000002  0.8204  0.9035399999999999  1.0000
  H   H39       1.0  0.11494000000000008  0.45136000000000004  0.90828  1.0000
  H   H40       1.0  0.99431  0.56389  0.95823  1.0000
  H   H41       1.0  0.85638  0.71395  0.8593299999999999  1.0000
  H   H42       1.0  0.94383  0.59477  0.8162799999999999  1.0000
  H   H43       1.0  0.68562  0.08412  0.11734  1.0000
  H   H44       1.0  0.36898  0.01333  0.23669999999999997  1.0000
  H   H45       1.0  0.65456  0.2671  0.27487  1.0000
  H   H46       1.0  0.62916  0.15834  0.19811  1.0000
  H   H47       1.0  0.32586  0.10499  0.32492  1.0000
  H   H48       1.0  0.31516  0.21457  0.39814999999999995  1.0000
  C   C1        1.0  0.09858999999999998  0.22057  0.51951  1.0000
  C   C2        1.0  0.35714  0.21679  0.55985  1.0000
  C   C3        1.0  0.56032  0.2954  0.56636  1.0000
  C   C4        1.0  0.27518  0.01044  0.60137  1.0000
  C   C5        1.0  0.19338  0.07376  0.577  1.0000
  C   C6        1.0  0.41749  0.15005  0.58691  1.0000
  C   C7        1.0  0.69263  0.15734  0.62529  1.0000
  C   C8        1.0  0.75131  0.0899  0.64768  1.0000
  C   C9        1.0  0.8296  0.55349  0.35893  1.0000
  C   C10       1.0  0.003819999999999969  0.5679  0.29755  1.0000
  C   C11       1.0  0.18882999999999997  0.51837  0.29888  1.0000
  C   C12       1.0  0.78387  0.72714  0.21335  1.0000
  C   C13       1.0  0.79639  0.67056  0.25958  1.0000
  C   C14       1.0  0.9971000000000002  0.62645  0.24936999999999998  1.0000
  C   C15       1.0  0.18874999999999997  0.64233  0.19015  1.0000
  C   C16       1.0  0.16555  0.70007  0.14666  1.0000
  C   C17       1.0  0.90149  0.27931  0.01968  1.0000
  C   C18       1.0  0.64321  0.28314  0.06003  1.0000
  C   C19       1.0  0.43939  0.20455  0.06644  1.0000
  C   C20       1.0  0.7251199999999999  0.48950999999999995  0.10132999999999999  1.0000
  C   C21       1.0  0.80698  0.42618  0.07706  1.0000
  C   C22       1.0  0.58289  0.34989  0.08708999999999999  1.0000
  C   C23       1.0  0.30794  0.34266  0.12545  1.0000
  C   C24       1.0  0.24922000000000002  0.41012  0.14776  1.0000
  C   C25       1.0  0.17082000000000008  0.94662  0.8588799999999999  1.0000
  C   C26       1.0  0.9963000000000001  0.93216  0.79755  1.0000
  C   C27       1.0  0.8114500000000002  0.98174  0.7988399999999999  1.0000
  C   C28       1.0  0.21586000000000014  0.7728  0.7135299999999999  1.0000
  C   C29       1.0  0.20347000000000015  0.8294300000000001  0.75971  1.0000
  C   C30       1.0  0.0027099999999999624  0.87352  0.74946  1.0000
  C   C31       1.0  0.8108299999999998  0.85757  0.69027  1.0000
  C   C32       1.0  0.8339599999999998  0.7998  0.64683  1.0000
  C   C33       1.0  0.9014200000000002  0.77943  0.48049  1.0000
  C   C34       1.0  0.64288  0.78322  0.44015  1.0000
  C   C35       1.0  0.4397000000000001  0.7046  0.43364  1.0000
  C   C36       1.0  0.7248400000000003  0.98956  0.39863  1.0000
  C   C37       1.0  0.8066300000000002  0.9262400000000002  0.42299999999999993  1.0000
  C   C38       1.0  0.58253  0.84995  0.41309  1.0000
  C   C39       1.0  0.30737999999999993  0.84266  0.37471  1.0000
  C   C40       1.0  0.24870999999999996  0.9101  0.35232  1.0000
  C   C41       1.0  0.17040999999999998  0.44651  0.64107  1.0000
  C   C42       1.0  0.9962000000000001  0.43210000000000004  0.70245  1.0000
  C   C43       1.0  0.81119  0.48163  0.70112  1.0000
  C   C44       1.0  0.21615000000000006  0.27286  0.78665  1.0000
  C   C45       1.0  0.20363000000000003  0.32945  0.7404199999999999  1.0000
  C   C46       1.0  0.002920000000000057  0.37355  0.75063  1.0000
  C   C47       1.0  0.81126  0.35768  0.80985  1.0000
  C   C48       1.0  0.83447  0.29993  0.8533399999999999  1.0000
  C   C49       1.0  0.09853000000000005  0.72069  0.9803199999999999  1.0000
  C   C50       1.0  0.35681  0.71686  0.9399699999999999  1.0000
  C   C51       1.0  0.5606299999999997  0.79545  0.93356  1.0000
  C   C52       1.0  0.2749  0.51049  0.8986699999999999  1.0000
  C   C53       1.0  0.19304000000000016  0.57382  0.92294  1.0000
  C   C54       1.0  0.41713  0.65011  0.91291  1.0000
  C   C55       1.0  0.6920799999999998  0.65734  0.87455  1.0000
  C   C56       1.0  0.7508  0.58988  0.8522399999999999  1.0000
  C   C57       1.0  0.8292  0.05339  0.14112  1.0000
  C   C58       1.0  0.0037200000000000098  0.06784  0.20244999999999996  1.0000
  C   C59       1.0  0.18857  0.01826  0.20115999999999998  1.0000
  C   C60       1.0  0.78416  0.2272  0.28647  1.0000
  C   C61       1.0  0.79655  0.17057  0.24028999999999998  1.0000
  C   C62       1.0  0.9973100000000001  0.12648  0.25054  1.0000
  C   C63       1.0  0.18919  0.14243  0.30973  1.0000
  C   C64       1.0  0.16605000000000003  0.20020000000000002  0.35317  1.0000
  N   N1        1.0  0.4221  0.34121  0.53367  1.0000
  N   N2        1.0  0.13272999999999996  0.29537  0.50349  1.0000
  N   N3        1.0  0.54355  0.016850000000000004  0.63649  1.0000
  N   N4        1.0  0.1373099999999999  0.47716  0.35727  1.0000
  N   N5        1.0  0.91611  0.50008  0.39373  1.0000
  N   N6        1.0  0.9757700000000001  0.74377  0.15767  1.0000
  N   N7        1.0  0.57722  0.15874  0.03367  1.0000
  N   N8        1.0  0.86678  0.20453  0.0035399999999999997  1.0000
  N   N9        1.0  0.4569799999999999  0.48316999999999993  0.13646  1.0000
  N   N10       1.0  0.86337  0.02302  0.8571899999999999  1.0000
  N   N11       1.0  0.08472  0.00010000000000000003  0.8936099999999999  1.0000
  N   N12       1.0  0.023950000000000034  0.75613  0.65784  1.0000
  N   N13       1.0  0.5779199999999998  0.65879  0.46631999999999996  1.0000
  N   N14       1.0  0.86729  0.70463  0.49650999999999995  1.0000
  N   N15       1.0  0.45645999999999975  0.9831499999999999  0.36351  1.0000
  N   N16       1.0  0.86271  0.52284  0.6427299999999999  1.0000
  N   N17       1.0  0.0839000000000001  0.49992000000000003  0.60627  1.0000
  N   N18       1.0  0.02425000000000004  0.25623  0.84233  1.0000
  N   N19       1.0  0.42279999999999984  0.84126  0.96633  1.0000
  N   N20       1.0  0.13323999999999986  0.79547  0.9964599999999999  1.0000
  N   N21       1.0  0.5430400000000001  0.5168300000000001  0.86354  1.0000
  N   N22       1.0  0.13665000000000005  0.9769900000000001  0.14280999999999996  1.0000
  N   N23       1.0  0.9153000000000002  0.9999000000000001  0.10638999999999998  1.0000
  N   N24       1.0  0.97607  0.24387  0.34216  1.0000
