data_image0
_chemical_formula_structural       Cd2H48C80S8N2O16
_chemical_formula_sum              "Cd2 H48 C80 S8 N2 O16"
_cell_length_a       8.72898
_cell_length_b       12.67997
_cell_length_c       19.80237
_cell_angle_alpha    81.9245
_cell_angle_beta     78.43443
_cell_angle_gamma    88.66759999999998

_symmetry_space_group_name_H-M    'P 1'
_symmetry_Int_Tables_number       1

loop_
  _symmetry_equiv_pos_as_xyz
  'x,y,z'

loop_
  _atom_site_type_symbol
  _atom_site_label
  _atom_site_symmetry_multiplicity
  _atom_site_fract_x
  _atom_site_fract_y
  _atom_site_fract_z
  _atom_site_occupancy
  Cd  Cd1       1.0  0.62974  0.66239  0.01288  1.0000
  Cd  Cd2       1.0  0.3702500000000001  0.33760999999999997  0.98712  1.0000
  H   H1        1.0  0.03955000000000003  0.764  0.77169  1.0000
  H   H2        1.0  0.030509999999999968  0.8846199999999999  0.6623  1.0000
  H   H3        1.0  0.6984400000000003  0.08313999999999999  0.77738  1.0000
  H   H4        1.0  0.7078900000000001  0.96161  0.8861700000000001  1.0000
  H   H5        1.0  0.054419999999999996  0.14326  0.72929  1.0000
  H   H6        1.0  0.09482000000000002  0.26762  0.81068  1.0000
  H   H7        1.0  0.7834900000000001  0.493  0.72676  1.0000
  H   H8        1.0  0.7341699999999999  0.3673999999999999  0.64796  1.0000
  H   H9        1.0  0.5046100000000002  0.8624  0.39169  1.0000
  H   H10       1.0  0.49797  0.72771  0.31288  1.0000
  H   H11       1.0  0.7136500000000002  0.95119  0.13789  1.0000
  H   H12       1.0  0.7323000000000002  0.08415  0.21685  1.0000
  H   H13       1.0  0.39642000000000016  0.14673  0.28064  1.0000
  H   H14       1.0  0.33866  0.26807  0.17925  1.0000
  H   H15       1.0  0.7328100000000002  0.46415999999999996  0.18081  1.0000
  H   H16       1.0  0.78852  0.34712  0.28323  1.0000
  H   H17       1.0  0.24653000000000005  0.62162  0.04004  1.0000
  H   H18       1.0  0.006100000000000003  0.7322299999999999  0.04911  1.0000
  H   H19       1.0  0.30409  0.011050000000000025  0.99108  1.0000
  H   H20       1.0  0.5332399999999999  0.8877899999999999  0.98208  1.0000
  H   H21       1.0  0.89008  0.90451  0.03345  1.0000
  H   H22       1.0  0.9832900000000001  0.98552  0.07938  1.0000
  H   H23       1.0  0.93564  0.6062000000000001  0.84398  1.0000
  H   H24       1.0  0.56429  0.60436  0.16825  1.0000
  H   H25       1.0  0.9604500000000001  0.23600999999999997  0.22831000000000004  1.0000
  H   H26       1.0  0.96949  0.11537999999999998  0.3377  1.0000
  H   H27       1.0  0.30156  0.91687  0.22262  1.0000
  H   H28       1.0  0.29211  0.0384  0.11383999999999998  1.0000
  H   H29       1.0  0.9455800000000001  0.85674  0.27071  1.0000
  H   H30       1.0  0.90518  0.73238  0.18932  1.0000
  H   H31       1.0  0.2165  0.507  0.27324  1.0000
  H   H32       1.0  0.26583  0.63261  0.35204  1.0000
  H   H33       1.0  0.49539  0.1376  0.60831  1.0000
  H   H34       1.0  0.5020200000000001  0.2723  0.68712  1.0000
  H   H35       1.0  0.28633999999999993  0.048809999999999965  0.8621100000000002  1.0000
  H   H36       1.0  0.2677  0.9158499999999996  0.78315  1.0000
  H   H37       1.0  0.6035799999999999  0.85327  0.71936  1.0000
  H   H38       1.0  0.6613300000000003  0.7319299999999999  0.82075  1.0000
  H   H39       1.0  0.2671799999999999  0.53584  0.81919  1.0000
  H   H40       1.0  0.21146999999999996  0.65289  0.71677  1.0000
  H   H41       1.0  0.7534700000000002  0.3783799999999999  0.95996  1.0000
  H   H42       1.0  0.9939  0.2677699999999999  0.95089  1.0000
  H   H43       1.0  0.6959000000000002  0.98895  0.00892  1.0000
  H   H44       1.0  0.46676  0.11222  0.01792  1.0000
  H   H45       1.0  0.10992  0.09550000000000003  0.9665499999999999  1.0000
  H   H46       1.0  0.01670999999999998  0.014480000000000017  0.92062  1.0000
  H   H47       1.0  0.06435  0.39380999999999994  0.15602  1.0000
  H   H48       1.0  0.4356999999999999  0.39564  0.83176  1.0000
  C   C1        1.0  0.8639100000000001  0.7748099999999998  0.90041  1.0000
  C   C2        1.0  0.8761000000000001  0.85544  0.83639  1.0000
  C   C3        1.0  0.96664  0.83461  0.77277  1.0000
  C   C4        1.0  0.9609200000000001  0.90214  0.71146  1.0000
  C   C5        1.0  0.8661200000000003  0.99345  0.71255  1.0000
  C   C6        1.0  0.7754800000000003  0.014539999999999989  0.77642  1.0000
  C   C7        1.0  0.78098  0.94649  0.83732  1.0000
  C   C8        1.0  0.85616  0.06317  0.64764  1.0000
  C   C9        1.0  0.8595300000000003  0.17207999999999998  0.63631  1.0000
  C   C10       1.0  0.9764700000000001  0.46166000000000007  0.82113  1.0000
  C   C11       1.0  0.99186  0.21837999999999996  0.72978  1.0000
  C   C12       1.0  0.016310000000000022  0.2882699999999999  0.77469  1.0000
  C   C13       1.0  0.94244  0.38803999999999994  0.77373  1.0000
  C   C14       1.0  0.8412099999999999  0.41604  0.72739  1.0000
  C   C15       1.0  0.8142100000000003  0.34531  0.68319  1.0000
  C   C16       1.0  0.88794  0.24506  0.68382  1.0000
  C   C17       1.0  0.7928499999999999  0.11331000000000001  0.52422  1.0000
  C   C18       1.0  0.7389499999999999  0.11223  0.46444  1.0000
  C   C19       1.0  0.6412600000000003  0.05680000000000001  0.35794  1.0000
  C   C20       1.0  0.61833  0.9831299999999998  0.30981  1.0000
  C   C21       1.0  0.5520400000000001  0.88173  0.3362  1.0000
  C   C22       1.0  0.54671  0.80631  0.2921  1.0000
  C   C23       1.0  0.6048700000000002  0.83107  0.22035  1.0000
  C   C24       1.0  0.66796  0.93288  0.19348  1.0000
  C   C25       1.0  0.67657  0.007520000000000011  0.23758999999999997  1.0000
  C   C26       1.0  0.63862  0.16580999999999999  0.34807  1.0000
  C   C27       1.0  0.59768  0.23718  0.28912  1.0000
  C   C28       1.0  0.47004000000000007  0.21621  0.25902  1.0000
  C   C29       1.0  0.43737  0.28418  0.20206  1.0000
  C   C30       1.0  0.52987  0.37495999999999996  0.17413  1.0000
  C   C31       1.0  0.6568800000000002  0.39636  0.204  1.0000
  C   C32       1.0  0.68902  0.32925999999999994  0.26114  1.0000
  C   C33       1.0  0.49631000000000003  0.45017999999999997  0.11391  1.0000
  C   C34       1.0  0.60565  0.7508199999999999  0.17275  1.0000
  C   C35       1.0  0.25401  0.70825  0.02922  1.0000
  C   C36       1.0  0.12020000000000003  0.7709599999999998  0.03448  1.0000
  C   C37       1.0  0.13479000000000002  0.8820999999999998  0.0218  1.0000
  C   C38       1.0  0.28614  0.9252999999999998  0.00225  1.0000
  C   C39       1.0  0.41380000000000006  0.8579799999999997  0.9973  1.0000
  C   C40       1.0  0.99429  0.95328  0.02976  1.0000
  C   C41       1.0  0.13608  0.2252  0.09959  1.0000
  C   C42       1.0  0.12389000000000001  0.14456  0.16361  1.0000
  C   C43       1.0  0.03334999999999999  0.1654  0.22723  1.0000
  C   C44       1.0  0.03907000000000001  0.09786999999999998  0.28854  1.0000
  C   C45       1.0  0.13387  0.006550000000000007  0.28746  1.0000
  C   C46       1.0  0.22452  0.9854699999999998  0.22358  1.0000
  C   C47       1.0  0.21901000000000004  0.053509999999999995  0.16268  1.0000
  C   C48       1.0  0.14383000000000004  0.9368299999999998  0.35236  1.0000
  C   C49       1.0  0.14046  0.8279199999999999  0.36369  1.0000
  C   C50       1.0  0.02352  0.53834  0.17887  1.0000
  C   C51       1.0  0.00813  0.7816199999999998  0.27022  1.0000
  C   C52       1.0  0.9836900000000001  0.7117299999999999  0.22531  1.0000
  C   C53       1.0  0.05755  0.6119699999999999  0.22627  1.0000
  C   C54       1.0  0.15878  0.58396  0.27261  1.0000
  C   C55       1.0  0.18579  0.65469  0.31681  1.0000
  C   C56       1.0  0.11205999999999997  0.75494  0.31618  1.0000
  C   C57       1.0  0.20714999999999995  0.8867  0.47578000000000004  1.0000
  C   C58       1.0  0.26105  0.88777  0.53557  1.0000
  C   C59       1.0  0.35873  0.9432  0.64206  1.0000
  C   C60       1.0  0.38166000000000017  0.016870000000000013  0.69019  1.0000
  C   C61       1.0  0.4479600000000001  0.11827  0.6638  1.0000
  C   C62       1.0  0.45328000000000007  0.19369  0.7079  1.0000
  C   C63       1.0  0.39513  0.16893  0.77965  1.0000
  C   C64       1.0  0.33204000000000017  0.06711999999999996  0.80652  1.0000
  C   C65       1.0  0.32342000000000004  0.99249  0.76241  1.0000
  C   C66       1.0  0.3613800000000001  0.8342  0.65193  1.0000
  C   C67       1.0  0.40231000000000006  0.76282  0.71088  1.0000
  C   C68       1.0  0.52996  0.78379  0.74098  1.0000
  C   C69       1.0  0.56263  0.7158199999999998  0.79794  1.0000
  C   C70       1.0  0.47012000000000004  0.62505  0.82587  1.0000
  C   C71       1.0  0.34311  0.6036399999999997  0.796  1.0000
  C   C72       1.0  0.3109700000000001  0.67075  0.73886  1.0000
  C   C73       1.0  0.5036900000000002  0.5498200000000001  0.8860899999999999  1.0000
  C   C74       1.0  0.39435000000000003  0.24918000000000004  0.82725  1.0000
  C   C75       1.0  0.74598  0.2917499999999999  0.97078  1.0000
  C   C76       1.0  0.8797900000000002  0.22904000000000002  0.96552  1.0000
  C   C77       1.0  0.86521  0.11790000000000005  0.9782  1.0000
  C   C78       1.0  0.71385  0.07470999999999997  0.9977500000000001  1.0000
  C   C79       1.0  0.5862  0.14202  0.0027  1.0000
  C   C80       1.0  0.005700000000000028  0.04672000000000002  0.9702399999999999  1.0000
  S   S1        1.0  0.70308  0.22973999999999997  0.41098  1.0000
  S   S2        1.0  0.7077500000000001  0.99414  0.4319200000000001  1.0000
  S   S3        1.0  0.83088  0.99711  0.57809  1.0000
  S   S4        1.0  0.8380100000000001  0.23213999999999999  0.55265  1.0000
  S   S5        1.0  0.29691000000000006  0.77027  0.58902  1.0000
  S   S6        1.0  0.29224000000000006  0.005860000000000005  0.56808  1.0000
  S   S7        1.0  0.16911000000000007  0.002889999999999996  0.42191  1.0000
  S   S8        1.0  0.16198  0.76786  0.44735  1.0000
  N   N1        1.0  0.39889000000000013  0.75104  0.01107  1.0000
  N   N2        1.0  0.6011100000000001  0.24896  0.98893  1.0000
  O   O1        1.0  0.93236  0.6864400000000002  0.8985099999999999  1.0000
  O   O2        1.0  0.7721500000000004  0.7997400000000001  0.95583  1.0000
  O   O3        1.0  0.9182  0.5597800000000002  0.80798  1.0000
  O   O4        1.0  0.052799999999999965  0.43465  0.86685  1.0000
  O   O5        1.0  0.55558  0.65482  0.20478  1.0000
  O   O6        1.0  0.6513700000000001  0.77252  0.10859  1.0000
  O   O7        1.0  0.4021900000000001  0.42882  0.07734  1.0000
  O   O8        1.0  0.57067  0.5409  0.10435999999999998  1.0000
  O   O9        1.0  0.06763  0.31357000000000007  0.10149  1.0000
  O   O10       1.0  0.22784  0.20026  0.04417  1.0000
  O   O11       1.0  0.08180000000000001  0.44022  0.19202  1.0000
  O   O12       1.0  0.94719  0.56536  0.13315  1.0000
  O   O13       1.0  0.44442000000000015  0.34518  0.79522  1.0000
  O   O14       1.0  0.34863  0.22748000000000002  0.89141  1.0000
  O   O15       1.0  0.5978000000000001  0.57118  0.92266  1.0000
  O   O16       1.0  0.4293199999999999  0.45910999999999996  0.8956400000000001  1.0000
