data_image0
_chemical_formula_structural       V8Cu4H48C60N12O16
_chemical_formula_sum              "V8 Cu4 H48 C60 N12 O16"
_cell_length_a       10.76702
_cell_length_b       11.970560000000003
_cell_length_c       16.6712
_cell_angle_alpha    104.63149999999999
_cell_angle_beta     109.33859
_cell_angle_gamma    89.80852

_symmetry_space_group_name_H-M    'P 1'
_symmetry_Int_Tables_number       1

loop_
  _symmetry_equiv_pos_as_xyz
  'x,y,z'

loop_
  _atom_site_type_symbol
  _atom_site_label
  _atom_site_symmetry_multiplicity
  _atom_site_fract_x
  _atom_site_fract_y
  _atom_site_fract_z
  _atom_site_occupancy
  V   V1        1.0  0.05739  0.95428  0.29574  1.0000
  V   V2        1.0  0.7597999999999999  0.54445  0.7006999999999998  1.0000
  V   V3        1.0  0.23963999999999988  0.45548  0.3026299999999999  1.0000
  V   V4        1.0  0.02902999999999997  0.19008  0.19948999999999995  1.0000
  V   V5        1.0  0.9641999999999997  0.8131300000000001  0.7999899999999998  1.0000
  V   V6        1.0  0.16352999999999998  0.6858400000000001  0.19873  1.0000
  V   V7        1.0  0.9377599999999995  0.04912999999999992  0.7014399999999997  1.0000
  V   V8        1.0  0.8308099999999998  0.31302  0.8036099999999998  1.0000
  Cu  Cu1       1.0  0.0003199999999999996  0.9996800000000001  0.00049  1.0000
  Cu  Cu2       1.0  0.006339999999999998  0.50173  0.0035499999999999993  1.0000
  Cu  Cu3       1.0  0.49954999999999994  0.49876  0.50052  1.0000
  Cu  Cu4       1.0  0.0005999999999999548  0.98225  0.4922199999999999  1.0000
  H   H1        1.0  0.15314999999999995  0.19651  0.44463999999999987  1.0000
  H   H2        1.0  0.43732  0.19445000000000007  0.23099999999999996  1.0000
  H   H3        1.0  0.8948099999999999  0.4525300000000001  0.59294  1.0000
  H   H4        1.0  0.10126999999999979  0.31261999999999995  0.8826299999999998  1.0000
  H   H5        1.0  0.31423999999999985  0.6420700000000001  0.5812599999999998  1.0000
  H   H6        1.0  0.20515  0.3045800000000001  0.7687  1.0000
  H   H7        1.0  0.8826799999999999  0.33032000000000006  0.05319  1.0000
  H   H8        1.0  0.31961999999999996  0.24561999999999998  0.3869499999999999  1.0000
  H   H9        1.0  0.73158  0.86289  0.4258399999999999  1.0000
  H   H10       1.0  0.12426  0.85833  0.63582  1.0000
  H   H11       1.0  0.48801999999999984  0.14140999999999995  0.6857599999999998  1.0000
  H   H12       1.0  0.60158  0.65604  0.25571  1.0000
  H   H13       1.0  0.66058  0.15288000000000002  0.25748  1.0000
  H   H14       1.0  0.49438999999999994  0.64474  0.36476  1.0000
  H   H15       1.0  0.68106  0.75398  0.61188  1.0000
  H   H16       1.0  0.21920999999999982  0.67939  0.8339799999999998  1.0000
  H   H17       1.0  0.11322999999999986  0.67167  0.9422599999999998  1.0000
  H   H18       1.0  0.6136999999999999  0.1781199999999999  0.8348099999999998  1.0000
  H   H19       1.0  0.2622699999999999  0.1411  0.5797199999999998  1.0000
  H   H20       1.0  0.7786899999999998  0.32139  0.16290999999999994  1.0000
  H   H21       1.0  0.5645699999999999  0.80323  0.76705  1.0000
  H   H22       1.0  0.19644999999999999  0.6426700000000001  0.68696  1.0000
  H   H23       1.0  0.8033  0.3571400000000001  0.31118  1.0000
  H   H24       1.0  0.8653899999999999  0.61178  0.57467  1.0000
  H   H25       1.0  0.7088199999999999  0.11088999999999995  0.5780899999999998  1.0000
  H   H26       1.0  0.3994499999999999  0.34474999999999995  0.7435399999999999  1.0000
  H   H27       1.0  0.29976999999999987  0.04892999999999997  0.4057699999999999  1.0000
  H   H28       1.0  0.13041999999999998  0.39192  0.42220999999999986  1.0000
  H   H29       1.0  0.68696  0.35859000000000013  0.41784  1.0000
  H   H30       1.0  0.6978499999999999  0.9538  0.59808  1.0000
  H   H31       1.0  0.34313999999999983  0.8453800000000001  0.7433299999999998  1.0000
  H   H32       1.0  0.7065199999999998  0.30673999999999996  0.5562499999999998  1.0000
  H   H33       1.0  0.78252  0.8102199999999999  0.8823899999999998  1.0000
  H   H34       1.0  0.50867  0.35716  0.63591  1.0000
  H   H35       1.0  0.85583  0.8114  0.55893  1.0000
  H   H36       1.0  0.93674  0.25570000000000004  0.61202  1.0000
  H   H37       1.0  0.17107  0.8270300000000003  0.05671  1.0000
  H   H38       1.0  0.5108099999999999  0.85847  0.3144699999999999  1.0000
  H   H39       1.0  0.79699  0.6965000000000001  0.23157999999999995  1.0000
  H   H40       1.0  0.21711999999999998  0.18641  0.11714999999999998  1.0000
  H   H41       1.0  0.87607  0.14363  0.37037  1.0000
  H   H42       1.0  0.38762  0.8197800000000001  0.16622  1.0000
  H   H43       1.0  0.89656  0.6897600000000002  0.11619999999999997  1.0000
  H   H44       1.0  0.2952  0.69209  0.44125999999999993  1.0000
  H   H45       1.0  0.2897099999999999  0.8908900000000001  0.4241499999999999  1.0000
  H   H46       1.0  0.8303199999999998  0.16984  0.94444  1.0000
  H   H47       1.0  0.06909999999999998  0.7474  0.3891  1.0000
  H   H48       1.0  0.09862000000000004  0.54758  0.40255  1.0000
  C   C1        1.0  0.6186699999999999  0.24604999999999994  0.5229099999999998  1.0000
  C   C2        1.0  0.5893599999999999  0.9222199999999999  0.3231999999999999  1.0000
  C   C3        1.0  0.6711299999999999  0.08721  0.2934699999999999  1.0000
  C   C4        1.0  0.28801999999999983  0.49351000000000006  0.7256899999999997  1.0000
  C   C5        1.0  0.9882899999999998  0.56021  0.4924499999999999  1.0000
  C   C6        1.0  0.23235  0.90671  0.09624  1.0000
  C   C7        1.0  0.3306  0.57781  0.61875  1.0000
  C   C8        1.0  0.9774399999999998  0.28938  0.5700399999999998  1.0000
  C   C9        1.0  0.38205999999999996  0.7536800000000002  0.4759799999999999  1.0000
  C   C10       1.0  0.5968299999999997  0.78741  0.5699499999999997  1.0000
  C   C11       1.0  0.41002999999999984  0.07738999999999993  0.6776199999999998  1.0000
  C   C12       1.0  0.90708  0.74923  0.52422  1.0000
  C   C13       1.0  0.6469499999999998  0.09394999999999995  0.8415499999999998  1.0000
  C   C14       1.0  0.7124599999999999  0.5068300000000001  0.273  1.0000
  C   C15       1.0  0.02708999999999992  0.7143000000000003  0.4306599999999999  1.0000
  C   C16       1.0  0.2077499999999998  0.91856  0.6474399999999998  1.0000
  C   C17       1.0  0.22315999999999978  0.49194000000000004  0.7908299999999998  1.0000
  C   C18       1.0  0.8706599999999999  0.6101499999999999  0.12943999999999994  1.0000
  C   C19       1.0  0.4375299999999998  0.41811  0.6480899999999998  1.0000
  C   C20       1.0  0.18850999999999998  0.38820000000000005  0.8064299999999999  1.0000
  C   C21       1.0  0.6187899999999998  0.8868  0.8055999999999998  1.0000
  C   C22       1.0  0.09838999999999994  0.25691  0.4776899999999999  1.0000
  C   C23       1.0  0.7336999999999999  0.42155  0.31954  1.0000
  C   C24       1.0  0.8123499999999999  0.61298  0.19300999999999996  1.0000
  C   C25       1.0  0.007979999999999996  0.44216000000000005  0.5049  1.0000
  C   C26       1.0  0.79242  0.08251000000000001  0.3568  1.0000
  C   C27       1.0  0.13531999999999988  0.5919900000000001  0.9031699999999998  1.0000
  C   C28       1.0  0.43426999999999993  0.007149999999999981  0.20900999999999995  1.0000
  C   C29       1.0  0.40356999999999993  0.21273000000000006  0.42956  1.0000
  C   C30       1.0  0.91603  0.6373000000000001  0.53454  1.0000
  C   C31       1.0  0.08225999999999993  0.36667  0.4636099999999999  1.0000
  C   C32       1.0  0.042279999999999915  0.6016000000000001  0.4382399999999999  1.0000
  C   C33       1.0  0.7424699999999996  0.88975  0.8690099999999997  1.0000
  C   C34       1.0  0.28441  0.07688  0.61717  1.0000
  C   C35       1.0  0.7687999999999999  0.0904699999999999  0.9043799999999997  1.0000
  C   C36       1.0  0.5648899999999998  0.005869999999999954  0.2751399999999999  1.0000
  C   C37       1.0  0.49606  0.94184  0.50744  1.0000
  C   C38       1.0  0.71251  0.92506  0.3865899999999999  1.0000
  C   C39       1.0  0.56446  0.5830300000000002  0.35169  1.0000
  C   C40       1.0  0.61806  0.13596  0.53647  1.0000
  C   C41       1.0  0.39354  0.10163  0.4400099999999999  1.0000
  C   C42       1.0  0.38097999999999993  0.86521  0.4648599999999999  1.0000
  C   C43       1.0  0.8618299999999998  0.40949000000000013  0.09358  1.0000
  C   C44       1.0  0.5024199999999999  0.059959999999999986  0.4948799999999999  1.0000
  C   C45       1.0  0.12809999999999985  0.39164  0.8690199999999998  1.0000
  C   C46       1.0  0.67042  0.4228  0.3802899999999999  1.0000
  C   C47       1.0  0.26636999999999983  0.57848  0.6788599999999998  1.0000
  C   C48       1.0  0.19422  0.5952200000000001  0.841  1.0000
  C   C49       1.0  0.7772199999999999  0.5088300000000001  0.20789999999999995  1.0000
  C   C50       1.0  0.37578999999999974  0.41144  0.7083099999999998  1.0000
  C   C51       1.0  0.56775  0.9907900000000002  0.79025  1.0000
  C   C52       1.0  0.43667  0.9928400000000002  0.72484  1.0000
  C   C53       1.0  0.35463  0.9037700000000001  0.15881999999999996  1.0000
  C   C54       1.0  0.38282999999999995  0.11077000000000001  0.19313  1.0000
  C   C55       1.0  0.6250799999999999  0.58919  0.29077999999999987  1.0000
  C   C56       1.0  0.25851  0.10727  0.1304  1.0000
  C   C57       1.0  0.33092999999999995  0.91148  0.70762  1.0000
  C   C58       1.0  0.6051099999999998  0.90009  0.5621099999999998  1.0000
  C   C59       1.0  0.8047  0.40574  0.15656999999999993  1.0000
  C   C60       1.0  0.95489  0.40028  0.55932  1.0000
  N   N1        1.0  0.18320000000000003  0.006470000000000001  0.08128  1.0000
  N   N2        1.0  0.10181999999999987  0.49224999999999997  0.9177299999999998  1.0000
  N   N3        1.0  0.96301  0.78969  0.47438  1.0000
  N   N4        1.0  0.58662  0.50195  0.3970999999999999  1.0000
  N   N5        1.0  0.5138999999999999  0.28604000000000007  0.47059  1.0000
  N   N6        1.0  0.18265  0.9993300000000002  0.60155  1.0000
  N   N7        1.0  0.4879  0.71296  0.52659  1.0000
  N   N8        1.0  0.4160699999999997  0.4996499999999999  0.6030999999999997  1.0000
  N   N9        1.0  0.81415  0.003889999999999957  0.40450999999999987  1.0000
  N   N10       1.0  0.04801000000000002  0.21711000000000005  0.5301  1.0000
  N   N11       1.0  0.8176199999999999  0.9903900000000001  0.9188599999999998  1.0000
  N   N12       1.0  0.8945199999999999  0.50963  0.07900999999999997  1.0000
  O   O1        1.0  0.10553999999999997  0.8239300000000002  0.23807  1.0000
  O   O2        1.0  0.3126399999999999  0.4777800000000001  0.4105199999999999  1.0000
  O   O3        1.0  0.05325999999999991  0.84477  0.9060299999999998  1.0000
  O   O4        1.0  0.8694299999999999  0.17239  0.74663  1.0000
  O   O5        1.0  0.14353  0.64444  0.09183999999999998  1.0000
  O   O6        1.0  0.7683099999999999  0.42248  0.7459799999999998  1.0000
  O   O7        1.0  0.68896  0.52135  0.59187  1.0000
  O   O8        1.0  0.95648  0.15602  0.09099  1.0000
  O   O9        1.0  0.21309999999999996  0.5835  0.26572999999999997  1.0000
  O   O10       1.0  0.8623699999999999  0.6771100000000001  0.7545199999999999  1.0000
  O   O11       1.0  0.024699999999999986  0.08258000000000001  0.25842  1.0000
  O   O12       1.0  0.8749399999999998  0.34403  0.9125199999999998  1.0000
  O   O13       1.0  0.09489999999999991  0.9711  0.4038299999999999  1.0000
  O   O14       1.0  0.95106  0.9217999999999998  0.7386999999999998  1.0000
  O   O15       1.0  0.13217999999999994  0.32784  0.25341999999999987  1.0000
  O   O16       1.0  0.9057299999999999  0.02666999999999999  0.59483  1.0000
