data_image0
_chemical_formula_structural       Ce8H16C56N16O48
_chemical_formula_sum              "Ce8 H16 C56 N16 O48"
_cell_length_a       10.61394
_cell_length_b       12.21635
_cell_length_c       19.08875
_cell_angle_alpha    90.33635
_cell_angle_beta     90.28955999999998
_cell_angle_gamma    90.06567

_space_group_name_H-M_alt    "P 1"
_space_group_IT_number       1

loop_
  _space_group_symop_operation_xyz
  'x, y, z'

loop_
  _atom_site_type_symbol
  _atom_site_label
  _atom_site_symmetry_multiplicity
  _atom_site_fract_x
  _atom_site_fract_y
  _atom_site_fract_z
  _atom_site_occupancy
  Ce  Ce1       1.0  0.37181000000000003  0.82817  0.8807599999999999  1.0000
  Ce  Ce2       1.0  0.88187  0.01044  0.65474  1.0000
  Ce  Ce3       1.0  0.63728  0.17226  0.37923  1.0000
  Ce  Ce4       1.0  0.12140000000000001  0.98902  0.15472  1.0000
  Ce  Ce5       1.0  0.1299  0.32764  0.87973  1.0000
  Ce  Ce6       1.0  0.62068  0.51135  0.65377  1.0000
  Ce  Ce7       1.0  0.8718  0.67418  0.38132000000000005  1.0000
  Ce  Ce8       1.0  0.37866  0.48836999999999997  0.15518  1.0000
  H   H1        1.0  0.1478  0.98315  0.77099  1.0000
  H   H2        1.0  0.28181  0.7113599999999999  0.5994  1.0000
  H   H3        1.0  0.67019  0.89337  0.79013  1.0000
  H   H4        1.0  0.47904  0.25461  0.78347  1.0000
  H   H5        1.0  0.85477  0.01503  0.26865  1.0000
  H   H6        1.0  0.72085  0.28745  0.09857  1.0000
  H   H7        1.0  0.33181  0.10729  0.29117  1.0000
  H   H8        1.0  0.519  0.74454  0.2854  1.0000
  H   H9        1.0  0.35423000000000004  0.48545  0.7705  1.0000
  H   H10       1.0  0.22013  0.21159  0.59926  1.0000
  H   H11       1.0  0.82934  0.39369  0.78988  1.0000
  H   H12       1.0  0.021460000000000003  0.75492  0.78393  1.0000
  H   H13       1.0  0.64476  0.5172  0.27048  1.0000
  H   H14       1.0  0.7762100000000001  0.78959  0.10026  1.0000
  H   H15       1.0  0.17115000000000002  0.60836  0.28975  1.0000
  H   H16       1.0  0.98212  0.24581999999999998  0.28522000000000003  1.0000
  C   C1        1.0  0.17661  0.92124  0.73309  1.0000
  C   C2        1.0  0.14168  0.83355  0.62713  1.0000
  C   C3        1.0  0.25078  0.77114  0.63808  1.0000
  C   C4        1.0  0.31573  0.78646  0.70138  1.0000
  C   C5        1.0  0.4252  0.71497  0.72483  1.0000
  C   C6        1.0  0.053720000000000004  0.82345  0.56269  1.0000
  C   C7        1.0  0.62708  0.974  0.78876  1.0000
  C   C8        1.0  0.63637  0.15287  0.75236  1.0000
  C   C9        1.0  0.52134  0.17378  0.7846900000000001  1.0000
  C   C10       1.0  0.46120000000000005  0.08625999999999998  0.81676  1.0000
  C   C11       1.0  0.32903  0.09568999999999998  0.84527  1.0000
  C   C12       1.0  0.70622  0.24096  0.71197  1.0000
  C   C13       1.0  0.8187700000000001  0.12833  0.50998  1.0000
  C   C14       1.0  0.69269  0.07147  0.53061  1.0000
  C   C15       1.0  0.82616  0.07718  0.23118  1.0000
  C   C16       1.0  0.86063  0.16447  0.1259  1.0000
  C   C17       1.0  0.75202  0.22757999999999998  0.13693  1.0000
  C   C18       1.0  0.68818  0.21313999999999994  0.20016  1.0000
  C   C19       1.0  0.58007  0.28551  0.22426  1.0000
  C   C20       1.0  0.94899  0.17423  0.06223  1.0000
  C   C21       1.0  0.37473  0.02659  0.28962  1.0000
  C   C22       1.0  0.36344  0.84715  0.25298  1.0000
  C   C23       1.0  0.47827  0.8259599999999999  0.28601  1.0000
  C   C24       1.0  0.54009  0.91384  0.31786  1.0000
  C   C25       1.0  0.67294  0.90399  0.34638  1.0000
  C   C26       1.0  0.29258  0.75942  0.21152000000000004  1.0000
  C   C27       1.0  0.18736  0.8746599999999999  0.00869  1.0000
  C   C28       1.0  0.31315  0.9314599999999997  0.03125  1.0000
  C   C29       1.0  0.32543  0.42318  0.73266  1.0000
  C   C30       1.0  0.3598  0.33496  0.62715  1.0000
  C   C31       1.0  0.25128  0.27185  0.63784  1.0000
  C   C32       1.0  0.18711  0.28715  0.7009  1.0000
  C   C33       1.0  0.07907  0.21463  0.72427  1.0000
  C   C34       1.0  0.44665000000000005  0.32391  0.56313  1.0000
  C   C35       1.0  0.8729  0.47426  0.7886900000000001  1.0000
  C   C36       1.0  0.86352  0.65328  0.75251  1.0000
  C   C37       1.0  0.97896  0.67414  0.78496  1.0000
  C   C38       1.0  0.03939  0.58657  0.81691  1.0000
  C   C39       1.0  0.17191  0.59604  0.84556  1.0000
  C   C40       1.0  0.79381  0.74131  0.71194  1.0000
  C   C41       1.0  0.68751  0.62666  0.509  1.0000
  C   C42       1.0  0.81428  0.57265  0.53187  1.0000
  C   C43       1.0  0.67321  0.57908  0.23290000000000002  1.0000
  C   C44       1.0  0.63676  0.6666  0.1277  1.0000
  C   C45       1.0  0.74575  0.72951  0.13852  1.0000
  C   C46       1.0  0.81132  0.7142999999999998  0.20145000000000002  1.0000
  C   C47       1.0  0.9210600000000001  0.78589  0.22471000000000002  1.0000
  C   C48       1.0  0.54751  0.6768099999999999  0.06417  1.0000
  C   C49       1.0  0.12823  0.52758  0.28885  1.0000
  C   C50       1.0  0.13847  0.34763999999999995  0.25311  1.0000
  C   C51       1.0  0.024030000000000003  0.32689  0.28589  1.0000
  C   C52       1.0  0.96356  0.41496  0.31769  1.0000
  C   C53       1.0  0.8318400000000001  0.40487  0.34648000000000007  1.0000
  C   C54       1.0  0.20847  0.25927  0.21255  1.0000
  C   C55       1.0  0.31295  0.37350999999999995  0.0088  1.0000
  C   C56       1.0  0.18677  0.42895  0.03083  1.0000
  N   N1        1.0  0.27918  0.86264  0.74869  1.0000
  N   N2        1.0  0.10556  0.9079699999999999  0.67556  1.0000
  N   N3        1.0  0.51531  0.98649  0.82036  1.0000
  N   N4        1.0  0.68877  0.0521  0.75368  1.0000
  N   N5        1.0  0.72455  0.1367  0.24701  1.0000
  N   N6        1.0  0.89672  0.09005999999999999  0.17397  1.0000
  N   N7        1.0  0.4870500000000001  0.01408  0.32113  1.0000
  N   N8        1.0  0.31212  0.9482999999999998  0.25425  1.0000
  N   N9        1.0  0.22350000000000003  0.36384  0.74816  1.0000
  N   N10       1.0  0.39609  0.40998999999999997  0.67538  1.0000
  N   N11       1.0  0.98531  0.48669  0.82024  1.0000
  N   N12       1.0  0.81087  0.5525499999999999  0.75375  1.0000
  N   N13       1.0  0.77571  0.63817  0.2485  1.0000
  N   N14       1.0  0.6015  0.59203  0.17571000000000003  1.0000
  N   N15       1.0  0.01668  0.51529  0.32063  1.0000
  N   N16       1.0  0.19015  0.44881  0.25401  1.0000
  O   O1        1.0  0.48072000000000004  0.73975  0.7821200000000001  1.0000
  O   O2        1.0  0.44871  0.6326999999999999  0.68713  1.0000
  O   O3        1.0  0.9500300000000002  0.87732  0.56926  1.0000
  O   O4        1.0  0.08787000000000002  0.76697  0.51168  1.0000
  O   O5        1.0  0.28058  0.0106  0.8715  1.0000
  O   O6        1.0  0.27456  0.18663999999999994  0.83729  1.0000
  O   O7        1.0  0.79944  0.21063  0.67671  1.0000
  O   O8        1.0  0.6631  0.33825999999999995  0.71878  1.0000
  O   O9        1.0  0.81771  0.18342999999999998  0.45368  1.0000
  O   O10       1.0  0.91279  0.11541  0.54947  1.0000
  O   O11       1.0  0.59987  0.08373  0.48933000000000004  1.0000
  O   O12       1.0  0.6923200000000002  0.01671  0.58675  1.0000
  O   O13       1.0  0.52626  0.26089  0.28168  1.0000
  O   O14       1.0  0.55603  0.36767  0.18707  1.0000
  O   O15       1.0  0.05487000000000001  0.12403  0.0705  1.0000
  O   O16       1.0  0.91275  0.22721  0.0104  1.0000
  O   O17       1.0  0.72494  0.98934  0.37113  1.0000
  O   O18       1.0  0.72482  0.8116099999999999  0.34008  1.0000
  O   O19       1.0  0.20197  0.79042  0.17419  1.0000
  O   O20       1.0  0.33201  0.66134  0.21922000000000003  1.0000
  O   O21       1.0  0.18832  0.82193  0.9510000000000001  1.0000
  O   O22       1.0  0.09374  0.88442  0.04846000000000001  1.0000
  O   O23       1.0  0.40605  0.92159  0.9902  1.0000
  O   O24       1.0  0.31311  0.98342  0.08892  1.0000
  O   O25       1.0  0.0238  0.23932999999999996  0.78131  1.0000
  O   O26       1.0  0.05648  0.13157  0.68697  1.0000
  O   O27       1.0  0.55057  0.37805  0.5694  1.0000
  O   O28       1.0  0.41175  0.26629  0.51279  1.0000
  O   O29       1.0  0.22021000000000002  0.51083  0.8717800000000001  1.0000
  O   O30       1.0  0.22646000000000002  0.6870799999999999  0.83759  1.0000
  O   O31       1.0  0.70045  0.71109  0.67631  1.0000
  O   O32       1.0  0.8371300000000002  0.8386399999999998  0.71888  1.0000
  O   O33       1.0  0.68804  0.6782499999999999  0.45124  1.0000
  O   O34       1.0  0.5936100000000001  0.61585  0.54832  1.0000
  O   O35       1.0  0.9069000000000002  0.58357  0.49073  1.0000
  O   O36       1.0  0.8153600000000001  0.5219  0.58954  1.0000
  O   O37       1.0  0.97638  0.7612099999999999  0.28189  1.0000
  O   O38       1.0  0.94471  0.86764  0.18714  1.0000
  O   O39       1.0  0.44369  0.62331  0.07139  1.0000
  O   O40       1.0  0.5811  0.73312  0.01341  1.0000
  O   O41       1.0  0.78102  0.4900499999999999  0.37141  1.0000
  O   O42       1.0  0.78029  0.31209  0.33989  1.0000
  O   O43       1.0  0.30022  0.2898  0.17643  1.0000
  O   O44       1.0  0.1677  0.1615  0.21969  1.0000
  O   O45       1.0  0.31221  0.32126  0.95098  1.0000
  O   O46       1.0  0.40673  0.38411999999999996  0.04888  1.0000
  O   O47       1.0  0.09321999999999998  0.4161799999999999  0.99001  1.0000
  O   O48       1.0  0.18706  0.4830399999999999  0.08762  1.0000
