data_image0
_chemical_formula_structural       Zn4H32C56N16O8
_chemical_formula_sum              "Zn4 H32 C56 N16 O8"
_cell_length_a       7.24156
_cell_length_b       9.62466
_cell_length_c       25.17934
_cell_angle_alpha    87.73738
_cell_angle_beta     84.14226
_cell_angle_gamma    68.09675

_space_group_name_H-M_alt    "P 1"
_space_group_IT_number       1

loop_
  _space_group_symop_operation_xyz
  'x, y, z'

loop_
  _atom_site_type_symbol
  _atom_site_label
  _atom_site_symmetry_multiplicity
  _atom_site_fract_x
  _atom_site_fract_y
  _atom_site_fract_z
  _atom_site_occupancy
  Zn  Zn1       1.0  0.76606  0.80535  0.13312  1.0000
  Zn  Zn2       1.0  0.6747099999999999  0.46618  0.12351  1.0000
  Zn  Zn3       1.0  0.5691499999999999  0.19169  0.63322  1.0000
  Zn  Zn4       1.0  0.14182999999999996  0.53168  0.62348  1.0000
  H   H1        1.0  0.5471199999999998  0.26914  0.8891300000000001  1.0000
  H   H2        1.0  0.8800099999999996  0.004799999999999999  0.72859  1.0000
  H   H3        1.0  0.73229  0.47795999999999994  0.9586  1.0000
  H   H4        1.0  0.6501099999999996  0.66854  0.69218  1.0000
  H   H5        1.0  0.39801999999999993  0.28007  0.96917  1.0000
  H   H6        1.0  0.37311999999999973  0.3385  0.06443  1.0000
  H   H7        1.0  0.7224999999999997  0.53615  0.8614299999999999  1.0000
  H   H8        1.0  0.80096  0.9704199999999998  0.8247399999999999  1.0000
  H   H9        1.0  0.08831000000000006  0.63183  0.7707599999999999  1.0000
  H   H10       1.0  0.57241  0.21538  0.79235  1.0000
  H   H11       1.0  0.59056  0.94173  0.99284  1.0000
  H   H12       1.0  0.048399999999999915  0.68061  0.8675500000000002  1.0000
  H   H13       1.0  0.56228  0.64023  0.78816  1.0000
  H   H14       1.0  0.57452  0.0023500000000000005  0.89586  1.0000
  H   H15       1.0  0.1308900000000001  0.7514  0.93417  1.0000
  H   H16       1.0  0.09224  0.80964  0.02948  1.0000
  H   H17       1.0  0.8143300000000001  0.72928  0.38962  1.0000
  H   H18       1.0  0.8864799999999998  0.9918000000000001  0.22926  1.0000
  H   H19       1.0  0.20835999999999996  0.5164  0.4586200000000001  1.0000
  H   H20       1.0  0.32232999999999995  0.32649  0.19231000000000004  1.0000
  H   H21       1.0  0.6767499999999996  0.71734  0.46903999999999996  1.0000
  H   H22       1.0  0.7104  0.65994  0.56437  1.0000
  H   H23       1.0  0.25853999999999994  0.45944  0.3616  1.0000
  H   H24       1.0  0.7728899999999999  0.026480000000000004  0.32524  1.0000
  H   H25       1.0  0.7233799999999998  0.36562  0.27046  1.0000
  H   H26       1.0  0.7856999999999998  0.78495  0.29283  1.0000
  H   H27       1.0  0.5347499999999997  0.054180000000000006  0.49322000000000005  1.0000
  H   H28       1.0  0.7322299999999998  0.31536  0.36715  1.0000
  H   H29       1.0  0.20564  0.35446  0.28809  1.0000
  H   H30       1.0  0.5815999999999996  0.9936600000000001  0.39618  1.0000
  H   H31       1.0  0.8832  0.24534  0.43475  1.0000
  H   H32       1.0  0.9025499999999999  0.18825  0.53016  1.0000
  C   C1        1.0  0.77543  0.83609  0.70388  1.0000
  C   C2        1.0  0.6511599999999999  0.77296  0.8715800000000001  1.0000
  C   C3        1.0  0.2248599999999998  0.61579  0.10985000000000002  1.0000
  C   C4        1.0  0.44208  0.34725  0.86381  1.0000
  C   C5        1.0  0.6860199999999997  0.66958  0.03885  1.0000
  C   C6        1.0  0.8112399999999996  0.9245  0.74165  1.0000
  C   C7        1.0  0.6968099999999995  0.59235  0.9443  1.0000
  C   C8        1.0  0.6639600000000001  0.70608  0.98137  1.0000
  C   C9        1.0  0.83512  0.85302  0.6472  1.0000
  C   C10       1.0  0.6770399999999999  0.8021  0.81376  1.0000
  C   C11       1.0  0.3490599999999998  0.387  0.71775  1.0000
  C   C12       1.0  0.6837699999999995  0.73467  0.7211  1.0000
  C   C13       1.0  0.33647999999999995  0.39653  0.9818299999999999  1.0000
  C   C14       1.0  0.32131  0.42919  0.03585  1.0000
  C   C15       1.0  0.6890999999999999  0.62581  0.8901399999999999  1.0000
  C   C16       1.0  0.7632400000000001  0.9066299999999999  0.79578  1.0000
  C   C17       1.0  0.18724999999999978  0.55249  0.79696  1.0000
  C   C18       1.0  0.3314299999999998  0.41925  0.77566  1.0000
  C   C19       1.0  0.4590500000000001  0.31689  0.8095499999999999  1.0000
  C   C20       1.0  0.23512  0.57823  0.05359  1.0000
  C   C21       1.0  0.2936399999999999  0.47867  0.8861100000000001  1.0000
  C   C22       1.0  0.6167699999999999  0.85444  0.96363  1.0000
  C   C23       1.0  0.16748999999999992  0.5803  0.8514  1.0000
  C   C24       1.0  0.6344800000000002  0.71857  0.7754  1.0000
  C   C25       1.0  0.6102399999999996  0.88727  0.9094  1.0000
  C   C26       1.0  0.18159999999999998  0.65976  0.9624299999999999  1.0000
  C   C27       1.0  0.27038  0.5113800000000001  0.9437899999999999  1.0000
  C   C28       1.0  0.16150999999999988  0.69347  0.01638  1.0000
  C   C29       1.0  0.6141499999999999  0.15991  0.20421000000000003  1.0000
  C   C30       1.0  0.42652999999999996  0.22264000000000003  0.37176  1.0000
  C   C31       1.0  0.8400499999999999  0.38185  0.61015  1.0000
  C   C32       1.0  0.7878399999999995  0.65131  0.3640999999999999  1.0000
  C   C33       1.0  0.35433999999999993  0.32617  0.53903  1.0000
  C   C34       1.0  0.7378499999999999  0.07189  0.24209  1.0000
  C   C35       1.0  0.28884  0.40242  0.44437  1.0000
  C   C36       1.0  0.3699999999999998  0.28918  0.48158  1.0000
  C   C37       1.0  0.69036  0.14398  0.14755  1.0000
  C   C38       1.0  0.4814699999999997  0.19355  0.31401  1.0000
  C   C39       1.0  0.73743  0.61203  0.21786  1.0000
  C   C40       1.0  0.42162999999999984  0.26074  0.22132000000000002  1.0000
  C   C41       1.0  0.7321899999999999  0.60094  0.48185  1.0000
  C   C42       1.0  0.7497  0.56893  0.53594  1.0000
  C   C43       1.0  0.31573  0.36941  0.3902  1.0000
  C   C44       1.0  0.6717799999999996  0.08972  0.29617  1.0000
  C   C45       1.0  0.74152  0.44538  0.29683  1.0000
  C   C46       1.0  0.7514199999999995  0.57963  0.27576  1.0000
  C   C47       1.0  0.7749400000000001  0.68248  0.30985  1.0000
  C   C48       1.0  0.81269  0.41993  0.5539  1.0000
  C   C49       1.0  0.7717599999999996  0.51888  0.38621  1.0000
  C   C50       1.0  0.47332  0.14118  0.46392000000000005  1.0000
  C   C51       1.0  0.74911  0.4169  0.35126  1.0000
  C   C52       1.0  0.35587999999999986  0.27658  0.27554  1.0000
  C   C53       1.0  0.5009899999999998  0.10854  0.40967  1.0000
  C   C54       1.0  0.8416599999999997  0.33743  0.4628  1.0000
  C   C55       1.0  0.7811399999999998  0.48584  0.44393999999999995  1.0000
  C   C56       1.0  0.8552699999999996  0.30434  0.51683  1.0000
  N   N1        1.0  0.060670000000000036  0.70194  0.13982  1.0000
  N   N2        1.0  0.7590799999999996  0.97915  0.61871  1.0000
  N   N3        1.0  0.8578099999999997  0.9528399999999999  0.5687  1.0000
  N   N4        1.0  0.3797899999999998  0.57464  0.1402  1.0000
  N   N5        1.0  0.9884999999999996  0.81595  0.56663  1.0000
  N   N6        1.0  0.3082099999999998  0.63743  0.18926999999999997  1.0000
  N   N7        1.0  0.9782099999999996  0.75023  0.61532  1.0000
  N   N8        1.0  0.11696999999999999  0.71375  0.18914000000000003  1.0000
  N   N9        1.0  0.7629599999999999  0.29414  0.6399  1.0000
  N   N10       1.0  0.7408999999999998  0.01822  0.1189  1.0000
  N   N11       1.0  0.8127499999999998  0.04576  0.06895  1.0000
  N   N12       1.0  0.9541000000000001  0.4229  0.64052  1.0000
  N   N13       1.0  0.8058099999999998  0.18311  0.06703  1.0000
  N   N14       1.0  0.9462699999999998  0.35853000000000007  0.68944  1.0000
  N   N15       1.0  0.7299399999999998  0.24776  0.11578000000000001  1.0000
  N   N16       1.0  0.8317899999999999  0.28137  0.6891599999999999  1.0000
  O   O1        1.0  0.75132  0.53159  0.05253  1.0000
  O   O2        1.0  0.42119999999999996  0.24959000000000003  0.70357  1.0000
  O   O3        1.0  0.2945499999999999  0.49994  0.68605  1.0000
  O   O4        1.0  0.6377899999999996  0.77967  0.07122  1.0000
  O   O5        1.0  0.28128999999999993  0.46431  0.55252  1.0000
  O   O6        1.0  0.6736900000000001  0.74943  0.20356  1.0000
  O   O7        1.0  0.7948599999999999  0.49915  0.18624  1.0000
  O   O8        1.0  0.41625999999999985  0.21583  0.57142  1.0000
