data_image0
_chemical_formula_structural       MnZn2H36C72N8O12
_chemical_formula_sum              "Mn1 Zn2 H36 C72 N8 O12"
_cell_length_a       13.91957
_cell_length_b       13.924009999999999
_cell_length_c       16.71181
_cell_angle_alpha    70.68371
_cell_angle_beta     70.64099
_cell_angle_gamma    74.10642

_symmetry_space_group_name_H-M    'P 1'
_symmetry_Int_Tables_number       1

loop_
  _symmetry_equiv_pos_as_xyz
  'x,y,z'

loop_
  _atom_site_type_symbol
  _atom_site_label
  _atom_site_symmetry_multiplicity
  _atom_site_fract_x
  _atom_site_fract_y
  _atom_site_fract_z
  _atom_site_occupancy
  Mn  Mn1       1.0  0.49994000000000005  0.49993999999999994  3.999999999999999e-05  1.0000
  Zn  Zn1       1.0  0.07221000000000002  0.07218000000000004  0.4651499999999999  1.0000
  Zn  Zn2       1.0  0.92779  0.92782  0.53485  1.0000
  H   H1        1.0  0.20371000000000003  0.80917  0.07764  1.0000
  H   H2        1.0  0.44197000000000025  0.60402  0.29057  1.0000
  H   H3        1.0  0.20323  0.61521  0.2766299999999999  1.0000
  H   H4        1.0  0.09874999999999999  0.7225  0.38083  1.0000
  H   H5        1.0  0.29312000000000027  0.95019  0.24481  1.0000
  H   H6        1.0  0.39774  0.8437  0.13845  1.0000
  H   H7        1.0  0.65107  0.24718  0.48457  1.0000
  H   H8        1.0  0.18992  0.79532  0.9230699999999997  1.0000
  H   H9        1.0  0.39658000000000015  0.55834  0.7090999999999997  1.0000
  H   H10       1.0  0.38478  0.79695  0.72332  1.0000
  H   H11       1.0  0.27748000000000017  0.90125  0.6191699999999998  1.0000
  H   H12       1.0  0.04982000000000006  0.70684  0.7551999999999999  1.0000
  H   H13       1.0  0.15637000000000018  0.6023099999999999  0.8614299999999998  1.0000
  H   H14       1.0  0.75278  0.3489  0.5156  1.0000
  H   H15       1.0  0.79629  0.19083000000000006  0.9223599999999997  1.0000
  H   H16       1.0  0.5580299999999999  0.39597999999999994  0.70943  1.0000
  H   H17       1.0  0.79677  0.3847900000000001  0.7233699999999997  1.0000
  H   H18       1.0  0.9012500000000002  0.27749000000000007  0.6191699999999998  1.0000
  H   H19       1.0  0.7068800000000002  0.049810000000000076  0.7551899999999998  1.0000
  H   H20       1.0  0.6022600000000001  0.15629000000000012  0.8615499999999998  1.0000
  H   H21       1.0  0.3489300000000001  0.7528200000000002  0.5154299999999998  1.0000
  H   H22       1.0  0.81008  0.20467  0.07692  1.0000
  H   H23       1.0  0.60343  0.44165  0.2908999999999999  1.0000
  H   H24       1.0  0.61522  0.20304000000000005  0.27667999999999987  1.0000
  H   H25       1.0  0.7225200000000003  0.09875000000000002  0.3808199999999999  1.0000
  H   H26       1.0  0.9501800000000002  0.29315999999999987  0.24478999999999995  1.0000
  H   H27       1.0  0.84363  0.39768  0.13857  1.0000
  H   H28       1.0  0.24722000000000008  0.6511  0.4843999999999999  1.0000
  H   H29       1.0  0.21500999999999998  0.21500000000000002  0.322  1.0000
  H   H30       1.0  0.33000000000000007  0.32998000000000005  0.3178199999999999  1.0000
  H   H31       1.0  0.23997000000000004  0.23998000000000005  0.6010599999999999  1.0000
  H   H32       1.0  0.12854000000000007  0.12853000000000006  0.5943699999999997  1.0000
  H   H33       1.0  0.7849900000000001  0.78499  0.678  1.0000
  H   H34       1.0  0.67  0.67001  0.68218  1.0000
  H   H35       1.0  0.7600300000000001  0.76001  0.3989399999999999  1.0000
  H   H36       1.0  0.87146  0.8714700000000001  0.4056299999999999  1.0000
  C   C1        1.0  0.25107000000000007  0.7557399999999997  0.03895  1.0000
  C   C2        1.0  0.33584  0.67681  0.06256  1.0000
  C   C3        1.0  0.36691  0.65857  0.13865999999999995  1.0000
  C   C4        1.0  0.44833000000000006  0.58076  0.16261999999999993  1.0000
  C   C5        1.0  0.4788899999999999  0.56066  0.24167999999999995  1.0000
  C   C6        1.0  0.30619000000000024  0.72352  0.20056999999999994  1.0000
  C   C7        1.0  0.22209000000000004  0.68913  0.2689399999999999  1.0000
  C   C8        1.0  0.16372000000000006  0.7488  0.3271799999999999  1.0000
  C   C9        1.0  0.1893700000000001  0.84305  0.3183199999999999  1.0000
  C   C10       1.0  0.27393000000000006  0.8772099999999999  0.25031  1.0000
  C   C11       1.0  0.33199  0.81786  0.19148  1.0000
  C   C12       1.0  0.12583000000000003  0.9059500000000001  0.3820599999999999  1.0000
  C   C13       1.0  0.4594200000000001  0.30775  0.4659599999999999  1.0000
  C   C14       1.0  0.6182799999999999  0.32549000000000006  0.49141  1.0000
  C   C15       1.0  0.5175800000000002  0.36929000000000006  0.4823899999999999  1.0000
  C   C16       1.0  0.24406000000000014  0.74872  0.9612699999999997  1.0000
  C   C17       1.0  0.3240900000000001  0.66505  0.9368399999999998  1.0000
  C   C18       1.0  0.3418100000000001  0.6335399999999999  0.8610299999999997  1.0000
  C   C19       1.0  0.4192199999999999  0.5516800000000001  0.8373599999999998  1.0000
  C   C20       1.0  0.43937000000000004  0.5209700000000003  0.7583299999999997  1.0000
  C   C21       1.0  0.2765599999999999  0.69394  0.79934  1.0000
  C   C22       1.0  0.31085000000000007  0.77806  0.73102  1.0000
  C   C23       1.0  0.2511800000000001  0.8363299999999998  0.6728099999999998  1.0000
  C   C24       1.0  0.15693000000000007  0.81063  0.68168  1.0000
  C   C25       1.0  0.12282000000000003  0.7260599999999999  0.74967  1.0000
  C   C26       1.0  0.18222000000000013  0.6680399999999997  0.8084199999999998  1.0000
  C   C27       1.0  0.09403000000000011  0.87412  0.6179599999999997  1.0000
  C   C28       1.0  0.69239  0.5407000000000001  0.5337099999999998  1.0000
  C   C29       1.0  0.67454  0.38177  0.50856  1.0000
  C   C30       1.0  0.6309300000000002  0.48266  0.5171199999999998  1.0000
  C   C31       1.0  0.7489400000000002  0.24426000000000006  0.9610499999999997  1.0000
  C   C32       1.0  0.6641500000000001  0.32318  0.9374299999999998  1.0000
  C   C33       1.0  0.6330900000000002  0.34143000000000007  0.8613299999999998  1.0000
  C   C34       1.0  0.5516700000000003  0.41924  0.8373699999999997  1.0000
  C   C35       1.0  0.5211099999999999  0.43933  0.75831  1.0000
  C   C36       1.0  0.6938100000000001  0.27648  0.79943  1.0000
  C   C37       1.0  0.7779100000000001  0.3108699999999999  0.7310599999999998  1.0000
  C   C38       1.0  0.8362900000000003  0.25120000000000003  0.6728099999999998  1.0000
  C   C39       1.0  0.81063  0.15694999999999998  0.68168  1.0000
  C   C40       1.0  0.7260700000000001  0.12278000000000004  0.7496899999999997  1.0000
  C   C41       1.0  0.6680100000000002  0.18213000000000001  0.8085099999999997  1.0000
  C   C42       1.0  0.87417  0.09404  0.61794  1.0000
  C   C43       1.0  0.54058  0.69225  0.5340299999999998  1.0000
  C   C44       1.0  0.38172  0.6745000000000001  0.50858  1.0000
  C   C45       1.0  0.48242  0.6307000000000001  0.5176099999999998  1.0000
  C   C46       1.0  0.75594  0.25127  0.03872999999999999  1.0000
  C   C47       1.0  0.6759  0.3349399999999999  0.06316  1.0000
  C   C48       1.0  0.65819  0.36646  0.13897  1.0000
  C   C49       1.0  0.58077  0.44831  0.16262999999999997  1.0000
  C   C50       1.0  0.5606300000000001  0.47903  0.24166999999999994  1.0000
  C   C51       1.0  0.72345  0.30604999999999993  0.20065  1.0000
  C   C52       1.0  0.68915  0.22193000000000002  0.26897  1.0000
  C   C53       1.0  0.7488200000000002  0.16366000000000003  0.32718999999999987  1.0000
  C   C54       1.0  0.8430699999999999  0.18937000000000004  0.3183199999999999  1.0000
  C   C55       1.0  0.8771800000000001  0.27393  0.2503299999999999  1.0000
  C   C56       1.0  0.81779  0.33195  0.19156999999999993  1.0000
  C   C57       1.0  0.90597  0.12587  0.38203  1.0000
  C   C58       1.0  0.30761  0.45928999999999975  0.46628  1.0000
  C   C59       1.0  0.3254600000000001  0.6182299999999998  0.4914399999999999  1.0000
  C   C60       1.0  0.36907000000000006  0.51734  0.4828699999999999  1.0000
  C   C61       1.0  0.22291  0.22289000000000003  0.38207  1.0000
  C   C62       1.0  0.28630000000000005  0.28628  0.3798699999999999  1.0000
  C   C63       1.0  0.2924999999999999  0.29249  0.4594999999999999  1.0000
  C   C64       1.0  0.23585000000000012  0.23584999999999998  0.5383899999999998  1.0000
  C   C65       1.0  0.17437999999999998  0.17437  0.53498  1.0000
  C   C66       1.0  0.47102999999999995  0.47104999999999997  0.49136999999999986  1.0000
  C   C67       1.0  0.77709  0.77711  0.61793  1.0000
  C   C68       1.0  0.7137  0.71371  0.62013  1.0000
  C   C69       1.0  0.7075100000000001  0.7075  0.5404899999999999  1.0000
  C   C70       1.0  0.76415  0.76414  0.4616099999999999  1.0000
  C   C71       1.0  0.8256200000000005  0.8256199999999999  0.4650199999999999  1.0000
  C   C72       1.0  0.52897  0.52895  0.50862  1.0000
  N   N1        1.0  0.16791  0.16789  0.4581  1.0000
  N   N2        1.0  0.35620000000000007  0.35619  0.4625199999999999  1.0000
  N   N3        1.0  0.8320899999999999  0.83211  0.54189  1.0000
  N   N4        1.0  0.6438  0.6438  0.53747  1.0000
  N   N5        1.0  0.38044  0.6217399999999998  0.9992399999999999  1.0000
  N   N6        1.0  0.61955  0.37824  0.0007699999999999997  1.0000
  N   N7        1.0  0.51134  0.51125  0.11451999999999997  1.0000
  N   N8        1.0  0.4886400000000002  0.48872999999999994  0.8854899999999998  1.0000
  O   O1        1.0  0.15721000000000007  0.98614  0.3770999999999999  1.0000
  O   O2        1.0  0.04533000000000008  0.8728299999999998  0.43636999999999987  1.0000
  O   O3        1.0  0.49355  0.21941000000000005  0.4564499999999999  1.0000
  O   O4        1.0  0.013809999999999975  0.8427699999999999  0.62291  1.0000
  O   O5        1.0  0.12718000000000007  0.9545699999999998  0.5636599999999998  1.0000
  O   O6        1.0  0.7807000000000001  0.5065700000000001  0.5433299999999998  1.0000
  O   O7        1.0  0.84279  0.013859999999999999  0.6229  1.0000
  O   O8        1.0  0.95467  0.12717  0.56362  1.0000
  O   O9        1.0  0.5064500000000001  0.7805900000000001  0.5435399999999998  1.0000
  O   O10       1.0  0.9861899999999999  0.15723000000000004  0.3770799999999999  1.0000
  O   O11       1.0  0.87282  0.04543  0.43634  1.0000
  O   O12       1.0  0.21930000000000002  0.49342  0.4566699999999999  1.0000
