data_image0
_chemical_formula_structural       Li6Co2H42C28N16O6
_chemical_formula_sum              "Li6 Co2 H42 C28 N16 O6"
_cell_length_a       8.16545
_cell_length_b       11.58519
_cell_length_c       12.648319999999998
_cell_angle_alpha    89.33113999999999
_cell_angle_beta     95.89151
_cell_angle_gamma    105.19555

_symmetry_space_group_name_H-M    'P 1'
_symmetry_Int_Tables_number       1

loop_
  _symmetry_equiv_pos_as_xyz
  'x,y,z'

loop_
  _atom_site_type_symbol
  _atom_site_label
  _atom_site_symmetry_multiplicity
  _atom_site_fract_x
  _atom_site_fract_y
  _atom_site_fract_z
  _atom_site_occupancy
  Li  Li1       1.0  0.41461  0.9091899999999999  0.4256400000000001  1.0000
  Li  Li2       1.0  0.81  0.3918  0.21076  1.0000
  Li  Li3       1.0  0.92958  0.21869  0.11804000000000002  1.0000
  Li  Li4       1.0  0.5853899999999997  0.09081  0.57436  1.0000
  Li  Li5       1.0  0.19  0.6081899999999999  0.7892400000000002  1.0000
  Li  Li6       1.0  0.07041999999999997  0.7813099999999998  0.88196  1.0000
  Co  Co1       1.0  0.85241  0.80143  0.22552  1.0000
  Co  Co2       1.0  0.14758999999999997  0.19857  0.77448  1.0000
  H   H1        1.0  0.64968  0.06488  0.23324  1.0000
  H   H2        1.0  0.42501  0.91748  0.19718  1.0000
  H   H3        1.0  0.23  0.96235  0.18167  1.0000
  H   H4        1.0  0.31345  0.9230399999999999  0.06777  1.0000
  H   H5        1.0  0.3543700000000001  0.14281  0.9855300000000001  1.0000
  H   H6        1.0  0.22733  0.148  0.08989  1.0000
  H   H7        1.0  0.42719  0.25907  0.08498000000000001  1.0000
  H   H8        1.0  0.27386  0.12018  0.33324  1.0000
  H   H9        1.0  0.66466  0.41885  0.40958  1.0000
  H   H10       1.0  0.56864  0.36824  0.529  1.0000
  H   H11       1.0  0.68602  0.28097  0.46957  1.0000
  H   H12       1.0  0.41008  0.41619  0.29082  1.0000
  H   H13       1.0  0.22651999999999994  0.29109  0.29327  1.0000
  H   H14       1.0  0.28985  0.3931799999999999  0.4032200000000001  1.0000
  H   H15       1.0  0.15893  0.42045  0.03556  1.0000
  H   H16       1.0  0.3643799999999999  0.6531599999999999  0.28295  1.0000
  H   H17       1.0  0.18001  0.6946  0.22661  1.0000
  H   H18       1.0  0.15453  0.55586  0.29278  1.0000
  H   H19       1.0  0.3669499999999999  0.57024  0.00395  1.0000
  H   H20       1.0  0.32813  0.70664  0.04558000000000001  1.0000
  H   H21       1.0  0.49409000000000003  0.6519  0.11619000000000002  1.0000
  H   H22       1.0  0.3503200000000002  0.9351200000000002  0.7667700000000002  1.0000
  H   H23       1.0  0.57499  0.08250999999999999  0.80282  1.0000
  H   H24       1.0  0.77  0.03765  0.81833  1.0000
  H   H25       1.0  0.68655  0.07695  0.93223  1.0000
  H   H26       1.0  0.64563  0.85718  0.014480000000000003  1.0000
  H   H27       1.0  0.7726600000000001  0.852  0.91011  1.0000
  H   H28       1.0  0.5728  0.74093  0.91503  1.0000
  H   H29       1.0  0.72613  0.87982  0.66676  1.0000
  H   H30       1.0  0.33534  0.58115  0.59042  1.0000
  H   H31       1.0  0.43136  0.63176  0.471  1.0000
  H   H32       1.0  0.3139799999999999  0.7190299999999998  0.53043  1.0000
  H   H33       1.0  0.58992  0.58381  0.70919  1.0000
  H   H34       1.0  0.7734699999999997  0.7089  0.70674  1.0000
  H   H35       1.0  0.71014  0.60682  0.59679  1.0000
  H   H36       1.0  0.84107  0.57955  0.96444  1.0000
  H   H37       1.0  0.63562  0.34684  0.71705  1.0000
  H   H38       1.0  0.81999  0.3054  0.7733900000000001  1.0000
  H   H39       1.0  0.8454699999999999  0.44414  0.70722  1.0000
  H   H40       1.0  0.63304  0.4297599999999999  0.99606  1.0000
  H   H41       1.0  0.67187  0.29335  0.95443  1.0000
  H   H42       1.0  0.50591  0.3481  0.88381  1.0000
  C   C1        1.0  0.9101899999999998  0.9637699999999999  0.19768  1.0000
  C   C2        1.0  0.9599  0.77798  0.10854000000000001  1.0000
  C   C3        1.0  0.7757200000000001  0.63695  0.23429  1.0000
  C   C4        1.0  0.6858899999999999  0.8251899999999999  0.3065  1.0000
  C   C5        1.0  0.04184999999999987  0.8211199999999997  0.33027000000000006  1.0000
  C   C6        1.0  0.60336  0.12962  0.18247  1.0000
  C   C7        1.0  0.34842999999999996  0.9655299999999999  0.1468  1.0000
  C   C8        1.0  0.35918  0.16515  0.07019  1.0000
  C   C9        1.0  0.397  0.15622  0.38115  1.0000
  C   C10       1.0  0.60148  0.33988  0.45315  1.0000
  C   C11       1.0  0.3365  0.34817  0.3412  1.0000
  C   C12       1.0  0.14177999999999993  0.4537599999999999  0.11356000000000001  1.0000
  C   C13       1.0  0.23546  0.61905  0.24287000000000003  1.0000
  C   C14       1.0  0.36598  0.62638  0.07296  1.0000
  C   C15       1.0  0.08979000000000001  0.03622  0.8023200000000003  1.0000
  C   C16       1.0  0.040089999999999966  0.22202  0.89147  1.0000
  C   C17       1.0  0.22427  0.36304  0.7657200000000002  1.0000
  C   C18       1.0  0.3140899999999999  0.17479999999999998  0.6935  1.0000
  C   C19       1.0  0.95815  0.17888  0.66974  1.0000
  C   C20       1.0  0.39664  0.8703699999999999  0.8175300000000001  1.0000
  C   C21       1.0  0.6515700000000001  0.03446  0.8532  1.0000
  C   C22       1.0  0.64081  0.83484  0.92981  1.0000
  C   C23       1.0  0.60299  0.84378  0.61885  1.0000
  C   C24       1.0  0.39851  0.66012  0.54685  1.0000
  C   C25       1.0  0.6634900000000001  0.6518299999999999  0.6588  1.0000
  C   C26       1.0  0.8582199999999999  0.54623  0.88645  1.0000
  C   C27       1.0  0.76454  0.38095  0.75714  1.0000
  C   C28       1.0  0.63402  0.37362  0.92705  1.0000
  N   N1        1.0  0.95197  0.06719  0.18031  1.0000
  N   N2        1.0  0.023740000000000032  0.76451  0.03154  1.0000
  N   N3        1.0  0.73257  0.53106  0.23527  1.0000
  N   N4        1.0  0.57454  0.84331  0.35084  1.0000
  N   N5        1.0  0.16972999999999994  0.83956  0.38749000000000006  1.0000
  N   N6        1.0  0.4449699999999998  0.0898  0.13622  1.0000
  N   N7        1.0  0.44552  0.27585  0.38903  1.0000
  N   N8        1.0  0.24446  0.55977  0.14322  1.0000
  N   N9        1.0  0.04802999999999996  0.9328099999999999  0.8197  1.0000
  N   N10       1.0  0.9762599999999999  0.23548  0.96845  1.0000
  N   N11       1.0  0.26743  0.46895  0.76474  1.0000
  N   N12       1.0  0.42546000000000006  0.15669  0.6491600000000001  1.0000
  N   N13       1.0  0.83026  0.16044  0.61251  1.0000
  N   N14       1.0  0.55502  0.9102  0.86378  1.0000
  N   N15       1.0  0.55448  0.72415  0.61097  1.0000
  N   N16       1.0  0.75553  0.44022  0.85679  1.0000
  O   O1        1.0  0.69825  0.23373999999999998  0.16921  1.0000
  O   O2        1.0  0.48258  0.08829  0.42252000000000006  1.0000
  O   O3        1.0  0.03044999999999997  0.39010999999999996  0.16841  1.0000
  O   O4        1.0  0.30174999999999996  0.7662599999999999  0.8308000000000001  1.0000
  O   O5        1.0  0.5174199999999998  0.9117  0.57749  1.0000
  O   O6        1.0  0.96954  0.60988  0.83159  1.0000
