data_image0
_chemical_formula_structural       MnCo3H48C66O24
_chemical_formula_sum              "Mn1 Co3 H48 C66 O24"
_cell_length_a       12.62183
_cell_length_b       15.27068
_cell_length_c       17.07679
_cell_angle_alpha    108.30665
_cell_angle_beta     101.0563
_cell_angle_gamma    106.34285

_space_group_name_H-M_alt    "P 1"
_space_group_IT_number       1

loop_
  _space_group_symop_operation_xyz
  'x, y, z'

loop_
  _atom_site_type_symbol
  _atom_site_label
  _atom_site_symmetry_multiplicity
  _atom_site_fract_x
  _atom_site_fract_y
  _atom_site_fract_z
  _atom_site_occupancy
  Mn  Mn1       1.0  0.49963  0.4999900000000001  0.50016  1.0000
  Co  Co1       1.0  0.21404000000000004  0.36997000000000013  0.41593  1.0000
  Co  Co2       1.0  0.7855100000000003  0.6298300000000002  0.5841  1.0000
  Co  Co3       1.0  0.9999200000000003  0.4998900000000001  0.50002  1.0000
  H   H1        1.0  0.20460000000000003  0.6401100000000001  0.66568  1.0000
  H   H2        1.0  0.2975700000000001  0.8108200000000002  0.7762  1.0000
  H   H3        1.0  0.55247  0.87135  0.64464  1.0000
  H   H4        1.0  0.45669000000000015  0.6983800000000002  0.53351  1.0000
  H   H5        1.0  0.17083  0.18890000000000004  0.56772  1.0000
  H   H6        1.0  0.20512999999999998  0.10490999999999999  0.66997  1.0000
  H   H7        1.0  0.5626  0.11703  0.77556  1.0000
  H   H8        1.0  0.56267  0.22878  0.85186  1.0000
  H   H9        1.0  0.67173  0.08543000000000003  0.89762  1.0000
  H   H10       1.0  0.61347  0.08133999999999997  0.98461  1.0000
  H   H11       1.0  0.74762  0.3992600000000001  0.09280000000000002  1.0000
  H   H12       1.0  0.8812600000000004  0.4708100000000001  0.24485  1.0000
  H   H13       1.0  0.9425700000000002  0.19926000000000005  0.19918  1.0000
  H   H14       1.0  0.8021700000000003  0.12402000000000003  0.05031  1.0000
  H   H15       1.0  0.34953  0.13174  0.90117  1.0000
  H   H16       1.0  0.48421999999999993  0.22707999999999995  0.97132  1.0000
  H   H17       1.0  0.5741600000000001  0.2540200000000002  0.7331000000000002  1.0000
  H   H18       1.0  0.53778  0.33602  0.63141  1.0000
  H   H19       1.0  0.5456  0.39199  0.24821  1.0000
  H   H20       1.0  0.5735400000000002  0.2898200000000001  0.11286  1.0000
  H   H21       1.0  0.2562  0.05345000000000001  0.06376  1.0000
  H   H22       1.0  0.22861000000000006  0.15719  0.19993  1.0000
  H   H23       1.0  0.3441800000000002  0.9743400000000004  0.80185  1.0000
  H   H24       1.0  0.43347000000000024  0.9518100000000004  0.8826400000000002  1.0000
  H   H25       1.0  0.79514  0.36026  0.33446  1.0000
  H   H26       1.0  0.7023900000000001  0.18950000000000006  0.22384  1.0000
  H   H27       1.0  0.44762  0.12865  0.35556  1.0000
  H   H28       1.0  0.5434  0.30161  0.46672  1.0000
  H   H29       1.0  0.8289400000000002  0.8108700000000001  0.43268  1.0000
  H   H30       1.0  0.7946399999999999  0.8946000000000002  0.33031  1.0000
  H   H31       1.0  0.43734000000000023  0.8827300000000002  0.22442000000000006  1.0000
  H   H32       1.0  0.43749000000000005  0.7711600000000002  0.14804  1.0000
  H   H33       1.0  0.3282900000000002  0.9145600000000003  0.10243  1.0000
  H   H34       1.0  0.38672  0.9187500000000001  0.01555  1.0000
  H   H35       1.0  0.25245000000000006  0.6006700000000001  0.9073600000000003  1.0000
  H   H36       1.0  0.11853000000000007  0.52895  0.75544  1.0000
  H   H37       1.0  0.05736000000000019  0.8006000000000003  0.8010500000000003  1.0000
  H   H38       1.0  0.1982200000000001  0.8759700000000002  0.9497400000000003  1.0000
  H   H39       1.0  0.65046  0.8680800000000002  0.09868  1.0000
  H   H40       1.0  0.5155100000000002  0.7730500000000002  0.02857  1.0000
  H   H41       1.0  0.42568000000000017  0.7454400000000002  0.26705  1.0000
  H   H42       1.0  0.46187000000000006  0.66393  0.36911  1.0000
  H   H43       1.0  0.4544200000000001  0.6080600000000002  0.7518100000000001  1.0000
  H   H44       1.0  0.42650000000000005  0.7103400000000001  0.8871400000000003  1.0000
  H   H45       1.0  0.7440600000000002  0.9465700000000004  0.9363000000000002  1.0000
  H   H46       1.0  0.7714900000000002  0.8426600000000002  0.8001200000000002  1.0000
  H   H47       1.0  0.6559700000000002  0.025899999999999996  0.19831  1.0000
  H   H48       1.0  0.5666400000000001  0.04826000000000001  0.11747  1.0000
  C   C1        1.0  0.32187  0.6587600000000002  0.59175  1.0000
  C   C2        1.0  0.2786  0.69214  0.66038  1.0000
  C   C3        1.0  0.33158000000000004  0.7882900000000003  0.72263  1.0000
  C   C4        1.0  0.47531  0.82004  0.64777  1.0000
  C   C5        1.0  0.42148000000000013  0.7238600000000002  0.58595  1.0000
  C   C6        1.0  0.50237  0.09958  0.88276  1.0000
  C   C7        1.0  0.3523800000000001  0.2679100000000001  0.5937000000000002  1.0000
  C   C8        1.0  0.25831  0.2023  0.60455  1.0000
  C   C9        1.0  0.2769700000000001  0.15604000000000015  0.6611900000000003  1.0000
  C   C10       1.0  0.3909700000000001  0.17551000000000005  0.70887  1.0000
  C   C11       1.0  0.51508  0.14848  0.81725  1.0000
  C   C12       1.0  0.62325  0.11694999999999998  0.93831  1.0000
  C   C13       1.0  0.76456  0.25705  0.06336  1.0000
  C   C14       1.0  0.7901800000000002  0.35610000000000014  0.11726  1.0000
  C   C15       1.0  0.8652100000000001  0.39589  0.20113  1.0000
  C   C16       1.0  0.9199500000000002  0.3393100000000001  0.23172  1.0000
  C   C17       1.0  0.8984900000000002  0.24216000000000007  0.17571  1.0000
  C   C18       1.0  0.81996  0.20007  0.0923  1.0000
  C   C19       1.0  0.43733  0.14659000000000008  0.94041  1.0000
  C   C20       1.0  0.4857  0.23949000000000006  0.69768  1.0000
  C   C21       1.0  0.4656  0.2852300000000001  0.64024  1.0000
  C   C22       1.0  0.3682400000000001  0.34187000000000023  0.31236000000000014  1.0000
  C   C23       1.0  0.38489999999999996  0.28116  0.23158  1.0000
  C   C24       1.0  0.4819000000000001  0.3185  0.20674  1.0000
  C   C25       1.0  0.4970600000000001  0.26156  0.1311  1.0000
  C   C26       1.0  0.41502000000000006  0.16625  0.08003  1.0000
  C   C27       1.0  0.31859000000000004  0.12767  0.1047  1.0000
  C   C28       1.0  0.30351  0.18522000000000002  0.17996000000000006  1.0000
  C   C29       1.0  0.4303600000000002  0.8525600000000002  0.71607  1.0000
  C   C30       1.0  0.43400000000000016  0.9877200000000005  0.83597  1.0000
  C   C31       1.0  0.9946500000000001  0.3792900000000001  0.32308000000000003  1.0000
  C   C32       1.0  0.26412000000000013  0.55538  0.5304500000000002  1.0000
  C   C33       1.0  0.33253  0.3184  0.53415  1.0000
  C   C34       1.0  0.678  0.34138  0.40841  1.0000
  C   C35       1.0  0.7212300000000001  0.30809  0.33973  1.0000
  C   C36       1.0  0.6683900000000002  0.21194000000000005  0.27746  1.0000
  C   C37       1.0  0.5247100000000001  0.17999  0.35235  1.0000
  C   C38       1.0  0.57848  0.27617  0.41419  1.0000
  C   C39       1.0  0.49781  0.9005100000000003  0.11741  1.0000
  C   C40       1.0  0.64734  0.73197  0.40691  1.0000
  C   C41       1.0  0.7414200000000001  0.7974600000000003  0.39589  1.0000
  C   C42       1.0  0.72276  0.84358  0.33914  1.0000
  C   C43       1.0  0.60882  0.82412  0.29138  1.0000
  C   C44       1.0  0.48506  0.85143  0.18284  1.0000
  C   C45       1.0  0.37688000000000005  0.8830900000000003  0.06181  1.0000
  C   C46       1.0  0.23570000000000005  0.7429500000000002  0.93674  1.0000
  C   C47       1.0  0.21001000000000006  0.6438500000000003  0.8829  1.0000
  C   C48       1.0  0.13479000000000008  0.6039600000000003  0.79909  1.0000
  C   C49       1.0  0.0800200000000001  0.66051  0.7685300000000003  1.0000
  C   C50       1.0  0.10151000000000003  0.75771  0.82447  1.0000
  C   C51       1.0  0.18025  0.79987  0.90779  1.0000
  C   C52       1.0  0.5626800000000002  0.8534800000000002  0.05959  1.0000
  C   C53       1.0  0.51411  0.7601600000000002  0.30262  1.0000
  C   C54       1.0  0.53415  0.71462  0.36028  1.0000
  C   C55       1.0  0.6316900000000001  0.6582900000000003  0.68773  1.0000
  C   C56       1.0  0.6150600000000003  0.7189200000000002  0.76852  1.0000
  C   C57       1.0  0.51808  0.6815900000000003  0.79331  1.0000
  C   C58       1.0  0.50297  0.73858  0.86894  1.0000
  C   C59       1.0  0.5850700000000001  0.8338900000000002  0.92002  1.0000
  C   C60       1.0  0.6815400000000003  0.8724000000000001  0.8954  1.0000
  C   C61       1.0  0.69659  0.8148100000000004  0.8201300000000002  1.0000
  C   C62       1.0  0.56965  0.14756000000000005  0.284  1.0000
  C   C63       1.0  0.56611  0.012380000000000025  0.16417000000000007  1.0000
  C   C64       1.0  0.005050000000000046  0.6203100000000003  0.67716  1.0000
  C   C65       1.0  0.7357500000000001  0.4447700000000001  0.46968  1.0000
  C   C66       1.0  0.6675900000000001  0.6818200000000002  0.46672  1.0000
  O   O1        1.0  0.31625  0.5148  0.47938  1.0000
  O   O2        1.0  0.4193500000000001  0.36948000000000014  0.5190700000000003  1.0000
  O   O3        1.0  0.9894500000000003  0.4582100000000001  0.37652  1.0000
  O   O4        1.0  0.4003000000000002  0.1289100000000002  0.7653400000000002  1.0000
  O   O5        1.0  0.6835500000000002  0.2228  0.98411  1.0000
  O   O6        1.0  0.05544000000000006  0.3306100000000001  0.34228  1.0000
  O   O7        1.0  0.22695  0.30715  0.49948  1.0000
  O   O8        1.0  0.45034000000000013  0.4219400000000001  0.36499  1.0000
  O   O9        1.0  0.2682500000000001  0.30725  0.32199  1.0000
  O   O10       1.0  0.16361  0.502  0.52794  1.0000
  O   O11       1.0  0.42864  0.1054  0.00573  1.0000
  O   O12       1.0  0.48895000000000016  0.9483200000000002  0.77414  1.0000
  O   O13       1.0  0.6837  0.4852500000000001  0.52085  1.0000
  O   O14       1.0  0.5816  0.63144  0.48313  1.0000
  O   O15       1.0  0.010589999999999994  0.54159  0.62364  1.0000
  O   O16       1.0  0.5997000000000001  0.8708400000000002  0.23493  1.0000
  O   O17       1.0  0.31678  0.77723  0.01595  1.0000
  O   O18       1.0  0.9436500000000002  0.6685000000000003  0.6579900000000002  1.0000
  O   O19       1.0  0.7732800000000001  0.6926800000000002  0.50054  1.0000
  O   O20       1.0  0.54962  0.5781300000000003  0.63517  1.0000
  O   O21       1.0  0.7315600000000001  0.69294  0.6780200000000002  1.0000
  O   O22       1.0  0.83618  0.49805  0.47193  1.0000
  O   O23       1.0  0.57136  0.89472  0.9943000000000002  1.0000
  O   O24       1.0  0.51108  0.05179000000000002  0.22593  1.0000
