data_image0
_chemical_formula_structural       Gd4H28C56O24
_chemical_formula_sum              "Gd4 H28 C56 O24"
_cell_length_a       6.4089
_cell_length_b       17.38965
_cell_length_c       23.70304
_cell_angle_alpha    90.0
_cell_angle_beta     90.54934
_cell_angle_gamma    90.0

_symmetry_space_group_name_H-M    'P 1'
_symmetry_Int_Tables_number       1

loop_
  _symmetry_equiv_pos_as_xyz
  'x,y,z'

loop_
  _atom_site_type_symbol
  _atom_site_label
  _atom_site_symmetry_multiplicity
  _atom_site_fract_x
  _atom_site_fract_y
  _atom_site_fract_z
  _atom_site_occupancy
  Gd  Gd1       1.0  0.26996  0.05698  0.024059999999999995  1.0000
  Gd  Gd2       1.0  0.7300400000000001  0.55698  0.47593999999999986  1.0000
  Gd  Gd3       1.0  0.73005  0.94302  0.9759399999999999  1.0000
  Gd  Gd4       1.0  0.26996  0.44301999999999997  0.52406  1.0000
  H   H1        1.0  0.64192  0.77435  0.8222799999999998  1.0000
  H   H2        1.0  0.023750000000000007  0.83113  0.7615399999999999  1.0000
  H   H3        1.0  0.9636900000000002  0.9066  0.8486099999999998  1.0000
  H   H4        1.0  0.06484  0.6933  0.74028  1.0000
  H   H5        1.0  0.7357  0.70223  0.63738  1.0000
  H   H6        1.0  0.67866  0.7912  0.7186  1.0000
  H   H7        1.0  0.12838  0.57029  0.62554  1.0000
  H   H8        1.0  0.35809  0.27435  0.6777099999999999  1.0000
  H   H9        1.0  0.97626  0.33113  0.7384599999999998  1.0000
  H   H10       1.0  0.03632  0.4066  0.65139  1.0000
  H   H11       1.0  0.93517  0.19331  0.7597099999999999  1.0000
  H   H12       1.0  0.26431  0.20223  0.8626099999999999  1.0000
  H   H13       1.0  0.32135  0.2912  0.7813999999999999  1.0000
  H   H14       1.0  0.87163  0.07028999999999999  0.87445  1.0000
  H   H15       1.0  0.35808000000000006  0.22564999999999996  0.17771  1.0000
  H   H16       1.0  0.97626  0.16886  0.23846  1.0000
  H   H17       1.0  0.03631  0.0934  0.15139  1.0000
  H   H18       1.0  0.93517  0.30669  0.25971999999999995  1.0000
  H   H19       1.0  0.26431  0.29777  0.36261  1.0000
  H   H20       1.0  0.32135  0.20879  0.2814  1.0000
  H   H21       1.0  0.87163  0.42971  0.37445999999999996  1.0000
  H   H22       1.0  0.64192  0.72565  0.32227999999999996  1.0000
  H   H23       1.0  0.02374  0.6688599999999999  0.26153999999999994  1.0000
  H   H24       1.0  0.9636900000000002  0.5934  0.34860999999999986  1.0000
  H   H25       1.0  0.06483  0.80669  0.24028  1.0000
  H   H26       1.0  0.73569  0.7977699999999999  0.13739  1.0000
  H   H27       1.0  0.67865  0.7087899999999999  0.21859999999999996  1.0000
  H   H28       1.0  0.12837  0.92971  0.12554  1.0000
  C   C1        1.0  0.22982000000000002  0.9346099999999999  0.9317299999999997  1.0000
  C   C2        1.0  0.27299  0.88866  0.88255  1.0000
  C   C3        1.0  0.47404  0.85327  0.8741999999999999  1.0000
  C   C4        1.0  0.49635  0.80549  0.82624  1.0000
  C   C5        1.0  0.33744  0.7973  0.7859299999999999  1.0000
  C   C6        1.0  0.14527  0.83566  0.7936099999999999  1.0000
  C   C7        1.0  0.11373  0.87901  0.84146  1.0000
  C   C8        1.0  0.36872000000000005  0.74837  0.7355199999999998  1.0000
  C   C9        1.0  0.21006  0.69847  0.7174899999999997  1.0000
  C   C10       1.0  0.23803  0.65052  0.67053  1.0000
  C   C11       1.0  0.43175  0.6512  0.64161  1.0000
  C   C12       1.0  0.5886  0.70267  0.65985  1.0000
  C   C13       1.0  0.55778  0.75094  0.7056699999999998  1.0000
  C   C14       1.0  0.46907  0.59945  0.5936299999999999  1.0000
  C   C15       1.0  0.77019  0.43461  0.5682599999999999  1.0000
  C   C16       1.0  0.72702  0.38866  0.61744  1.0000
  C   C17       1.0  0.52597  0.35328  0.6257999999999999  1.0000
  C   C18       1.0  0.50366  0.30549  0.6737599999999999  1.0000
  C   C19       1.0  0.66257  0.2973  0.71407  1.0000
  C   C20       1.0  0.85474  0.33566  0.7063899999999997  1.0000
  C   C21       1.0  0.8862800000000001  0.37902  0.65853  1.0000
  C   C22       1.0  0.63129  0.24837  0.7644699999999999  1.0000
  C   C23       1.0  0.7899500000000002  0.19847999999999996  0.7825099999999999  1.0000
  C   C24       1.0  0.76198  0.15053  0.82947  1.0000
  C   C25       1.0  0.56826  0.1512  0.8583799999999998  1.0000
  C   C26       1.0  0.41141  0.20267  0.84014  1.0000
  C   C27       1.0  0.44223  0.25094  0.7943299999999999  1.0000
  C   C28       1.0  0.53094  0.09945  0.9063699999999999  1.0000
  C   C29       1.0  0.77018  0.06539  0.06826  1.0000
  C   C30       1.0  0.72702  0.11134  0.11744  1.0000
  C   C31       1.0  0.52597  0.14672  0.1258  1.0000
  C   C32       1.0  0.50366  0.19451  0.17376  1.0000
  C   C33       1.0  0.66256  0.2027  0.21407  1.0000
  C   C34       1.0  0.85473  0.16434  0.20639  1.0000
  C   C35       1.0  0.8862800000000001  0.12097999999999999  0.15852999999999998  1.0000
  C   C36       1.0  0.63128  0.25162  0.26447  1.0000
  C   C37       1.0  0.7899500000000002  0.30152  0.28251  1.0000
  C   C38       1.0  0.76198  0.34947  0.32946999999999993  1.0000
  C   C39       1.0  0.56826  0.3488  0.3583899999999999  1.0000
  C   C40       1.0  0.41141  0.2973299999999999  0.34014  1.0000
  C   C41       1.0  0.44223  0.24906  0.29433  1.0000
  C   C42       1.0  0.5309300000000002  0.40055  0.40637  1.0000
  C   C43       1.0  0.22982000000000002  0.56538  0.43173  1.0000
  C   C44       1.0  0.27298  0.61134  0.38255  1.0000
  C   C45       1.0  0.47404  0.64672  0.3742  1.0000
  C   C46       1.0  0.49634  0.6945  0.32624  1.0000
  C   C47       1.0  0.33744  0.7026999999999999  0.28593  1.0000
  C   C48       1.0  0.14527  0.66434  0.29361  1.0000
  C   C49       1.0  0.11372  0.62098  0.34146  1.0000
  C   C50       1.0  0.36872000000000005  0.75162  0.23553  1.0000
  C   C51       1.0  0.21005  0.80152  0.21748999999999996  1.0000
  C   C52       1.0  0.23803  0.84947  0.17053  1.0000
  C   C53       1.0  0.43174  0.8488  0.14161  1.0000
  C   C54       1.0  0.58859  0.79732  0.15986  1.0000
  C   C55       1.0  0.55777  0.74906  0.20566999999999994  1.0000
  C   C56       1.0  0.46907  0.90054  0.09362999999999998  1.0000
  O   O1        1.0  0.05276  0.9689300000000001  0.93882  1.0000
  O   O2        1.0  0.36631  0.94311  0.97179  1.0000
  O   O3        1.0  0.6273  0.60936  0.56177  1.0000
  O   O4        1.0  0.33521  0.5445  0.58582  1.0000
  O   O5        1.0  0.6344000000000001  0.86305  0.9085199999999998  1.0000
  O   O6        1.0  0.07486  0.6058099999999998  0.6549  1.0000
  O   O7        1.0  0.94725  0.46893  0.56117  1.0000
  O   O8        1.0  0.6337000000000002  0.44312  0.5282  1.0000
  O   O9        1.0  0.37271  0.10936  0.9382299999999999  1.0000
  O   O10       1.0  0.66479  0.0445  0.91417  1.0000
  O   O11       1.0  0.36561  0.36306  0.59147  1.0000
  O   O12       1.0  0.92515  0.10582  0.84509  1.0000
  O   O13       1.0  0.94725  0.03107  0.06117999999999999  1.0000
  O   O14       1.0  0.6337000000000002  0.05687999999999999  0.0282  1.0000
  O   O15       1.0  0.37271  0.39064  0.43823  1.0000
  O   O16       1.0  0.66479  0.4555  0.41416999999999987  1.0000
  O   O17       1.0  0.3656  0.13694  0.09147  1.0000
  O   O18       1.0  0.9251400000000001  0.39418  0.34509  1.0000
  O   O19       1.0  0.05275  0.53107  0.43881999999999993  1.0000
  O   O20       1.0  0.3663  0.55688  0.4717999999999999  1.0000
  O   O21       1.0  0.6273  0.89064  0.06177  1.0000
  O   O22       1.0  0.33521  0.9555  0.08582  1.0000
  O   O23       1.0  0.6344000000000001  0.63694  0.40853  1.0000
  O   O24       1.0  0.07486  0.89418  0.1549  1.0000
