data_image0
_chemical_formula_structural       Ag10H56C56N28
_chemical_formula_sum              "Ag10 H56 C56 N28"
_cell_length_a       9.53441
_cell_length_b       17.330580000000005
_cell_length_c       17.35063
_cell_angle_alpha    83.92235
_cell_angle_beta     83.41302
_cell_angle_gamma    83.39589

_symmetry_space_group_name_H-M    'P 1'
_symmetry_Int_Tables_number       1

loop_
  _symmetry_equiv_pos_as_xyz
  'x,y,z'

loop_
  _atom_site_type_symbol
  _atom_site_label
  _atom_site_symmetry_multiplicity
  _atom_site_fract_x
  _atom_site_fract_y
  _atom_site_fract_z
  _atom_site_occupancy
  Ag  Ag1       1.0  0.45303000000000004  0.83237  0.64713  1.0000
  Ag  Ag2       1.0  0.04718000000000001  0.35255  0.1677  1.0000
  Ag  Ag3       1.0  0.54701  0.16765  0.35286  1.0000
  Ag  Ag4       1.0  0.9528600000000002  0.64744  0.83229  1.0000
  Ag  Ag5       1.0  0.25006999999999996  0.8823200000000002  0.11773  1.0000
  Ag  Ag6       1.0  0.25011  0.50884  0.49092  1.0000
  Ag  Ag7       1.0  0.7499300000000002  0.11771000000000001  0.88223  1.0000
  Ag  Ag8       1.0  0.74982  0.49116  0.50902  1.0000
  Ag  Ag9       1.0  0.24995999999999996  0.16088  0.8392100000000002  1.0000
  Ag  Ag10      1.0  0.74999  0.83914  0.16084  1.0000
  H   H1        1.0  0.55965  0.73576  0.50175  1.0000
  H   H2        1.0  0.12563000000000002  0.32729  0.55331  1.0000
  H   H3        1.0  0.43343999999999994  0.8721999999999999  0.8137600000000001  1.0000
  H   H4        1.0  0.49441000000000007  0.012789999999999994  0.60195  1.0000
  H   H5        1.0  0.4935  0.61773  0.4533300000000001  1.0000
  H   H6        1.0  0.41046  0.12984  0.67064  1.0000
  H   H7        1.0  0.19317  0.5891099999999999  0.64734  1.0000
  H   H8        1.0  0.5443100000000001  0.85889  0.00011  1.0000
  H   H9        1.0  0.41178000000000003  0.7203500000000002  0.37062  1.0000
  H   H10       1.0  0.41951000000000005  0.82514  0.25939  1.0000
  H   H11       1.0  0.34837999999999997  0.9892300000000002  0.8811500000000001  1.0000
  H   H12       1.0  0.26263000000000014  0.70463  0.6987500000000001  1.0000
  H   H13       1.0  0.12544000000000005  0.21934  0.6616000000000001  1.0000
  H   H14       1.0  0.32366  0.054029999999999995  0.09788  1.0000
  H   H15       1.0  0.9405  0.498  0.2642300000000001  1.0000
  H   H16       1.0  0.37415000000000004  0.44700999999999996  0.67238  1.0000
  H   H17       1.0  0.06697000000000002  0.1858  0.1276  1.0000
  H   H18       1.0  0.005490000000000002  0.39809999999999995  0.98757  1.0000
  H   H19       1.0  0.00665000000000001  0.54651  0.38213  1.0000
  H   H20       1.0  0.08911000000000001  0.32958000000000004  0.87048  1.0000
  H   H21       1.0  0.307  0.35221  0.41079  1.0000
  H   H22       1.0  0.95549  0.99999  0.14094  1.0000
  H   H23       1.0  0.08836000000000001  0.6292  0.27957  1.0000
  H   H24       1.0  0.08041000000000002  0.74063  0.17495000000000002  1.0000
  H   H25       1.0  0.1517  0.11855999999999998  0.01055  1.0000
  H   H26       1.0  0.23759  0.30073  0.2954  1.0000
  H   H27       1.0  0.37607000000000007  0.33843  0.78004  1.0000
  H   H28       1.0  0.17687999999999995  0.90217  0.94618  1.0000
  H   H29       1.0  0.44043000000000004  0.26425  0.49821999999999994  1.0000
  H   H30       1.0  0.8744200000000001  0.67272  0.44673  1.0000
  H   H31       1.0  0.56657  0.1278  0.18623  1.0000
  H   H32       1.0  0.5056100000000001  0.9872100000000001  0.39805  1.0000
  H   H33       1.0  0.5065700000000001  0.38225  0.54662  1.0000
  H   H34       1.0  0.5895599999999999  0.87017  0.3293400000000001  1.0000
  H   H35       1.0  0.80675  0.4108800000000001  0.35269  1.0000
  H   H36       1.0  0.4556900000000001  0.14112000000000005  0.9998899999999998  1.0000
  H   H37       1.0  0.5883199999999998  0.27964999999999995  0.6294300000000002  1.0000
  H   H38       1.0  0.5805700000000001  0.17488000000000004  0.74061  1.0000
  H   H39       1.0  0.65163  0.010769999999999998  0.11886000000000001  1.0000
  H   H40       1.0  0.73732  0.29539  0.30128  1.0000
  H   H41       1.0  0.8746300000000001  0.78069  0.33841  1.0000
  H   H42       1.0  0.6763499999999999  0.94597  0.90212  1.0000
  H   H43       1.0  0.05956999999999996  0.50198  0.7357800000000001  1.0000
  H   H44       1.0  0.62581  0.55297  0.3276  1.0000
  H   H45       1.0  0.9330699999999997  0.81424  0.8723200000000002  1.0000
  H   H46       1.0  0.9946000000000002  0.60183  0.01243  1.0000
  H   H47       1.0  0.99339  0.45347  0.61785  1.0000
  H   H48       1.0  0.9109000000000002  0.67039  0.12958  1.0000
  H   H49       1.0  0.69294  0.6478  0.58919  1.0000
  H   H50       1.0  0.04451999999999998  1.9999999999991945e-05  0.85905  1.0000
  H   H51       1.0  0.91157  0.37076  0.72043  1.0000
  H   H52       1.0  0.9195300000000001  0.25937  0.82502  1.0000
  H   H53       1.0  0.8482799999999999  0.88149  0.9894400000000001  1.0000
  H   H54       1.0  0.7623999999999999  0.69929  0.70462  1.0000
  H   H55       1.0  0.6239000000000001  0.6615600000000001  0.21991  1.0000
  H   H56       1.0  0.8231200000000001  0.09783  0.05382  1.0000
  C   C1        1.0  0.47829  0.70308  0.53482  1.0000
  C   C2        1.0  0.1819000000000001  0.32986  0.60414  1.0000
  C   C3        1.0  0.42502999999999996  0.9293300000000001  0.78103  1.0000
  C   C4        1.0  0.45981000000000005  0.007179999999999997  0.66408  1.0000
  C   C5        1.0  0.44088000000000005  0.63739  0.5077  1.0000
  C   C6        1.0  0.41347  0.07208  0.70227  1.0000
  C   C7        1.0  0.2767400000000001  0.62105  0.6155  1.0000
  C   C8        1.0  0.52364  0.92197  0.00017  1.0000
  C   C9        1.0  0.33982  0.72311  0.32578  1.0000
  C   C10       1.0  0.343  0.7823  0.26537000000000005  1.0000
  C   C11       1.0  0.3781300000000001  0.99446  0.8186  1.0000
  C   C12       1.0  0.31471  0.6856400000000002  0.6439  1.0000
  C   C13       1.0  0.18193999999999996  0.27008000000000004  0.66407  1.0000
  C   C14       1.0  0.40225000000000005  0.029609999999999997  0.05403000000000001  1.0000
  C   C15       1.0  0.021900000000000017  0.4649  0.29691  1.0000
  C   C16       1.0  0.3182499999999999  0.39597  0.66989  1.0000
  C   C17       1.0  0.07517  0.21867  0.0706  1.0000
  C   C18       1.0  0.04011000000000001  0.3359  0.99306  1.0000
  C   C19       1.0  0.059329999999999994  0.49205  0.36247  1.0000
  C   C20       1.0  0.08630000000000007  0.29779  0.92811  1.0000
  C   C21       1.0  0.22342  0.38411  0.37882  1.0000
  C   C22       1.0  0.97625  0.9998700000000003  0.07795  1.0000
  C   C23       1.0  0.16030999999999998  0.67408  0.27681  1.0000
  C   C24       1.0  0.15697999999999998  0.7346  0.21771  1.0000
  C   C25       1.0  0.1219  0.18118000000000004  0.00543  1.0000
  C   C26       1.0  0.1855  0.35569000000000006  0.31436  1.0000
  C   C27       1.0  0.31916000000000005  0.33588999999999997  0.72954  1.0000
  C   C28       1.0  0.0980899999999999  0.94597  0.9705100000000001  1.0000
  C   C29       1.0  0.52175  0.29692  0.46514  1.0000
  C   C30       1.0  0.8181300000000001  0.67015  0.39587  1.0000
  C   C31       1.0  0.57497  0.07068  0.21898  1.0000
  C   C32       1.0  0.5402  0.9928500000000001  0.33591  1.0000
  C   C33       1.0  0.55916  0.3626  0.49227  1.0000
  C   C34       1.0  0.5865300000000002  0.9279300000000003  0.29774  1.0000
  C   C35       1.0  0.7232399999999999  0.37894  0.38451  1.0000
  C   C36       1.0  0.47638000000000014  0.07802000000000002  0.99983  1.0000
  C   C37       1.0  0.6602500000000001  0.27688  0.67423  1.0000
  C   C38       1.0  0.65705  0.21768  0.73465  1.0000
  C   C39       1.0  0.62186  0.005559999999999995  0.18140000000000003  1.0000
  C   C40       1.0  0.68525  0.3143500000000001  0.35611  1.0000
  C   C41       1.0  0.8181000000000002  0.72993  0.3359500000000001  1.0000
  C   C42       1.0  0.5977700000000001  0.9704100000000001  0.9459599999999999  1.0000
  C   C43       1.0  0.97813  0.53507  0.7030800000000001  1.0000
  C   C44       1.0  0.68174  0.6040300000000001  0.33009  1.0000
  C   C45       1.0  0.92483  0.78137  0.92937  1.0000
  C   C46       1.0  0.9599299999999997  0.66406  0.00696  1.0000
  C   C47       1.0  0.94069  0.50794  0.63752  1.0000
  C   C48       1.0  0.9137200000000001  0.7021700000000002  0.07192  1.0000
  C   C49       1.0  0.77657  0.6159  0.62116  1.0000
  C   C50       1.0  0.02373999999999998  0.00014999999999999118  0.9220400000000001  1.0000
  C   C51       1.0  0.8396699999999999  0.3259  0.72319  1.0000
  C   C52       1.0  0.84298  0.26537  0.7823  1.0000
  C   C53       1.0  0.8781000000000001  0.8188500000000001  0.9945400000000001  1.0000
  C   C54       1.0  0.81448  0.64433  0.68562  1.0000
  C   C55       1.0  0.6808200000000001  0.6641  0.27045  1.0000
  C   C56       1.0  0.90193  0.05403  0.02947  1.0000
  N   N1        1.0  0.33828  0.59382  0.54657  1.0000
  N   N2        1.0  0.42280000000000006  0.9497799999999998  0.05563  1.0000
  N   N3        1.0  0.36584  0.06867999999999999  0.78093  1.0000
  N   N4        1.0  0.4178600000000001  0.72986  0.60464  1.0000
  N   N5        1.0  0.46316  0.9321600000000001  0.70104  1.0000
  N   N6        1.0  0.16188000000000005  0.45313000000000003  0.40607  1.0000
  N   N7        1.0  0.07739999999999998  0.94449  0.05023  1.0000
  N   N8        1.0  0.13391999999999996  0.21901999999999996  0.9313500000000002  1.0000
  N   N9        1.0  0.08229999999999998  0.39496  0.27017  1.0000
  N   N10       1.0  0.03696  0.29873  0.06793  1.0000
  N   N11       1.0  0.6617600000000001  0.40615  0.45345  1.0000
  N   N12       1.0  0.5772200000000001  0.05022999999999999  0.9443699999999999  1.0000
  N   N13       1.0  0.6341499999999999  0.9313500000000001  0.21908  1.0000
  N   N14       1.0  0.58217  0.27012  0.39536  1.0000
  N   N15       1.0  0.53688  0.06787000000000001  0.29896  1.0000
  N   N16       1.0  0.8381099999999999  0.54686  0.59393  1.0000
  N   N17       1.0  0.9226200000000001  0.05553999999999999  0.94976  1.0000
  N   N18       1.0  0.86612  0.78098  0.06864  1.0000
  N   N19       1.0  0.9177  0.60503  0.7298100000000001  1.0000
  N   N20       1.0  0.9631300000000002  0.70127  0.93208  1.0000
  N   N21       1.0  0.25  0.78942  0.21061  1.0000
  N   N22       1.0  0.2501  0.66714  0.33268  1.0000
  N   N23       1.0  0.7500100000000001  0.21055999999999997  0.78941  1.0000
  N   N24       1.0  0.74992  0.33285000000000003  0.66731  1.0000
  N   N25       1.0  0.24987000000000004  0.39444  0.60555  1.0000
  N   N26       1.0  0.25083  0.27143  0.72824  1.0000
  N   N27       1.0  0.75015  0.60556  0.39443  1.0000
  N   N28       1.0  0.74919  0.72856  0.27176  1.0000
