data_image0
_chemical_formula_structural       Cu8H48C48N16O16
_chemical_formula_sum              "Cu8 H48 C48 N16 O16"
_cell_length_a       11.32297
_cell_length_b       11.31035
_cell_length_c       17.10316
_cell_angle_alpha    89.98498999999998
_cell_angle_beta     90.07352
_cell_angle_gamma    90.02882

_space_group_name_H-M_alt    "P 1"
_space_group_IT_number       1

loop_
  _space_group_symop_operation_xyz
  'x, y, z'

loop_
  _atom_site_type_symbol
  _atom_site_label
  _atom_site_symmetry_multiplicity
  _atom_site_fract_x
  _atom_site_fract_y
  _atom_site_fract_z
  _atom_site_occupancy
  Cu  Cu1       1.0  0.61879  0.88882  0.14626  1.0000
  Cu  Cu2       1.0  0.40436  0.10426  0.13629  1.0000
  Cu  Cu3       1.0  0.37974  0.11015  0.64636  1.0000
  Cu  Cu4       1.0  0.59491  0.8947000000000002  0.63706  1.0000
  Cu  Cu5       1.0  0.10925  0.62017  0.39644  1.0000
  Cu  Cu6       1.0  0.8947500000000002  0.4062  0.38595  1.0000
  Cu  Cu7       1.0  0.88935  0.3798  0.89616  1.0000
  Cu  Cu8       1.0  0.10461  0.59579  0.8879  1.0000
  H   H1        1.0  0.83295  0.96317  0.29582  1.0000
  H   H2        1.0  0.86289  0.95619  0.19394  1.0000
  H   H3        1.0  0.9220500000000001  0.07376  0.25268  1.0000
  H   H4        1.0  0.57332  0.41656000000000004  0.20375  1.0000
  H   H5        1.0  0.44015999999999994  0.33219  0.20115  1.0000
  H   H6        1.0  0.51379  0.36322  0.29186  1.0000
  H   H7        1.0  0.49976  0.65621  0.32337  1.0000
  H   H8        1.0  0.466  0.59747  0.23057  1.0000
  H   H9        1.0  0.593  0.6883  0.24146999999999996  1.0000
  H   H10       1.0  0.1568  0.03907  0.18362  1.0000
  H   H11       1.0  0.09731000000000001  0.93009  0.24907  1.0000
  H   H12       1.0  0.17636  0.05240000000000001  0.28645  1.0000
  H   H13       1.0  0.1671  0.03762  0.79677  1.0000
  H   H14       1.0  0.13758  0.04435  0.69471  1.0000
  H   H15       1.0  0.07792  0.92716  0.75351  1.0000
  H   H16       1.0  0.42628000000000005  0.58386  0.70495  1.0000
  H   H17       1.0  0.55951  0.66804  0.70269  1.0000
  H   H18       1.0  0.48623  0.63651  0.7933  1.0000
  H   H19       1.0  0.49903  0.34314  0.82211  1.0000
  H   H20       1.0  0.53232  0.40315999999999996  0.72961  1.0000
  H   H21       1.0  0.40625  0.31081  0.73985  1.0000
  H   H22       1.0  0.84259  0.9604699999999999  0.68344  1.0000
  H   H23       1.0  0.90216  0.06972  0.74878  1.0000
  H   H24       1.0  0.8218700000000001  0.94823  0.78618  1.0000
  H   H25       1.0  0.03666  0.83256  0.54579  1.0000
  H   H26       1.0  0.04342  0.86257  0.44384  1.0000
  H   H27       1.0  0.92726  0.92328  0.50283  1.0000
  H   H28       1.0  0.58263  0.57255  0.45379  1.0000
  H   H29       1.0  0.66785  0.43992  0.45117  1.0000
  H   H30       1.0  0.63698  0.51311  0.54189  1.0000
  H   H31       1.0  0.34249  0.5  0.57257  1.0000
  H   H32       1.0  0.40218999999999994  0.46641000000000005  0.47997  1.0000
  H   H33       1.0  0.31096  0.59329  0.4903799999999999  1.0000
  H   H34       1.0  0.95985  0.15722  0.43288  1.0000
  H   H35       1.0  0.06842  0.09727999999999999  0.49856999999999996  1.0000
  H   H36       1.0  0.9473500000000001  0.17837  0.53566  1.0000
  H   H37       1.0  0.9622  0.16494  0.0461  1.0000
  H   H38       1.0  0.9559200000000001  0.13635  0.94384  1.0000
  H   H39       1.0  0.07294  0.07679  0.00273  1.0000
  H   H40       1.0  0.41498  0.42582  0.9544600000000001  1.0000
  H   H41       1.0  0.33137  0.55953  0.9524  1.0000
  H   H42       1.0  0.36258000000000007  0.48525  0.0428  1.0000
  H   H43       1.0  0.65701  0.49945  0.07315  1.0000
  H   H44       1.0  0.5972  0.5328  0.9806  1.0000
  H   H45       1.0  0.68767  0.40517  0.99135  1.0000
  H   H46       1.0  0.03806  0.84317  0.93517  1.0000
  H   H47       1.0  0.9289999999999999  0.9014699999999999  0.00081  1.0000
  H   H48       1.0  0.05109  0.82199  0.03789  1.0000
  C   C1        1.0  0.84538  0.01668  0.24268000000000003  1.0000
  C   C2        1.0  0.52619  0.3413  0.22987  1.0000
  C   C3        1.0  0.73877  0.09035  0.22686  1.0000
  C   C4        1.0  0.59759  0.23146  0.22173  1.0000
  C   C5        1.0  0.7121  0.20712  0.25109  1.0000
  C   C6        1.0  0.78278  0.28508  0.29885  1.0000
  C   C7        1.0  0.50144  0.6758  0.26056  1.0000
  C   C8        1.0  0.17199  0.98917  0.23762  1.0000
  C   C9        1.0  0.42743000000000003  0.7814  0.24277000000000004  1.0000
  C   C10       1.0  0.28281  0.91848  0.23201  1.0000
  C   C11       1.0  0.31072  0.8083  0.26678  1.0000
  C   C12       1.0  0.23546000000000003  0.73749  0.31618  1.0000
  C   C13       1.0  0.15477  0.98404  0.74366  1.0000
  C   C14       1.0  0.47354  0.65883  0.7313800000000001  1.0000
  C   C15       1.0  0.26126  0.9101200000000002  0.72822  1.0000
  C   C16       1.0  0.40213000000000004  0.7687  0.72333  1.0000
  C   C17       1.0  0.28824  0.7938  0.7532100000000003  1.0000
  C   C18       1.0  0.21756  0.71778  0.80214  1.0000
  C   C19       1.0  0.49759999999999993  0.32424  0.75921  1.0000
  C   C20       1.0  0.82725  0.011010000000000002  0.73713  1.0000
  C   C21       1.0  0.57219  0.21924  0.74133  1.0000
  C   C22       1.0  0.71673  0.0821  0.731  1.0000
  C   C23       1.0  0.68938  0.19311  0.7647  1.0000
  C   C24       1.0  0.76415  0.26401  0.81437  1.0000
  C   C25       1.0  0.98311  0.8457599999999998  0.4927500000000001  1.0000
  C   C26       1.0  0.65825  0.52599  0.47984999999999994  1.0000
  C   C27       1.0  0.90874  0.7395500000000002  0.47695000000000004  1.0000
  C   C28       1.0  0.76745  0.59835  0.47163  1.0000
  C   C29       1.0  0.79222  0.7127600000000001  0.50115  1.0000
  C   C30       1.0  0.7166599999999999  0.7828300000000001  0.55054  1.0000
  C   C31       1.0  0.32375  0.50177  0.50964  1.0000
  C   C32       1.0  0.01016  0.17247  0.48675  1.0000
  C   C33       1.0  0.21856  0.42752000000000007  0.49165  1.0000
  C   C34       1.0  0.08158  0.28287  0.48085000000000006  1.0000
  C   C35       1.0  0.19237  0.31018  0.51495  1.0000
  C   C36       1.0  0.26318  0.23558  0.56487  1.0000
  C   C37       1.0  0.01584  0.15353  0.99299  1.0000
  C   C38       1.0  0.34023  0.47322  0.98082  1.0000
  C   C39       1.0  0.08916000000000002  0.26068  0.97776  1.0000
  C   C40       1.0  0.23034  0.40196  0.97258  1.0000
  C   C41       1.0  0.20558  0.28775  0.00225  1.0000
  C   C42       1.0  0.28249  0.21666  0.05019  1.0000
  C   C43       1.0  0.67559  0.49695  0.01023  1.0000
  C   C44       1.0  0.9880699999999999  0.82697  0.98894  1.0000
  C   C45       1.0  0.78102  0.57079  0.9923300000000002  1.0000
  C   C46       1.0  0.9177399999999999  0.7158600000000002  0.9826600000000001  1.0000
  C   C47       1.0  0.8070300000000001  0.68778  0.01632  1.0000
  C   C48       1.0  0.73578  0.76196  0.06603000000000002  1.0000
  N   N1        1.0  0.64592  0.04934  0.18586  1.0000
  N   N2        1.0  0.5596  0.13535  0.18288  1.0000
  N   N3        1.0  0.46528  0.87013  0.19697  1.0000
  N   N4        1.0  0.37728  0.954  0.1904  1.0000
  N   N5        1.0  0.35344  0.9502499999999999  0.68642  1.0000
  N   N6        1.0  0.43961000000000006  0.86413  0.68355  1.0000
  N   N7        1.0  0.53343  0.1293  0.69692  1.0000
  N   N8        1.0  0.62143  0.04545  0.69054  1.0000
  N   N9        1.0  0.94938  0.64677  0.43589  1.0000
  N   N10       1.0  0.86345  0.56048  0.43288  1.0000
  N   N11       1.0  0.12886  0.46638  0.4471  1.0000
  N   N12       1.0  0.04506  0.37828000000000006  0.44043  1.0000
  N   N13       1.0  0.04871999999999999  0.35316  0.93623  1.0000
  N   N14       1.0  0.13463  0.43961000000000006  0.93326  1.0000
  N   N15       1.0  0.87076  0.53264  0.9477900000000001  1.0000
  N   N16       1.0  0.95435  0.62112  0.9416900000000001  1.0000
  O   O1        1.0  0.88676  0.25549  0.32411  1.0000
  O   O2        1.0  0.74493  0.38807  0.32029  1.0000
  O   O3        1.0  0.27142  0.63934  0.34714  1.0000
  O   O4        1.0  0.12762  0.76816  0.33191  1.0000
  O   O5        1.0  0.11504  0.7500800000000001  0.82821  1.0000
  O   O6        1.0  0.25369  0.61394  0.82359  1.0000
  O   O7        1.0  0.72897  0.36351999999999995  0.84351  1.0000
  O   O8        1.0  0.87052  0.2315  0.83251  1.0000
  O   O9        1.0  0.74976  0.88421  0.5783  1.0000
  O   O10       1.0  0.61247  0.7469100000000001  0.57073  1.0000
  O   O11       1.0  0.36258000000000007  0.27114  0.59408  1.0000
  O   O12       1.0  0.23108  0.12893  0.58294  1.0000
  O   O13       1.0  0.2497  0.11502000000000001  0.07775  1.0000
  O   O14       1.0  0.3876  0.25129  0.0695  1.0000
  O   O15       1.0  0.63523  0.72729  0.09364  1.0000
  O   O16       1.0  0.76895  0.86785  0.08557  1.0000
