data_image0
_chemical_formula_structural       Co12H52C44O44
_chemical_formula_sum              "Co12 H52 C44 O44"
_cell_length_a       9.11546
_cell_length_b       10.545200000000001
_cell_length_c       19.08655
_cell_angle_alpha    85.4008
_cell_angle_beta     87.05104000000001
_cell_angle_gamma    80.45812

_symmetry_space_group_name_H-M    'P 1'
_symmetry_Int_Tables_number       1

loop_
  _symmetry_equiv_pos_as_xyz
  'x,y,z'

loop_
  _atom_site_type_symbol
  _atom_site_label
  _atom_site_symmetry_multiplicity
  _atom_site_fract_x
  _atom_site_fract_y
  _atom_site_fract_z
  _atom_site_occupancy
  Co  Co1       1.0  0.8700799999999997  0.75074  0.79236  1.0000
  Co  Co2       1.0  0.12893000000000002  0.74667  0.70809  1.0000
  Co  Co3       1.0  0.93473  0.74704  0.58814  1.0000
  Co  Co4       1.0  0.06504999999999998  0.7519700000000001  0.9121200000000002  1.0000
  Co  Co5       1.0  0.13063  0.25035  0.20726  1.0000
  Co  Co6       1.0  0.8762999999999999  0.24933  0.29199  1.0000
  Co  Co7       1.0  0.06884000000000001  0.24977  0.41205  1.0000
  Co  Co8       1.0  0.93516  0.24977  0.08743  1.0000
  Co  Co9       1.0  0.0006899999999999913  0.498  0.5005  1.0000
  Co  Co10      1.0  0.99993  0.0008800000000000036  0.9999100000000001  1.0000
  Co  Co11      1.0  0.9993599999999999  0.50091  0.99936  1.0000
  Co  Co12      1.0  0.0029000000000000505  0.9972299999999998  0.49986  1.0000
  H   H1        1.0  0.84765  0.88829  0.68192  1.0000
  H   H2        1.0  0.15160999999999997  0.6110900000000001  0.81832  1.0000
  H   H3        1.0  0.8912999999999999  0.29243  0.81527  1.0000
  H   H4        1.0  0.018839999999999982  0.15351  0.84123  1.0000
  H   H5        1.0  0.47765  0.84774  0.55632  1.0000
  H   H6        1.0  0.36454  0.9993599999999998  0.54307  1.0000
  H   H7        1.0  0.63459  0.49940999999999997  0.95834  1.0000
  H   H8        1.0  0.5225599999999999  0.6515  0.94528  1.0000
  H   H9        1.0  0.47423  0.8577199999999999  0.43177  1.0000
  H   H10       1.0  0.3120799999999999  0.7897100000000001  0.45041000000000003  1.0000
  H   H11       1.0  0.6441199999999998  0.9251199999999999  0.9690500000000001  1.0000
  H   H12       1.0  0.49684  0.85581  0.00916  1.0000
  H   H13       1.0  0.68837  0.70988  0.0504  1.0000
  H   H14       1.0  0.5286399999999999  0.63859  0.07012  1.0000
  H   H15       1.0  0.50437  0.6445100000000001  0.49399  1.0000
  H   H16       1.0  0.35789999999999994  0.57281  0.53307  1.0000
  H   H17       1.0  0.50403  0.88169  0.87252  1.0000
  H   H18       1.0  0.44945  0.04987000000000001  0.8804099999999999  1.0000
  H   H19       1.0  0.7049899999999999  0.16401999999999997  0.82286  1.0000
  H   H20       1.0  0.7257599999999998  0.14653999999999998  0.9155000000000001  1.0000
  H   H21       1.0  0.5551999999999999  0.44289  0.61919  1.0000
  H   H22       1.0  0.49902  0.6101599999999998  0.63034  1.0000
  H   H23       1.0  0.27436999999999995  0.35269000000000006  0.5844  1.0000
  H   H24       1.0  0.296  0.33393  0.67698  1.0000
  H   H25       1.0  0.9827599999999999  0.34137  0.65903  1.0000
  H   H26       1.0  0.11185999999999997  0.20303999999999997  0.68387  1.0000
  H   H27       1.0  0.15887  0.11149  0.31719  1.0000
  H   H28       1.0  0.84806  0.38845  0.18233  1.0000
  H   H29       1.0  0.10739999999999997  0.70775  0.18384  1.0000
  H   H30       1.0  0.97969  0.84682  0.1582  1.0000
  H   H31       1.0  0.52697  0.15156  0.44333  1.0000
  H   H32       1.0  0.6365299999999999  0.99855  0.45724  1.0000
  H   H33       1.0  0.36600999999999995  0.50205  0.0412  1.0000
  H   H34       1.0  0.47747999999999996  0.34978  0.054810000000000005  1.0000
  H   H35       1.0  0.5302899999999999  0.14011000000000004  0.5682  1.0000
  H   H36       1.0  0.6921  0.20866  0.54917  1.0000
  H   H37       1.0  0.35653  0.07599  0.030869999999999998  1.0000
  H   H38       1.0  0.5039099999999999  0.14529  0.9908700000000001  1.0000
  H   H39       1.0  0.31255  0.29072  0.94964  1.0000
  H   H40       1.0  0.47197000000000006  0.36243  0.9298800000000002  1.0000
  H   H41       1.0  0.49859999999999993  0.3546500000000001  0.50725  1.0000
  H   H42       1.0  0.6447299999999999  0.42636999999999997  0.4679  1.0000
  H   H43       1.0  0.4962500000000001  0.11944999999999999  0.12753  1.0000
  H   H44       1.0  0.5514800000000001  0.9512699999999998  0.11960000000000001  1.0000
  H   H45       1.0  0.29287  0.8366399999999999  0.17732  1.0000
  H   H46       1.0  0.27385  0.85404  0.08463  1.0000
  H   H47       1.0  0.44588  0.55561  0.38191  1.0000
  H   H48       1.0  0.5033999999999998  0.38864000000000004  0.37068  1.0000
  H   H49       1.0  0.7252300000000002  0.64429  0.41585  1.0000
  H   H50       1.0  0.70519  0.66052  0.32315  1.0000
  H   H51       1.0  0.01698  0.65518  0.33992  1.0000
  H   H52       1.0  0.8866899999999999  0.7937799999999999  0.31697  1.0000
  C   C1        1.0  0.9136699999999998  0.21425  0.8566  1.0000
  C   C2        1.0  0.73208  0.51389  0.08772  1.0000
  C   C3        1.0  0.94364  0.27358000000000005  0.92336  1.0000
  C   C4        1.0  0.7166099999999999  0.56215  0.58274  1.0000
  C   C5        1.0  0.37099  0.8961999999999999  0.53537  1.0000
  C   C6        1.0  0.27258000000000004  0.98563  0.4126  1.0000
  C   C7        1.0  0.059139999999999984  0.22445  0.57575  1.0000
  C   C8        1.0  0.62939  0.60248  0.96583  1.0000
  C   C9        1.0  0.83993  0.99079  0.86053  1.0000
  C   C10       1.0  0.15810000000000002  0.50627  0.64049  1.0000
  C   C11       1.0  0.28624  0.93383  0.9188700000000001  1.0000
  C   C12       1.0  0.3622000000000001  0.8760499999999999  0.4567300000000001  1.0000
  C   C13       1.0  0.52286  0.9421499999999999  0.97814  1.0000
  C   C14       1.0  0.6399499999999999  0.62264  0.04428  1.0000
  C   C15       1.0  0.47907  0.55648  0.52349  1.0000
  C   C16       1.0  0.7509799999999999  0.64715  0.91776  1.0000
  C   C17       1.0  0.44648999999999994  0.95386  0.9070500000000001  1.0000
  C   C18       1.0  0.78492  0.13340999999999997  0.86424  1.0000
  C   C19       1.0  0.24922999999999998  0.85018  0.58273  1.0000
  C   C20       1.0  0.5567799999999999  0.54047  0.59444  1.0000
  C   C21       1.0  0.21555000000000005  0.3643399999999999  0.63581  1.0000
  C   C22       1.0  0.08843  0.28205  0.64309  1.0000
  C   C23       1.0  0.08503000000000001  0.78644  0.14277  1.0000
  C   C24       1.0  0.26825999999999994  0.48666  0.9121599999999999  1.0000
  C   C25       1.0  0.05580999999999999  0.72797  0.07562  1.0000
  C   C26       1.0  0.28594  0.43554  0.41879  1.0000
  C   C27       1.0  0.63281  0.10155999999999998  0.4645  1.0000
  C   C28       1.0  0.73235  0.013030000000000005  0.58728  1.0000
  C   C29       1.0  0.9436800000000002  0.7700999999999999  0.4244800000000001  1.0000
  C   C30       1.0  0.37099999999999994  0.39891000000000004  0.03398  1.0000
  C   C31       1.0  0.15945  0.0103  0.13934  1.0000
  C   C32       1.0  0.8426499999999999  0.48906  0.36085  1.0000
  C   C33       1.0  0.71412  0.06763  0.0811  1.0000
  C   C34       1.0  0.64214  0.12218000000000002  0.54303  1.0000
  C   C35       1.0  0.47780999999999996  0.05898  0.02188  1.0000
  C   C36       1.0  0.36060999999999993  0.37821  0.95564  1.0000
  C   C37       1.0  0.52359  0.44262  0.47757999999999995  1.0000
  C   C38       1.0  0.24891999999999997  0.35496  0.08184  1.0000
  C   C39       1.0  0.55403  0.04735999999999999  0.093  1.0000
  C   C40       1.0  0.21365  0.86741  0.13564  1.0000
  C   C41       1.0  0.75612  0.14484000000000002  0.41706  1.0000
  C   C42       1.0  0.44545  0.45790999999999993  0.40675  1.0000
  C   C43       1.0  0.78497  0.6311899999999998  0.36473  1.0000
  C   C44       1.0  0.9117999999999999  0.71378  0.3571  1.0000
  O   O1        1.0  0.9110199999999999  0.7996599999999999  0.69146  1.0000
  O   O2        1.0  0.71973  0.5065099999999998  0.15311  1.0000
  O   O3        1.0  0.08841000000000007  0.6998599999999999  0.80891  1.0000
  O   O4        1.0  0.28821  0.9936299999999999  0.3473  1.0000
  O   O5        1.0  0.7939399999999999  0.93223  0.81263  1.0000
  O   O6        1.0  0.029810000000000003  0.11116999999999999  0.58017  1.0000
  O   O7        1.0  0.7479199999999999  0.66791  0.60094  1.0000
  O   O8        1.0  0.19964  0.56285  0.69033  1.0000
  O   O9        1.0  0.25191000000000013  0.83058  0.89886  1.0000
  O   O10       1.0  0.8736099999999999  0.66161  0.94451  1.0000
  O   O11       1.0  0.27398  0.82488  0.64789  1.0000
  O   O12       1.0  0.97012  0.38786  0.91812  1.0000
  O   O13       1.0  0.19858  0.019859999999999996  0.95134  1.0000
  O   O14       1.0  0.72658  0.66947  0.8524499999999999  1.0000
  O   O15       1.0  0.9338599999999999  0.9349999999999999  0.90591  1.0000
  O   O16       1.0  0.06682999999999999  0.29524  0.51772  1.0000
  O   O17       1.0  0.06701000000000001  0.56355  0.59418  1.0000
  O   O18       1.0  0.17851999999999998  0.06776000000000001  0.44807  1.0000
  O   O19       1.0  0.82361  0.43114  0.05159  1.0000
  O   O20       1.0  0.12626  0.8376100000000001  0.55569  1.0000
  O   O21       1.0  0.8066600000000002  0.47486999999999996  0.55213  1.0000
  O   O22       1.0  0.9398900000000001  0.20297  0.98174  1.0000
  O   O23       1.0  0.09485  0.19980999999999996  0.30827  1.0000
  O   O24       1.0  0.28048999999999996  0.49347  0.8467600000000001  1.0000
  O   O25       1.0  0.91197  0.29991  0.19117  1.0000
  O   O26       1.0  0.7189699999999999  0.006400000000000006  0.65265  1.0000
  O   O27       1.0  0.20603  0.06806  0.1874  1.0000
  O   O28       1.0  0.9767599999999996  0.88215  0.41989  1.0000
  O   O29       1.0  0.25316  0.33159  0.39891  1.0000
  O   O30       1.0  0.8007600000000001  0.43148  0.31156  1.0000
  O   O31       1.0  0.74815  0.17121  0.10082  1.0000
  O   O32       1.0  0.12544  0.34275  0.055290000000000006  1.0000
  O   O33       1.0  0.73281  0.16868  0.35169  1.0000
  O   O34       1.0  0.029779999999999984  0.61361  0.08014  1.0000
  O   O35       1.0  0.80196  0.9811999999999999  0.04891  1.0000
  O   O36       1.0  0.27384  0.33091  0.14699  1.0000
  O   O37       1.0  0.06646  0.06748  0.09383  1.0000
  O   O38       1.0  0.9335900000000001  0.69992  0.48259  1.0000
  O   O39       1.0  0.9342299999999999  0.4321  0.40701  1.0000
  O   O40       1.0  0.82457  0.92981  0.55178  1.0000
  O   O41       1.0  0.17653  0.56956  0.9481  1.0000
  O   O42       1.0  0.8792199999999999  0.15666  0.44421  1.0000
  O   O43       1.0  0.19713999999999998  0.52087  0.45127  1.0000
  O   O44       1.0  0.060200000000000024  0.79933  0.01756  1.0000
