data_image0
_chemical_formula_structural       Cd4H44C36N8O12
_chemical_formula_sum              "Cd4 H44 C36 N8 O12"
_cell_length_a       5.59783
_cell_length_b       15.903029999999998
_cell_length_c       17.04127
_cell_angle_alpha    90.00173
_cell_angle_beta     89.98924
_cell_angle_gamma    89.66094

_space_group_name_H-M_alt    "P 1"
_space_group_IT_number       1

loop_
  _space_group_symop_operation_xyz
  'x, y, z'

loop_
  _atom_site_type_symbol
  _atom_site_label
  _atom_site_symmetry_multiplicity
  _atom_site_fract_x
  _atom_site_fract_y
  _atom_site_fract_z
  _atom_site_occupancy
  Cd  Cd1       1.0  0.60226  0.29427  0.37410000000000004  1.0000
  Cd  Cd2       1.0  0.56056  0.78542  0.17639  1.0000
  Cd  Cd3       1.0  0.89655  0.7056799999999998  0.8744900000000002  1.0000
  Cd  Cd4       1.0  0.94049  0.21448999999999993  0.67587  1.0000
  H   H1        1.0  0.61058  0.12187999999999997  0.23719000000000004  1.0000
  H   H2        1.0  0.4838  0.2866799999999999  0.67737  1.0000
  H   H3        1.0  0.06103  0.056939999999999984  0.77857  1.0000
  H   H4        1.0  0.55806  0.44165  0.22267  1.0000
  H   H5        1.0  0.4005699999999999  0.19142  0.47348999999999997  1.0000
  H   H6        1.0  0.01126  0.45153  0.63819  1.0000
  H   H7        1.0  0.07442  0.3753  0.38813  1.0000
  H   H8        1.0  0.08460000000000001  0.44951999999999986  0.5384  1.0000
  H   H9        1.0  0.7770099999999999  0.57455  0.18965  1.0000
  H   H10       1.0  0.41534  0.55046  0.03847  1.0000
  H   H11       1.0  0.93516  0.9361699999999997  0.96199  1.0000
  H   H12       1.0  0.49561  0.7959  0.82086  1.0000
  H   H13       1.0  0.56565  0.9335899999999998  0.88893  1.0000
  H   H14       1.0  0.72301  0.4255699999999999  0.68961  1.0000
  H   H15       1.0  0.48684  0.05760999999999999  0.36104  1.0000
  H   H16       1.0  0.14628  0.68195  0.30069  1.0000
  H   H17       1.0  0.00422  0.20423  0.32077  1.0000
  H   H18       1.0  0.8040499999999999  0.9949299999999998  0.63518  1.0000
  H   H19       1.0  0.48904  0.54838  0.13821  1.0000
  H   H20       1.0  0.11704  0.37858  0.76418  1.0000
  H   H21       1.0  0.35365  0.3180099999999999  0.80055  1.0000
  H   H22       1.0  0.664  0.81645  0.69607  1.0000
  H   H23       1.0  0.43917  0.9431699999999997  0.27859  1.0000
  H   H24       1.0  0.30602  0.5039699999999998  0.36253  1.0000
  H   H25       1.0  0.21718  0.07679  0.31099  1.0000
  H   H26       1.0  0.283  0.92336  0.81104  1.0000
  H   H27       1.0  0.09953  0.80847  0.9734600000000001  1.0000
  H   H28       1.0  0.01632  0.71339  0.17748  1.0000
  H   H29       1.0  0.9345599999999998  0.06658999999999997  0.3889  1.0000
  H   H30       1.0  0.9044200000000001  0.31597  0.52984  1.0000
  H   H31       1.0  0.59538  0.68409  0.030060000000000003  1.0000
  H   H32       1.0  0.69634  0.00508  0.13518  1.0000
  H   H33       1.0  0.013330000000000005  0.9423099999999998  0.86102  1.0000
  H   H34       1.0  0.06904  0.5677999999999997  0.10726000000000002  1.0000
  H   H35       1.0  0.83609  0.18353999999999998  0.19595  1.0000
  H   H36       1.0  0.425  0.62464  0.8882  1.0000
  H   H37       1.0  0.9298899999999999  0.87446  0.11686  1.0000
  H   H38       1.0  0.19356  0.4960299999999999  0.8625  1.0000
  H   H39       1.0  0.43101  0.43231999999999987  0.60721  1.0000
  H   H40       1.0  0.57059  0.12552  0.61679  1.0000
  H   H41       1.0  0.3827999999999999  0.62137  0.2643  1.0000
  H   H42       1.0  0.5655  0.06374999999999997  0.46186  1.0000
  H   H43       1.0  0.8896  0.8780699999999998  0.73733  1.0000
  H   H44       1.0  0.94179  0.55842  0.72272  1.0000
  C   C1        1.0  0.71911  0.4593599999999999  0.25433  1.0000
  C   C2        1.0  0.06551  0.40959  0.59024  1.0000
  C   C3        1.0  0.99519  0.9236299999999997  0.15652  1.0000
  C   C4        1.0  0.90022  0.17663  0.4635  1.0000
  C   C5        1.0  0.69772  0.8647599999999998  0.74109  1.0000
  C   C6        1.0  0.9374  0.9014399999999998  0.9065500000000002  1.0000
  C   C7        1.0  0.67802  0.87619  0.89015  1.0000
  C   C8        1.0  0.63768  0.00289  0.66761  1.0000
  C   C9        1.0  0.50525  0.07640999999999998  0.6565  1.0000
  C   C10       1.0  0.65911  0.46695  0.73612  1.0000
  C   C11       1.0  0.43463999999999997  0.5903499999999998  0.09032000000000001  1.0000
  C   C12       1.0  0.44469  0.4464999999999999  0.77425  1.0000
  C   C13       1.0  0.15667  0.03689  0.26296  1.0000
  C   C14       1.0  0.34359  0.96324  0.76299  1.0000
  C   C15       1.0  0.94431  0.05618  0.22319  1.0000
  C   C16       1.0  0.05507000000000001  0.5535399999999998  0.27429  1.0000
  C   C17       1.0  0.556  0.9438899999999998  0.72323  1.0000
  C   C18       1.0  0.8627399999999998  0.9971499999999998  0.16759  1.0000
  C   C19       1.0  0.31689  0.37611  0.60813  1.0000
  C   C20       1.0  0.35911999999999994  0.5055  0.82998  1.0000
  C   C21       1.0  0.8407399999999999  0.53312  0.23612999999999998  1.0000
  C   C22       1.0  0.14049  0.4945099999999999  0.33002  1.0000
  C   C23       1.0  0.27857  0.96253  0.24655  1.0000
  C   C24       1.0  0.19098000000000004  0.6337999999999998  0.25594  1.0000
  C   C25       1.0  0.10558  0.67784  0.03761  1.0000
  C   C26       1.0  0.56284  0.09852999999999998  0.40648  1.0000
  C   C27       1.0  0.22169999999999998  0.03758  0.74654  1.0000
  C   C28       1.0  0.30892  0.3662199999999999  0.75586  1.0000
  C   C29       1.0  0.39475  0.32222  0.53759  1.0000
  C   C30       1.0  0.011450000000000002  0.42181999999999986  0.34524  1.0000
  C   C31       1.0  0.18336  0.6239599999999997  0.1082  1.0000
  C   C32       1.0  0.59932  0.8235599999999997  0.9635999999999999  1.0000
  C   C33       1.0  0.82198  0.12391999999999997  0.3900600000000001  1.0000
  C   C34       1.0  0.48813  0.5781699999999997  0.84527  1.0000
  C   C35       1.0  0.78072  0.5407  0.75437  1.0000
  C   C36       1.0  0.8024  0.13528  0.24101000000000003  1.0000
  N   N1        1.0  0.7999  0.40394  0.30956  1.0000
  N   N2        1.0  0.69983  0.5960899999999998  0.80964  1.0000
  N   N3        1.0  0.65802  0.82445  0.81841  1.0000
  N   N4        1.0  0.3  0.09380999999999998  0.6933800000000001  1.0000
  N   N5        1.0  0.33675  0.32551  0.67944  1.0000
  N   N6        1.0  0.16342  0.67456  0.17953  1.0000
  N   N7        1.0  0.84191  0.17561999999999997  0.3183  1.0000
  N   N8        1.0  0.20036  0.90626  0.19342  1.0000
  O   O1        1.0  0.09292  0.7562399999999998  0.04815  1.0000
  O   O2        1.0  0.0942  0.8281899999999998  0.91458  1.0000
  O   O3        1.0  0.4285  0.3617399999999999  0.47223  1.0000
  O   O4        1.0  0.40595000000000003  0.17174  0.41462  1.0000
  O   O5        1.0  0.59193  0.74197  0.9541900000000001  1.0000
  O   O6        1.0  0.56897  0.8629599999999997  0.02483  1.0000
  O   O7        1.0  0.61639  0.65086  0.08041000000000001  1.0000
  O   O8        1.0  0.40723  0.24381999999999995  0.54814  1.0000
  O   O9        1.0  0.92996  0.1373  0.52483  1.0000
  O   O10       1.0  0.07177  0.63832  0.9722800000000001  1.0000
  O   O11       1.0  0.8840199999999999  0.3489899999999999  0.58036  1.0000
  O   O12       1.0  0.90814  0.25817  0.45393  1.0000
