data_image0
_chemical_formula_structural       Cd6H28C60O24
_chemical_formula_sum              "Cd6 H28 C60 O24"
_cell_length_a       7.15954
_cell_length_b       13.84957
_cell_length_c       17.663469999999997
_cell_angle_alpha    89.98968
_cell_angle_beta     90.22341
_cell_angle_gamma    112.13965

_symmetry_space_group_name_H-M    'P 1'
_symmetry_Int_Tables_number       1

loop_
  _symmetry_equiv_pos_as_xyz
  'x,y,z'

loop_
  _atom_site_type_symbol
  _atom_site_label
  _atom_site_symmetry_multiplicity
  _atom_site_fract_x
  _atom_site_fract_y
  _atom_site_fract_z
  _atom_site_occupancy
  Cd  Cd1       1.0  0.39255000000000023  0.8405900000000002  0.47050999999999993  1.0000
  Cd  Cd2       1.0  0.10972  0.15922  0.97077  1.0000
  Cd  Cd3       1.0  0.6074900000000002  0.15943000000000002  0.5295  1.0000
  Cd  Cd4       1.0  0.8903300000000002  0.84081  0.02921  1.0000
  Cd  Cd5       1.0  9.999999999999594e-06  9.999999999999994e-06  0.5  1.0000
  Cd  Cd6       1.0  0.5000200000000002  1.0000000000000003e-05  0.0  1.0000
  H   H1        1.0  0.14256  0.004480000000000001  0.74042  1.0000
  H   H2        1.0  0.14019000000000015  0.78182  0.91046  1.0000
  H   H3        1.0  0.16166  0.70897  0.67454  1.0000
  H   H4        1.0  0.36739000000000005  0.69745  0.9103500000000001  1.0000
  H   H5        1.0  0.3466500000000002  0.5290900000000001  0.96315  1.0000
  H   H6        1.0  0.8869200000000004  0.36755000000000004  0.79998  1.0000
  H   H7        1.0  0.9180300000000002  0.53717  0.74241  1.0000
  H   H8        1.0  0.3563200000000001  0.9938700000000001  0.24058  1.0000
  H   H9        1.0  0.35943  0.21695  0.4103  1.0000
  H   H10       1.0  0.33615000000000017  0.2887700000000001  0.17408  1.0000
  H   H11       1.0  0.13712  0.30325  0.41051  1.0000
  H   H12       1.0  0.16002000000000008  0.4720400000000001  0.46225  1.0000
  H   H13       1.0  0.6104800000000004  0.6312800000000001  0.29677  1.0000
  H   H14       1.0  0.5787900000000002  0.4608500000000001  0.2406  1.0000
  H   H15       1.0  0.8574300000000002  0.99553  0.25957  1.0000
  H   H16       1.0  0.85981  0.21821000000000002  0.08955  1.0000
  H   H17       1.0  0.8383400000000001  0.29103  0.32548  1.0000
  H   H18       1.0  0.6326100000000001  0.30257000000000006  0.08966  1.0000
  H   H19       1.0  0.6533700000000001  0.4709200000000001  0.03685  1.0000
  H   H20       1.0  0.11310000000000012  0.63247  0.20002  1.0000
  H   H21       1.0  0.08197000000000011  0.4628500000000001  0.2576  1.0000
  H   H22       1.0  0.64368  0.006140000000000001  0.75943  1.0000
  H   H23       1.0  0.6405600000000002  0.78307  0.58969  1.0000
  H   H24       1.0  0.6638400000000003  0.7112400000000002  0.82592  1.0000
  H   H25       1.0  0.8628800000000002  0.69676  0.58949  1.0000
  H   H26       1.0  0.84  0.52797  0.53776  1.0000
  H   H27       1.0  0.38953  0.36873  0.70323  1.0000
  H   H28       1.0  0.42121  0.53916  0.75939  1.0000
  C   C1        1.0  0.15161000000000013  0.85948  0.69931  1.0000
  C   C2        1.0  0.1467400000000002  0.9293200000000003  0.75553  1.0000
  C   C3        1.0  0.1461000000000001  0.9017800000000001  0.83155  1.0000
  C   C4        1.0  0.14664000000000008  0.8043000000000002  0.85121  1.0000
  C   C5        1.0  0.15057  0.73275  0.79568  1.0000
  C   C6        1.0  0.15540000000000012  0.7619100000000001  0.71914  1.0000
  C   C7        1.0  0.14114000000000013  0.8902400000000003  0.61869  1.0000
  C   C8        1.0  0.13925000000000018  0.9756000000000002  0.89053  1.0000
  C   C9        1.0  0.1442600000000001  0.6299100000000001  0.82235  1.0000
  C   C10       1.0  0.26234000000000013  0.6257900000000001  0.88533  1.0000
  C   C11       1.0  0.25092  0.53107  0.9156  1.0000
  C   C12       1.0  0.11344000000000008  0.43741000000000013  0.88537  1.0000
  C   C13       1.0  0.9938700000000004  0.44046000000000013  0.82286  1.0000
  C   C14       1.0  0.012139999999999998  0.53575  0.7906  1.0000
  C   C15       1.0  0.09737000000000011  0.3363900000000001  0.92002  1.0000
  C   C16       1.0  0.34816000000000014  0.13867000000000002  0.19914  1.0000
  C   C17       1.0  0.35268  0.06915  0.25561  1.0000
  C   C18       1.0  0.35295  0.09689  0.33158  1.0000
  C   C19       1.0  0.35316000000000003  0.19461000000000006  0.35098  1.0000
  C   C20       1.0  0.34913  0.266  0.29527  1.0000
  C   C21       1.0  0.3434400000000001  0.23618  0.21877  1.0000
  C   C22       1.0  0.3592700000000001  0.10735000000000003  0.11871  1.0000
  C   C23       1.0  0.35691  0.0223  0.39051  1.0000
  C   C24       1.0  0.3566200000000001  0.36927  0.32156  1.0000
  C   C25       1.0  0.2411700000000001  0.3743700000000001  0.38476  1.0000
  C   C26       1.0  0.25366000000000016  0.46955000000000013  0.41449  1.0000
  C   C27       1.0  0.38911  0.56287  0.38348  1.0000
  C   C28       1.0  0.5054800000000003  0.5588300000000002  0.3206  1.0000
  C   C29       1.0  0.4868000000000001  0.46305  0.28903  1.0000
  C   C30       1.0  0.40576  0.66444  0.4175  1.0000
  C   C31       1.0  0.8483900000000002  0.14053  0.3007  1.0000
  C   C32       1.0  0.8532500000000002  0.07070000000000001  0.24447999999999998  1.0000
  C   C33       1.0  0.8539200000000003  0.09826000000000003  0.16847  1.0000
  C   C34       1.0  0.8533500000000004  0.19573000000000004  0.14881  1.0000
  C   C35       1.0  0.8494100000000002  0.26727  0.20434  1.0000
  C   C36       1.0  0.8446000000000001  0.23810000000000006  0.28088  1.0000
  C   C37       1.0  0.8588800000000001  0.10976000000000001  0.38131  1.0000
  C   C38       1.0  0.8608  0.02448  0.10946  1.0000
  C   C39       1.0  0.85572  0.3701100000000001  0.17766  1.0000
  C   C40       1.0  0.7376600000000002  0.3742300000000001  0.11468  1.0000
  C   C41       1.0  0.74909  0.46895  0.0844  1.0000
  C   C42       1.0  0.8865700000000002  0.5626100000000002  0.11463  1.0000
  C   C43       1.0  0.00613000000000001  0.55956  0.17714  1.0000
  C   C44       1.0  0.9878600000000001  0.4642800000000001  0.2094  1.0000
  C   C45       1.0  0.9026300000000005  0.6636400000000002  0.07998  1.0000
  C   C46       1.0  0.6518300000000005  0.8613400000000002  0.80086  1.0000
  C   C47       1.0  0.64732  0.93087  0.74439  1.0000
  C   C48       1.0  0.6470600000000002  0.90314  0.66843  1.0000
  C   C49       1.0  0.6468400000000004  0.8054100000000002  0.64901  1.0000
  C   C50       1.0  0.6508700000000003  0.7340200000000001  0.70472  1.0000
  C   C51       1.0  0.6565600000000003  0.7638300000000001  0.78122  1.0000
  C   C52       1.0  0.64069  0.89266  0.88129  1.0000
  C   C53       1.0  0.6430900000000002  0.9777200000000003  0.60949  1.0000
  C   C54       1.0  0.6433800000000003  0.6307400000000001  0.67843  1.0000
  C   C55       1.0  0.75883  0.62565  0.61524  1.0000
  C   C56       1.0  0.74635  0.5304700000000001  0.58551  1.0000
  C   C57       1.0  0.6109100000000002  0.43714  0.61652  1.0000
  C   C58       1.0  0.49454000000000015  0.44119000000000014  0.6794  1.0000
  C   C59       1.0  0.5132000000000001  0.5369700000000001  0.71097  1.0000
  C   C60       1.0  0.59425  0.33557  0.58251  1.0000
  O   O1        1.0  0.16763000000000022  0.8359300000000002  0.56507  1.0000
  O   O2        1.0  0.09423000000000013  0.9708800000000001  0.60984  1.0000
  O   O3        1.0  0.11424000000000004  0.05775000000000002  0.8714  1.0000
  O   O4        1.0  0.16183000000000003  0.95444  0.96156  1.0000
  O   O5        1.0  0.2465800000000001  0.3346500000000001  0.96043  1.0000
  O   O6        1.0  0.9404700000000003  0.25410000000000005  0.90876  1.0000
  O   O7        1.0  0.3375400000000001  0.16286  0.06479  1.0000
  O   O8        1.0  0.4017600000000001  0.02537  0.10999  1.0000
  O   O9        1.0  0.37781000000000015  0.9391300000000002  0.37129  1.0000
  O   O10       1.0  0.33568  0.04343  0.46163  1.0000
  O   O11       1.0  0.25774000000000025  0.6661000000000002  0.4582899999999999  1.0000
  O   O12       1.0  0.5614400000000004  0.7468800000000002  0.40553  1.0000
  O   O13       1.0  0.8324100000000003  0.16407000000000005  0.43493  1.0000
  O   O14       1.0  0.9057700000000002  0.029120000000000004  0.39016  1.0000
  O   O15       1.0  0.8858300000000001  0.9423200000000002  0.12857  1.0000
  O   O16       1.0  0.83821  0.04573  0.03845  1.0000
  O   O17       1.0  0.7534300000000004  0.6653800000000002  0.03957  1.0000
  O   O18       1.0  0.05952000000000005  0.74593  0.09124  1.0000
  O   O19       1.0  0.6623100000000001  0.8371300000000002  0.93522  1.0000
  O   O20       1.0  0.5982600000000001  0.9746600000000001  0.89001  1.0000
  O   O21       1.0  0.6220800000000001  0.060870000000000014  0.62871  1.0000
  O   O22       1.0  0.6643700000000002  0.95661  0.53838  1.0000
  O   O23       1.0  0.74227  0.33391  0.54172  1.0000
  O   O24       1.0  0.43857  0.25314  0.59447  1.0000
