data_image0
_chemical_formula_structural       Mn4Cu12H12C36Br4O72
_chemical_formula_sum              "Mn4 Cu12 H12 C36 Br4 O72"
_cell_length_a       16.28871
_cell_length_b       17.9989
_cell_length_c       18.98528
_cell_angle_alpha    89.94678999999998
_cell_angle_beta     89.99865999999999
_cell_angle_gamma    90.02684

_space_group_name_H-M_alt    "P 1"
_space_group_IT_number       1

loop_
  _space_group_symop_operation_xyz
  'x, y, z'

loop_
  _atom_site_type_symbol
  _atom_site_label
  _atom_site_symmetry_multiplicity
  _atom_site_fract_x
  _atom_site_fract_y
  _atom_site_fract_z
  _atom_site_occupancy
  Mn  Mn1       1.0  0.9000399999999997  0.4254799999999999  0.89705  1.0000
  Mn  Mn2       1.0  0.60008  0.57376  0.39709999999999995  1.0000
  Mn  Mn3       1.0  0.09996999999999998  0.92618  0.60286  1.0000
  Mn  Mn4       1.0  0.40004  0.07397  0.10277  1.0000
  Cu  Cu1       1.0  0.21795  0.06801  0.84782  1.0000
  Cu  Cu2       1.0  0.03496  0.15389  0.79018  1.0000
  Cu  Cu3       1.0  0.15264  0.21362999999999996  0.93455  1.0000
  Cu  Cu4       1.0  0.2818799999999999  0.93182  0.34736  1.0000
  Cu  Cu5       1.0  0.4649999999999999  0.84598  0.29008  1.0000
  Cu  Cu6       1.0  0.34706  0.78629  0.4342  1.0000
  Cu  Cu7       1.0  0.78186  0.56749  0.65251  1.0000
  Cu  Cu8       1.0  0.96487  0.6539499999999999  0.71002  1.0000
  Cu  Cu9       1.0  0.8469  0.71367  0.56602  1.0000
  Cu  Cu10      1.0  0.7179499999999998  0.43189  0.15221  1.0000
  Cu  Cu11      1.0  0.53489  0.34609  0.20976  1.0000
  Cu  Cu12      1.0  0.65273  0.2863  0.06551  1.0000
  H   H1        1.0  0.07726  0.9055199999999999  0.75782  1.0000
  H   H2        1.0  0.22294  0.03762  0.08703  1.0000
  H   H3        1.0  0.88459  0.26061  0.93056  1.0000
  H   H4        1.0  0.4227  0.09447  0.25754  1.0000
  H   H5        1.0  0.2777  0.9622899999999999  0.58643  1.0000
  H   H6        1.0  0.61547  0.73866  0.43030999999999997  1.0000
  H   H7        1.0  0.9231099999999998  0.40541  0.74219  1.0000
  H   H8        1.0  0.77781  0.53759  0.41377  1.0000
  H   H9        1.0  0.11538  0.7614699999999999  0.56961  1.0000
  H   H10       1.0  0.57727  0.59455  0.24212999999999998  1.0000
  H   H11       1.0  0.72276  0.4611199999999999  0.9123999999999999  1.0000
  H   H12       1.0  0.3846599999999999  0.23916999999999997  0.06947  1.0000
  C   C1        1.0  0.18699  0.99992  0.72007  1.0000
  C   C2        1.0  0.30802  0.04097  0.96624  1.0000
  C   C3        1.0  0.036139999999999985  0.32399  0.93102  1.0000
  C   C4        1.0  0.10134999999999997  0.014590000000000002  0.75315  1.0000
  C   C5        1.0  0.23390999999999995  0.08724999999999998  0.99428  1.0000
  C   C6        1.0  0.9957499999999999  0.25932  0.8898099999999999  1.0000
  C   C7        1.0  0.03952  0.04075999999999999  0.69606  1.0000
  C   C8        1.0  0.2675099999999999  0.16  0.02591  1.0000
  C   C9        1.0  0.96175  0.2852  0.8173  1.0000
  C   C10       1.0  0.31301  0.9998499999999999  0.21969999999999998  1.0000
  C   C11       1.0  0.19186  0.9589699999999999  0.46561  1.0000
  C   C12       1.0  0.4638  0.67554  0.43084  1.0000
  C   C13       1.0  0.39862  0.9853799999999999  0.25305  1.0000
  C   C14       1.0  0.26602  0.91281  0.49374999999999997  1.0000
  C   C15       1.0  0.5041799999999997  0.74014  0.38957  1.0000
  C   C16       1.0  0.46052  0.95931  0.19597  1.0000
  C   C17       1.0  0.23248999999999995  0.84011  0.52574  1.0000
  C   C18       1.0  0.5383099999999997  0.7145899999999998  0.31698  1.0000
  C   C19       1.0  0.81296  0.49826  0.77923  1.0000
  C   C20       1.0  0.6917199999999998  0.54103  0.53439  1.0000
  C   C21       1.0  0.9636  0.8244  0.56923  1.0000
  C   C22       1.0  0.89855  0.51434  0.74685  1.0000
  C   C23       1.0  0.7660099999999997  0.5871899999999999  0.50634  1.0000
  C   C24       1.0  0.004089999999999999  0.75978  0.61043  1.0000
  C   C25       1.0  0.9601899999999998  0.54052  0.8041299999999999  1.0000
  C   C26       1.0  0.7325099999999998  0.65984  0.47429  1.0000
  C   C27       1.0  0.03831  0.78528  0.6829699999999999  1.0000
  C   C28       1.0  0.68702  0.49989999999999996  0.27998  1.0000
  C   C29       1.0  0.8081199999999997  0.45904999999999996  0.03375  1.0000
  C   C30       1.0  0.53608  0.17588  0.06885  1.0000
  C   C31       1.0  0.60138  0.4853799999999999  0.24682999999999997  1.0000
  C   C32       1.0  0.73409  0.41272999999999993  0.0057  1.0000
  C   C33       1.0  0.49582  0.24055  0.11010999999999999  1.0000
  C   C34       1.0  0.53953  0.45921000000000006  0.30397  1.0000
  C   C35       1.0  0.7675599999999998  0.33988  0.9741599999999999  1.0000
  C   C36       1.0  0.4616999999999999  0.2146  0.18247  1.0000
  Br  Br1       1.0  0.25461  0.20065  0.82161  1.0000
  Br  Br2       1.0  0.24512  0.79944  0.32122  1.0000
  Br  Br3       1.0  0.74494  0.70001  0.67891  1.0000
  Br  Br4       1.0  0.75418  0.29889  0.17822  1.0000
  O   O1        1.0  0.24906  0.01792  0.75575  1.0000
  O   O2        1.0  0.3118599999999999  0.02961  0.8996599999999999  1.0000
  O   O3        1.0  0.10833  0.31464  0.9540099999999999  1.0000
  O   O4        1.0  0.19181  0.96825  0.65921  1.0000
  O   O5        1.0  0.36081999999999986  0.01818  0.00942  1.0000
  O   O6        1.0  0.9960199999999999  0.38392999999999994  0.94344  1.0000
  O   O7        1.0  0.10883  0.07032  0.80363  1.0000
  O   O8        1.0  0.17896  0.1038  0.93949  1.0000
  O   O9        1.0  0.05427  0.20399  0.87842  1.0000
  O   O10       1.0  0.07457  0.9503399999999999  0.78866  1.0000
  O   O11       1.0  0.18824999999999995  0.04829  0.04577  1.0000
  O   O12       1.0  0.93263  0.22704000000000002  0.93102  1.0000
  O   O13       1.0  0.02918  0.0028899999999999998  0.63968  1.0000
  O   O14       1.0  0.3255199999999999  0.15663  0.07157  1.0000
  O   O15       1.0  0.92547  0.34735  0.81195  1.0000
  O   O16       1.0  0.9996599999999999  0.09981  0.70674  1.0000
  O   O17       1.0  0.23728  0.22161  0.007359999999999999  1.0000
  O   O18       1.0  0.9707299999999998  0.24100999999999997  0.76561  1.0000
  O   O19       1.0  0.25072999999999995  0.98182  0.25508  1.0000
  O   O20       1.0  0.18811  0.97042  0.39904  1.0000
  O   O21       1.0  0.39195999999999986  0.68543  0.45443  1.0000
  O   O22       1.0  0.3083  0.031129999999999998  0.15858  1.0000
  O   O23       1.0  0.13876  0.9816099999999999  0.50858  1.0000
  O   O24       1.0  0.5038  0.61542  0.44312999999999997  1.0000
  O   O25       1.0  0.39111  0.92961  0.30357  1.0000
  O   O26       1.0  0.32104  0.8962300000000001  0.4391  1.0000
  O   O27       1.0  0.44587  0.79583  0.37838  1.0000
  O   O28       1.0  0.42536  0.04964999999999999  0.28847  1.0000
  O   O29       1.0  0.3118899999999999  0.9519299999999999  0.54485  1.0000
  O   O30       1.0  0.56694  0.77149  0.43155  1.0000
  O   O31       1.0  0.47094999999999987  0.9972699999999999  0.13964  1.0000
  O   O32       1.0  0.17467999999999995  0.84368  0.57164  1.0000
  O   O33       1.0  0.57459  0.65241  0.31152  1.0000
  O   O34       1.0  0.50038  0.9002199999999999  0.20673  1.0000
  O   O35       1.0  0.26262  0.77848  0.50734  1.0000
  O   O36       1.0  0.52922  0.7589299999999999  0.26535  1.0000
  O   O37       1.0  0.75075  0.51488  0.74311  1.0000
  O   O38       1.0  0.68794  0.52946  0.60091  1.0000
  O   O39       1.0  0.8918  0.81452  0.54564  1.0000
  O   O40       1.0  0.8082199999999998  0.46640999999999994  0.83997  1.0000
  O   O41       1.0  0.63864  0.51844  0.49137999999999993  1.0000
  O   O42       1.0  0.0037599999999999995  0.88447  0.55679  1.0000
  O   O43       1.0  0.8909099999999998  0.57032  0.69656  1.0000
  O   O44       1.0  0.82099  0.60378  0.561  1.0000
  O   O45       1.0  0.9458199999999998  0.70403  0.62162  1.0000
  O   O46       1.0  0.92578  0.4502900000000001  0.71131  1.0000
  O   O47       1.0  0.81194  0.548  0.45539  1.0000
  O   O48       1.0  0.06686  0.72857  0.56839  1.0000
  O   O49       1.0  0.97063  0.50252  0.86045  1.0000
  O   O50       1.0  0.6746699999999998  0.65622  0.42842  1.0000
  O   O51       1.0  0.07459  0.8475  0.68822  1.0000
  O   O52       1.0  0.00023  0.59957  0.7934  1.0000
  O   O53       1.0  0.7626  0.7215199999999999  0.49267  1.0000
  O   O54       1.0  0.029279999999999994  0.741  0.73468  1.0000
  O   O55       1.0  0.74914  0.48202999999999996  0.24433  1.0000
  O   O56       1.0  0.81188  0.47046  0.10034  1.0000
  O   O57       1.0  0.60827  0.18532  0.04578  1.0000
  O   O58       1.0  0.69179  0.53106  0.34109  1.0000
  O   O59       1.0  0.86101  0.48173999999999995  0.9905699999999998  1.0000
  O   O60       1.0  0.49593999999999994  0.11591  0.05649  1.0000
  O   O61       1.0  0.60881  0.42964  0.19635  1.0000
  O   O62       1.0  0.67904  0.39616999999999997  0.06046  1.0000
  O   O63       1.0  0.5543  0.29598  0.12155999999999999  1.0000
  O   O64       1.0  0.57463  0.54964  0.21134999999999998  1.0000
  O   O65       1.0  0.68846  0.4517  0.95417  1.0000
  O   O66       1.0  0.43269  0.27279  0.06892  1.0000
  O   O67       1.0  0.52917  0.49709  0.36032  1.0000
  O   O68       1.0  0.82556  0.34307  0.9284500000000001  1.0000
  O   O69       1.0  0.42535  0.15242  0.18760999999999997  1.0000
  O   O70       1.0  0.49962  0.40016  0.29321  1.0000
  O   O71       1.0  0.73722  0.2783  0.99265  1.0000
  O   O72       1.0  0.4705099999999999  0.25889  0.2341  1.0000
