data_image0
_chemical_formula_structural       Nd4H28C60O24
_chemical_formula_sum              "Nd4 H28 C60 O24"
_cell_length_a       13.65876
_cell_length_b       14.07728
_cell_length_c       14.01693
_cell_angle_alpha    119.93044
_cell_angle_beta     96.86278
_cell_angle_gamma    90.08955

_symmetry_space_group_name_H-M    'P 1'
_symmetry_Int_Tables_number       1

loop_
  _symmetry_equiv_pos_as_xyz
  'x,y,z'

loop_
  _atom_site_type_symbol
  _atom_site_label
  _atom_site_symmetry_multiplicity
  _atom_site_fract_x
  _atom_site_fract_y
  _atom_site_fract_z
  _atom_site_occupancy
  Nd  Nd1       1.0  0.52615  0.60961  0.65476  1.0000
  Nd  Nd2       1.0  0.97611  0.95643  0.34469000000000005  1.0000
  Nd  Nd3       1.0  0.47392000000000006  0.39051  0.34514  1.0000
  Nd  Nd4       1.0  0.02606  0.04440999999999998  0.65469  1.0000
  H   H1        1.0  0.42451  0.84481  0.020850000000000004  1.0000
  H   H2        1.0  0.36697  0.87892  0.19667  1.0000
  H   H3        1.0  0.38127  0.53511  0.0915  1.0000
  H   H4        1.0  0.43784  0.50246  0.9156700000000001  1.0000
  H   H5        1.0  0.23945  0.84868  0.27422  1.0000
  H   H6        1.0  0.31148000000000003  0.84047  0.57692  1.0000
  H   H7        1.0  0.44947  0.62636  0.28937  1.0000
  H   H8        1.0  0.07548000000000003  0.8222500000000003  0.9790500000000001  1.0000
  H   H9        1.0  0.13224  0.6815300000000001  0.80273  1.0000
  H   H10       1.0  0.11928  0.4427  0.90865  1.0000
  H   H11       1.0  0.06353  0.58466  0.08501  1.0000
  H   H12       1.0  0.26203  0.5731  0.72516  1.0000
  H   H13       1.0  0.18731  0.26381  0.42343  1.0000
  H   H14       1.0  0.049899999999999986  0.33795  0.71208  1.0000
  H   H15       1.0  0.57461  0.15655999999999998  0.98045  1.0000
  H   H16       1.0  0.63398  0.12113000000000006  0.8049600000000001  1.0000
  H   H17       1.0  0.61917  0.46434000000000003  0.9072000000000001  1.0000
  H   H18       1.0  0.56124  0.49835  0.08278  1.0000
  H   H19       1.0  0.7625  0.15075999999999995  0.72524  1.0000
  H   H20       1.0  0.68854  0.15952000000000002  0.42305000000000004  1.0000
  H   H21       1.0  0.55279  0.37425  0.71234  1.0000
  H   H22       1.0  0.92234  0.17577  0.02158  1.0000
  H   H23       1.0  0.86696  0.31822  0.19784  1.0000
  H   H24       1.0  0.88219  0.55511  0.08973  1.0000
  H   H25       1.0  0.9374  0.41183999999999993  0.91395  1.0000
  H   H26       1.0  0.7389599999999998  0.42644000000000004  0.27412  1.0000
  H   H27       1.0  0.81169  0.73654  0.57546  1.0000
  H   H28       1.0  0.95097  0.66166  0.28769  1.0000
  C   C1        1.0  0.48336  0.65524  0.86185  1.0000
  C   C2        1.0  0.43767  0.67232  0.9594800000000001  1.0000
  C   C3        1.0  0.41412  0.7778700000000001  0.03713  1.0000
  C   C4        1.0  0.3814  0.7961  0.13474  1.0000
  C   C5        1.0  0.37218000000000007  0.70992  0.15756  1.0000
  C   C6        1.0  0.39068  0.60314  0.07649  1.0000
  C   C7        1.0  0.42268999999999995  0.58461  0.97824  1.0000
  C   C8        1.0  0.34905  0.73613  0.26831  1.0000
  C   C9        1.0  0.28169  0.81504  0.31988  1.0000
  C   C10       1.0  0.26637  0.85169  0.42978  1.0000
  C   C11       1.0  0.32027  0.81037  0.49055000000000004  1.0000
  C   C12       1.0  0.3848  0.72797  0.43842000000000003  1.0000
  C   C13       1.0  0.39815  0.68961  0.32754  1.0000
  C   C14       1.0  0.18993  0.93186  0.47742000000000007  1.0000
  C   C15       1.0  0.44058  0.6845  0.50435  1.0000
  C   C16       1.0  0.019119999999999998  0.7915700000000001  0.13952  1.0000
  C   C17       1.0  0.06368  0.71106  0.04124  1.0000
  C   C18       1.0  0.08639000000000001  0.73932  0.96307  1.0000
  C   C19       1.0  0.11853000000000001  0.66054  0.8651100000000003  1.0000
  C   C20       1.0  0.12803  0.5518700000000002  0.84258  1.0000
  C   C21       1.0  0.10998  0.52568  0.92384  1.0000
  C   C22       1.0  0.07851  0.60474  0.0224  1.0000
  C   C23       1.0  0.15109  0.46779  0.73199  1.0000
  C   C24       1.0  0.21906  0.49442  0.68008  1.0000
  C   C25       1.0  0.23391000000000003  0.42108  0.57025  1.0000
  C   C26       1.0  0.17871  0.32007  0.50971  1.0000
  C   C27       1.0  0.11382  0.29061  0.56239  1.0000
  C   C28       1.0  0.10129  0.36268  0.67338  1.0000
  C   C29       1.0  0.31106  0.45242  0.52222  1.0000
  C   C30       1.0  0.05702000000000001  0.18219  0.49734  1.0000
  C   C31       1.0  0.51664  0.34715  0.1389  1.0000
  C   C32       1.0  0.5618  0.329  0.04063  1.0000
  C   C33       1.0  0.5855400000000001  0.22313000000000005  0.9636900000000002  1.0000
  C   C34       1.0  0.61919  0.20412  0.86621  1.0000
  C   C35       1.0  0.629  0.28986  0.8428  1.0000
  C   C36       1.0  0.6097199999999999  0.39675999999999995  0.92289  1.0000
  C   C37       1.0  0.57694  0.41608  0.02101  1.0000
  C   C38       1.0  0.65273  0.26366  0.73224  1.0000
  C   C39       1.0  0.72007  0.18496000000000007  0.68024  1.0000
  C   C40       1.0  0.73518  0.1492  0.57042  1.0000
  C   C41       1.0  0.68024  0.18992  0.5096  1.0000
  C   C42       1.0  0.6155200000000001  0.27193  0.56217  1.0000
  C   C43       1.0  0.60355  0.31058  0.67344  1.0000
  C   C44       1.0  0.81238  0.07001  0.52314  1.0000
  C   C45       1.0  0.5576800000000002  0.31540000000000007  0.49732000000000004  1.0000
  C   C46       1.0  0.9809500000000001  0.20500000000000013  0.8608200000000003  1.0000
  C   C47       1.0  0.93601  0.28603  0.95859  1.0000
  C   C48       1.0  0.9125700000000001  0.25875  0.03718  1.0000
  C   C49       1.0  0.88099  0.33849  0.13504  1.0000
  C   C50       1.0  0.87248  0.44715  0.1571  1.0000
  C   C51       1.0  0.89092  0.47228  0.07524  1.0000
  C   C52       1.0  0.9220700000000001  0.39235000000000003  0.9768600000000001  1.0000
  C   C53       1.0  0.84973  0.53188  0.26765  1.0000
  C   C54       1.0  0.78161  0.5053  0.31937  1.0000
  C   C55       1.0  0.76618  0.57881  0.42895  1.0000
  C   C56       1.0  0.82077  0.68033  0.4893000000000001  1.0000
  C   C57       1.0  0.88606  0.70999  0.4369600000000001  1.0000
  C   C58       1.0  0.89936  0.63715  0.3263  1.0000
  C   C59       1.0  0.68906  0.5468  0.47668  1.0000
  C   C60       1.0  0.94263  0.81888  0.50248  1.0000
  O   O1        1.0  0.5159999999999999  0.5614600000000001  0.7980600000000001  1.0000
  O   O2        1.0  0.4907500000000001  0.73348  0.83994  1.0000
  O   O3        1.0  0.47541  0.58856  0.45447  1.0000
  O   O4        1.0  0.45345  0.74227  0.60984  1.0000
  O   O5        1.0  0.17640999999999998  0.9702000000000001  0.57862  1.0000
  O   O6        1.0  0.13981  0.9567300000000001  0.41063  1.0000
  O   O7        1.0  0.98558  0.7623  0.20363  1.0000
  O   O8        1.0  0.01393  0.8918  0.16082  1.0000
  O   O9        1.0  0.02834  0.13368  0.54786  1.0000
  O   O10       1.0  0.03808  0.13743  0.39214  1.0000
  O   O11       1.0  0.3244  0.38914  0.42108  1.0000
  O   O12       1.0  0.36183000000000004  0.54326  0.58802  1.0000
  O   O13       1.0  0.48549  0.44150000000000006  0.20361  1.0000
  O   O14       1.0  0.50868  0.26833  0.1601  1.0000
  O   O15       1.0  0.52815  0.41373  0.54859  1.0000
  O   O16       1.0  0.53838  0.25614  0.3922  1.0000
  O   O17       1.0  0.8277900000000001  0.03351  0.42278  1.0000
  O   O18       1.0  0.86161  0.043879999999999995  0.58919  1.0000
  O   O19       1.0  0.015060000000000006  0.23464  0.79702  1.0000
  O   O20       1.0  0.9863200000000001  0.10489999999999994  0.8389  1.0000
  O   O21       1.0  0.97569  0.86618  0.45259000000000005  1.0000
  O   O22       1.0  0.95749  0.86515  0.60799  1.0000
  O   O23       1.0  0.6762500000000001  0.60893  0.5781  1.0000
  O   O24       1.0  0.6377799999999999  0.45624000000000003  0.40984  1.0000
