data_image0
_chemical_formula_structural       Cu12H36C48N24O12
_chemical_formula_sum              "Cu12 H36 C48 N24 O12"
_cell_length_a       9.81793
_cell_length_b       15.85489
_cell_length_c       15.85185
_cell_angle_alpha    116.05474
_cell_angle_beta     101.91949999999999
_cell_angle_gamma    101.7887

_symmetry_space_group_name_H-M    'P 1'
_symmetry_Int_Tables_number       1

loop_
  _symmetry_equiv_pos_as_xyz
  'x,y,z'

loop_
  _atom_site_type_symbol
  _atom_site_label
  _atom_site_symmetry_multiplicity
  _atom_site_fract_x
  _atom_site_fract_y
  _atom_site_fract_z
  _atom_site_occupancy
  Cu  Cu1       1.0  0.307  0.6745  0.63261  1.0000
  Cu  Cu2       1.0  0.07024000000000002  0.6939800000000003  0.67858  1.0000
  Cu  Cu3       1.0  0.6362500000000001  0.9572300000000002  0.32555  1.0000
  Cu  Cu4       1.0  0.37977000000000005  0.9852300000000002  0.30758  1.0000
  Cu  Cu5       1.0  0.67328  0.36692  0.04258  1.0000
  Cu  Cu6       1.0  0.39093  0.32343  0.01648  1.0000
  Cu  Cu7       1.0  0.693  0.32551  0.36739  1.0000
  Cu  Cu8       1.0  0.9297700000000001  0.30603000000000014  0.32142  1.0000
  Cu  Cu9       1.0  0.36376000000000003  0.04277999999999998  0.67445  1.0000
  Cu  Cu10      1.0  0.62023  0.014770000000000009  0.69242  1.0000
  Cu  Cu11      1.0  0.32672  0.6330900000000003  0.95742  1.0000
  Cu  Cu12      1.0  0.60907  0.6765700000000001  0.98352  1.0000
  H   H1        1.0  0.80601  0.27822  0.51918  1.0000
  H   H2        1.0  0.9716999999999999  0.37821  0.69971  1.0000
  H   H3        1.0  0.08961999999999999  0.56313  0.77104  1.0000
  H   H4        1.0  0.07937000000000001  0.03369000000000001  0.9008  1.0000
  H   H5        1.0  0.001720000000000015  0.84568  0.81748  1.0000
  H   H6        1.0  0.24427  0.11605000000000004  0.83601  1.0000
  H   H7        1.0  0.5296800000000002  0.24292000000000002  0.7236999999999999  1.0000
  H   H8        1.0  0.59777  0.32231  0.62367  1.0000
  H   H9        1.0  0.52956  0.20755000000000007  0.43834  1.0000
  H   H10       1.0  0.048330000000000026  0.8670800000000002  0.96794  1.0000
  H   H11       1.0  0.15827999999999998  0.97242  0.15614  1.0000
  H   H12       1.0  0.13492999999999997  0.72143  0.88471  1.0000
  H   H13       1.0  0.28802  0.47953  0.75734  1.0000
  H   H14       1.0  0.26969  0.2981300000000001  0.6777  1.0000
  H   H15       1.0  0.31858  0.22977  0.7935  1.0000
  H   H16       1.0  0.18119999999999997  0.10088000000000005  0.13327  1.0000
  H   H17       1.0  0.184  0.18509000000000006  0.02966  1.0000
  H   H18       1.0  0.41316  0.16401  0.27903  1.0000
  H   H19       1.0  0.19399  0.72178  0.48082  1.0000
  H   H20       1.0  0.02831000000000001  0.62179  0.30029  1.0000
  H   H21       1.0  0.9103900000000001  0.43687  0.22896  1.0000
  H   H22       1.0  0.92064  0.96631  0.0992  1.0000
  H   H23       1.0  0.99829  0.15432000000000007  0.18252  1.0000
  H   H24       1.0  0.75574  0.8839600000000002  0.16398999999999997  1.0000
  H   H25       1.0  0.47033  0.75709  0.2763  1.0000
  H   H26       1.0  0.40223999999999993  0.6777  0.37633  1.0000
  H   H27       1.0  0.47045  0.79245  0.56166  1.0000
  H   H28       1.0  0.9516699999999999  0.13293  0.03206  1.0000
  H   H29       1.0  0.84173  0.02759000000000004  0.84386  1.0000
  H   H30       1.0  0.86507  0.27858  0.11529  1.0000
  H   H31       1.0  0.71198  0.52048  0.24266  1.0000
  H   H32       1.0  0.7303100000000001  0.7018700000000002  0.3223  1.0000
  H   H33       1.0  0.6814299999999999  0.7702300000000004  0.2065  1.0000
  H   H34       1.0  0.8188099999999999  0.89912  0.86673  1.0000
  H   H35       1.0  0.81601  0.8149100000000002  0.9703399999999999  1.0000
  H   H36       1.0  0.58685  0.836  0.72097  1.0000
  C   C1        1.0  0.8524  0.3592099999999999  0.55806  1.0000
  C   C2        1.0  0.00843000000000004  0.5159600000000002  0.69635  1.0000
  C   C3        1.0  0.9452100000000001  0.4140700000000001  0.65692  1.0000
  C   C4        1.0  0.08073999999999999  0.88814  0.79949  1.0000
  C   C5        1.0  0.21209  0.03604999999999997  0.80786  1.0000
  C   C6        1.0  0.12044999999999992  0.9908399999999999  0.8433899999999999  1.0000
  C   C7        1.0  0.8745299999999999  0.50566  0.54631  1.0000
  C   C8        1.0  0.23596  0.88219  0.70229  1.0000
  C   C9        1.0  0.4953200000000001  0.20033000000000006  0.64267  1.0000
  C   C10       1.0  0.49555  0.18079  0.48584  1.0000
  C   C11       1.0  0.53465  0.24370999999999998  0.58786  1.0000
  C   C12       1.0  0.19568999999999998  0.91224  0.11339  1.0000
  C   C13       1.0  0.18154000000000006  0.7732000000000001  0.96488  1.0000
  C   C14       1.0  0.13307  0.85314  0.01059  1.0000
  C   C15       1.0  0.37004999999999993  0.04178999999999999  0.49600999999999995  1.0000
  C   C16       1.0  0.35814  0.82159  0.11883  1.0000
  C   C17       1.0  0.29450000000000004  0.4413700000000001  0.80005  1.0000
  C   C18       1.0  0.31115000000000004  0.30416000000000015  0.82016  1.0000
  C   C19       1.0  0.28707  0.34224000000000016  0.75662  1.0000
  C   C20       1.0  0.28193  0.20230999999999996  0.08937  1.0000
  C   C21       1.0  0.40794  0.19240000000000004  0.22744  1.0000
  C   C22       1.0  0.27944  0.15797000000000003  0.14767  1.0000
  C   C23       1.0  0.32746  0.45527999999999996  0.9592999999999999  1.0000
  C   C24       1.0  0.5351  0.2982500000000001  0.17934  1.0000
  C   C25       1.0  0.14759999999999995  0.6407899999999999  0.44193999999999994  1.0000
  C   C26       1.0  0.9915699999999997  0.48404  0.30365  1.0000
  C   C27       1.0  0.054790000000000054  0.5859400000000002  0.34307999999999994  1.0000
  C   C28       1.0  0.9192700000000003  0.11186  0.20051  1.0000
  C   C29       1.0  0.7879200000000001  0.9639500000000002  0.19214  1.0000
  C   C30       1.0  0.87955  0.009159999999999988  0.15660999999999997  1.0000
  C   C31       1.0  0.12548000000000006  0.4943500000000001  0.45369  1.0000
  C   C32       1.0  0.76405  0.11782  0.29771  1.0000
  C   C33       1.0  0.5046900000000001  0.7996700000000002  0.3573299999999999  1.0000
  C   C34       1.0  0.50446  0.81922  0.51416  1.0000
  C   C35       1.0  0.46534999999999993  0.75629  0.41214  1.0000
  C   C36       1.0  0.8043099999999997  0.08776999999999997  0.88661  1.0000
  C   C37       1.0  0.81846  0.22680000000000006  0.03512  1.0000
  C   C38       1.0  0.86693  0.14686999999999995  0.9894099999999999  1.0000
  C   C39       1.0  0.62995  0.95822  0.50399  1.0000
  C   C40       1.0  0.64186  0.17842  0.88117  1.0000
  C   C41       1.0  0.7055100000000001  0.5586300000000002  0.19995  1.0000
  C   C42       1.0  0.68885  0.69584  0.17984  1.0000
  C   C43       1.0  0.71293  0.65777  0.24338  1.0000
  C   C44       1.0  0.71807  0.7977  0.9106299999999999  1.0000
  C   C45       1.0  0.59206  0.8076  0.77256  1.0000
  C   C46       1.0  0.72056  0.8420300000000002  0.85233  1.0000
  C   C47       1.0  0.67255  0.54473  0.0407  1.0000
  C   C48       1.0  0.46491  0.7017600000000003  0.82066  1.0000
  N   N1        1.0  0.9767299999999999  0.5609600000000001  0.6438999999999999  1.0000
  N   N2        1.0  0.8162299999999999  0.40195  0.50376  1.0000
  N   N3        1.0  0.13494  0.83383  0.73089  1.0000
  N   N4        1.0  0.2638400000000002  0.9839900000000004  0.73678  1.0000
  N   N5        1.0  0.4179  0.08336999999999999  0.44073  1.0000
  N   N6        1.0  0.41479999999999995  0.10345999999999994  0.59972  1.0000
  N   N7        1.0  0.30474999999999997  0.89841  0.16744  1.0000
  N   N8        1.0  0.2862600000000001  0.7548600000000002  0.01666  1.0000
  N   N9        1.0  0.33203  0.35770000000000013  0.91784  1.0000
  N   N10       1.0  0.31309  0.49676  0.89731  1.0000
  N   N11       1.0  0.40431  0.27061  0.10342999999999998  1.0000
  N   N12       1.0  0.53062  0.2628  0.24588  1.0000
  N   N13       1.0  0.023280000000000065  0.4390400000000002  0.3561  1.0000
  N   N14       1.0  0.18376999999999996  0.59805  0.49624  1.0000
  N   N15       1.0  0.86506  0.16617  0.26911  1.0000
  N   N16       1.0  0.73617  0.01602  0.26322  1.0000
  N   N17       1.0  0.58211  0.91664  0.55927  1.0000
  N   N18       1.0  0.5852  0.89654  0.40028  1.0000
  N   N19       1.0  0.69526  0.10160000000000008  0.83256  1.0000
  N   N20       1.0  0.71374  0.24515  0.98334  1.0000
  N   N21       1.0  0.66797  0.6423  0.08216  1.0000
  N   N22       1.0  0.68691  0.50325  0.10269  1.0000
  N   N23       1.0  0.59569  0.7293900000000002  0.89657  1.0000
  N   N24       1.0  0.4693899999999999  0.7372  0.75412  1.0000
  O   O1        1.0  0.84138  0.5481600000000002  0.49961  1.0000
  O   O2        1.0  0.29998  0.83639  0.64675  1.0000
  O   O3        1.0  0.29379999999999995  0.9526000000000001  0.45366999999999996  1.0000
  O   O4        1.0  0.46713  0.8115100000000002  0.16483  1.0000
  O   O5        1.0  0.3401600000000001  0.50315  0.04853  1.0000
  O   O6        1.0  0.65401  0.35382000000000013  0.18877  1.0000
  O   O7        1.0  0.15863  0.45184000000000013  0.50039  1.0000
  O   O8        1.0  0.70002  0.16362  0.35325  1.0000
  O   O9        1.0  0.7062  0.04741000000000001  0.54633  1.0000
  O   O10       1.0  0.53288  0.18848999999999994  0.83517  1.0000
  O   O11       1.0  0.6598500000000002  0.4968500000000001  0.95147  1.0000
  O   O12       1.0  0.3460000000000001  0.6461900000000003  0.81123  1.0000
