data_image0
_chemical_formula_structural       Ni2H36C48S4N16O12
_chemical_formula_sum              "Ni2 H36 C48 S4 N16 O12"
_cell_length_a       7.48683
_cell_length_b       15.100379999999998
_cell_length_c       17.91763
_cell_angle_alpha    89.98399
_cell_angle_beta     90.41368000000001
_cell_angle_gamma    89.99056

_space_group_name_H-M_alt    "P 1"
_space_group_IT_number       1

loop_
  _space_group_symop_operation_xyz
  'x, y, z'

loop_
  _atom_site_type_symbol
  _atom_site_label
  _atom_site_symmetry_multiplicity
  _atom_site_fract_x
  _atom_site_fract_y
  _atom_site_fract_z
  _atom_site_occupancy
  Ni  Ni1       1.0  0.99993  0.00012000000000000003  4e-05  1.0000
  Ni  Ni2       1.0  5.0000000000000605e-05  0.50008  0.49999  1.0000
  H   H1        1.0  0.10392  0.8797700000000003  0.28799  1.0000
  H   H2        1.0  0.49254  0.6680100000000001  0.30287  1.0000
  H   H3        1.0  0.65119  0.7323100000000002  0.1964  1.0000
  H   H4        1.0  0.3766199999999999  0.8522300000000003  0.01471  1.0000
  H   H5        1.0  0.62962  0.92718  0.94009  1.0000
  H   H6        1.0  0.82909  0.9241000000000003  0.15523  1.0000
  H   H7        1.0  0.25121999999999994  0.5814700000000003  0.35598999999999986  1.0000
  H   H8        1.0  0.9093799999999997  0.7011700000000002  0.49968999999999997  1.0000
  H   H9        1.0  0.014749999999999994  0.83242  0.4197099999999999  1.0000
  H   H10       1.0  0.8954399999999999  0.37958  0.21220999999999995  1.0000
  H   H11       1.0  0.50732  0.16776000000000005  0.19697  1.0000
  H   H12       1.0  0.3482  0.23177000000000006  0.3034799999999999  1.0000
  H   H13       1.0  0.62262  0.35178000000000004  0.48524  1.0000
  H   H14       1.0  0.37037  0.42730000000000007  0.55976  1.0000
  H   H15       1.0  0.1699  0.4237800000000001  0.34487  1.0000
  H   H16       1.0  0.7484199999999999  0.0814  0.14392999999999995  1.0000
  H   H17       1.0  0.09033  0.20125  0.00021999999999999998  1.0000
  H   H18       1.0  0.98502  0.33241  0.08049  1.0000
  H   H19       1.0  0.8960899999999998  0.12023000000000003  0.712  1.0000
  H   H20       1.0  0.50745  0.3319900000000001  0.69712  1.0000
  H   H21       1.0  0.34882  0.26769  0.80359  1.0000
  H   H22       1.0  0.62339  0.14776  0.98529  1.0000
  H   H23       1.0  0.3703499999999999  0.07282  0.0599  1.0000
  H   H24       1.0  0.17092  0.07592000000000003  0.8447599999999997  1.0000
  H   H25       1.0  0.7487499999999998  0.4185300000000001  0.64402  1.0000
  H   H26       1.0  0.0906  0.29886  0.5003  1.0000
  H   H27       1.0  0.98526  0.16761  0.58027  1.0000
  H   H28       1.0  0.10456  0.6204200000000002  0.7877899999999998  1.0000
  H   H29       1.0  0.4926699999999999  0.8322300000000002  0.80302  1.0000
  H   H30       1.0  0.6518  0.7682200000000001  0.6965099999999999  1.0000
  H   H31       1.0  0.3773299999999999  0.64821  0.51477  1.0000
  H   H32       1.0  0.6295999999999999  0.57273  0.44022  1.0000
  H   H33       1.0  0.83012  0.57625  0.6551  1.0000
  H   H34       1.0  0.2515899999999999  0.9186000000000002  0.8560499999999998  1.0000
  H   H35       1.0  0.90968  0.7987800000000003  0.99978  1.0000
  H   H36       1.0  0.014979999999999993  0.6676000000000002  0.9195099999999999  1.0000
  C   C1        1.0  0.4683499999999999  0.8402300000000001  0.17942999999999998  1.0000
  C   C2        1.0  0.31407999999999997  0.8814000000000002  0.20791  1.0000
  C   C3        1.0  0.22366999999999992  0.8461000000000002  0.2689799999999999  1.0000
  C   C4        1.0  0.2830199999999999  0.7678  0.30343  1.0000
  C   C5        1.0  0.4402399999999999  0.7280500000000002  0.27705  1.0000
  C   C6        1.0  0.53094  0.7643900000000002  0.21668  1.0000
  C   C7        1.0  0.56258  0.8728500000000001  0.11288999999999999  1.0000
  C   C8        1.0  0.5018  0.8739700000000002  0.03892999999999999  1.0000
  C   C9        1.0  0.73425  0.9108100000000002  0.11043  1.0000
  C   C10       1.0  0.18035999999999994  0.7264100000000002  0.36335999999999996  1.0000
  C   C11       1.0  0.17924999999999994  0.6352700000000002  0.3818699999999999  1.0000
  C   C12       1.0  0.058779999999999985  0.7646700000000002  0.4126199999999999  1.0000
  C   C13       1.0  0.53102  0.33986  0.3206099999999999  1.0000
  C   C14       1.0  0.68543  0.3811000000000001  0.29216  1.0000
  C   C15       1.0  0.77581  0.34579  0.23112999999999997  1.0000
  C   C16       1.0  0.71658  0.2675500000000001  0.19663  1.0000
  C   C17       1.0  0.5593899999999998  0.22774000000000003  0.22293  1.0000
  C   C18       1.0  0.46855  0.26398  0.28332  1.0000
  C   C19       1.0  0.43652  0.3724900000000001  0.3871199999999999  1.0000
  C   C20       1.0  0.4975099999999999  0.3737300000000001  0.46105  1.0000
  C   C21       1.0  0.26494  0.4106300000000001  0.38961  1.0000
  C   C22       1.0  0.81936  0.22632000000000005  0.13667  1.0000
  C   C23       1.0  0.82042  0.13524000000000003  0.11805  1.0000
  C   C24       1.0  0.94094  0.26466  0.08745  1.0000
  C   C25       1.0  0.53166  0.15977000000000005  0.82056  1.0000
  C   C26       1.0  0.6859099999999998  0.11860000000000002  0.79207  1.0000
  C   C27       1.0  0.77633  0.1539  0.731  1.0000
  C   C28       1.0  0.7169899999999998  0.23221000000000006  0.6965599999999997  1.0000
  C   C29       1.0  0.5597599999999998  0.27195000000000014  0.72294  1.0000
  C   C30       1.0  0.4690699999999999  0.23561000000000007  0.7833199999999998  1.0000
  C   C31       1.0  0.43743  0.12714000000000006  0.8870999999999998  1.0000
  C   C32       1.0  0.4982  0.12602000000000005  0.96106  1.0000
  C   C33       1.0  0.26575  0.08921000000000003  0.88956  1.0000
  C   C34       1.0  0.8196399999999998  0.27361  0.63663  1.0000
  C   C35       1.0  0.8207399999999998  0.36475000000000013  0.61813  1.0000
  C   C36       1.0  0.94122  0.23536000000000007  0.58737  1.0000
  C   C37       1.0  0.4689699999999999  0.6601400000000002  0.67939  1.0000
  C   C38       1.0  0.31456  0.6189  0.70784  1.0000
  C   C39       1.0  0.22419  0.65421  0.7688699999999998  1.0000
  C   C40       1.0  0.28342  0.7324400000000002  0.8033699999999998  1.0000
  C   C41       1.0  0.4406199999999999  0.77225  0.77707  1.0000
  C   C42       1.0  0.53145  0.73601  0.71668  1.0000
  C   C43       1.0  0.56346  0.6275100000000002  0.6128799999999999  1.0000
  C   C44       1.0  0.50246  0.62629  0.53895  1.0000
  C   C45       1.0  0.73507  0.5894000000000003  0.61037  1.0000
  C   C46       1.0  0.18065  0.7736900000000002  0.86333  1.0000
  C   C47       1.0  0.17957  0.8647700000000003  0.8819399999999997  1.0000
  C   C48       1.0  0.05905999999999999  0.73535  0.91255  1.0000
  S   S1        1.0  0.21562  0.97636  0.16396  1.0000
  S   S2        1.0  0.78422  0.4761700000000001  0.33596  1.0000
  S   S3        1.0  0.78438  0.023650000000000008  0.8360299999999998  1.0000
  S   S4        1.0  0.21576999999999993  0.5238400000000002  0.66404  1.0000
  N   N1        1.0  0.6313499999999997  0.9111000000000002  0.9970799999999999  1.0000
  N   N2        1.0  0.7741  0.9347600000000003  0.03998  1.0000
  N   N3        1.0  0.0672  0.61894  0.43808999999999987  1.0000
  N   N4        1.0  0.9953399999999998  0.69835  0.4561199999999999  1.0000
  N   N5        1.0  0.36825999999999987  0.41109  0.50288  1.0000
  N   N6        1.0  0.22546999999999995  0.4347800000000001  0.46004  1.0000
  N   N7        1.0  0.9325  0.11895000000000003  0.061829999999999996  1.0000
  N   N8        1.0  0.004449999999999998  0.19841  0.04386  1.0000
  N   N9        1.0  0.3686299999999999  0.08893  0.00292  1.0000
  N   N10       1.0  0.22586  0.06529000000000001  0.9600199999999999  1.0000
  N   N11       1.0  0.9327799999999999  0.38109  0.5619099999999999  1.0000
  N   N12       1.0  0.00465  0.3016800000000001  0.54388  1.0000
  N   N13       1.0  0.6317199999999997  0.58896  0.49709999999999993  1.0000
  N   N14       1.0  0.77454  0.5652800000000001  0.53993  1.0000
  N   N15       1.0  0.06747999999999998  0.8810800000000002  0.9381499999999999  1.0000
  N   N16       1.0  0.9955399999999999  0.80162  0.9561299999999999  1.0000
  O   O1        1.0  0.15204  0.9374100000000002  0.0909  1.0000
  O   O2        1.0  0.07005999999999998  0.00528  0.21236  1.0000
  O   O3        1.0  0.3580399999999999  0.04369  0.15171999999999997  1.0000
  O   O4        1.0  0.8476599999999997  0.43739  0.4091199999999999  1.0000
  O   O5        1.0  0.9296799999999997  0.50521  0.2875599999999999  1.0000
  O   O6        1.0  0.6413  0.5432000000000002  0.34829  1.0000
  O   O7        1.0  0.84794  0.06262000000000001  0.9090799999999999  1.0000
  O   O8        1.0  0.92994  0.9947200000000003  0.78763  1.0000
  O   O9        1.0  0.6419699999999998  0.9563100000000002  0.84827  1.0000
  O   O10       1.0  0.15235  0.56262  0.5908799999999998  1.0000
  O   O11       1.0  0.07031  0.49480000000000013  0.7124299999999999  1.0000
  O   O12       1.0  0.35871  0.4568300000000001  0.6517  1.0000
