data_image0
_chemical_formula_structural       Mg2H36C68O16
_chemical_formula_sum              "Mg2 H36 C68 O16"
_cell_length_a       10.97191
_cell_length_b       15.62691
_cell_length_c       17.17506
_cell_angle_alpha    113.07042000000001
_cell_angle_beta     103.11054
_cell_angle_gamma    101.93173

_symmetry_space_group_name_H-M    'P 1'
_symmetry_Int_Tables_number       1

loop_
  _symmetry_equiv_pos_as_xyz
  'x,y,z'

loop_
  _atom_site_type_symbol
  _atom_site_label
  _atom_site_symmetry_multiplicity
  _atom_site_fract_x
  _atom_site_fract_y
  _atom_site_fract_z
  _atom_site_occupancy
  Mg  Mg1       1.0  0.5  0.0  0.5  1.0000
  Mg  Mg2       1.0  0.5  0.4999999999999999  0.5  1.0000
  H   H1        1.0  0.4915100000000001  0.08050000000000009  0.9718400000000001  1.0000
  H   H2        1.0  0.38877  0.09652999999999992  0.83587  1.0000
  H   H3        1.0  0.7049399999999999  0.035690000000000006  0.73898  1.0000
  H   H4        1.0  0.81046  0.02098999999999996  0.87522  1.0000
  H   H5        1.0  0.66971  0.16129999999999994  0.09947  1.0000
  H   H6        1.0  0.5833200000000001  0.11692  0.22943  1.0000
  H   H7        1.0  0.55862  0.247  0.36173  1.0000
  H   H8        1.0  0.9691899999999999  0.41719  0.44529  1.0000
  H   H9        1.0  0.9969500000000002  0.2863700000000001  0.3188200000000001  1.0000
  H   H10       1.0  0.98125  0.8921599999999997  0.9727  1.0000
  H   H11       1.0  0.9476299999999999  0.7383099999999998  0.83782  1.0000
  H   H12       1.0  0.5343599999999998  0.7019199999999998  0.73911  1.0000
  H   H13       1.0  0.56562  0.8549599999999998  0.87415  1.0000
  H   H14       1.0  0.9300500000000002  0.9389799999999998  0.09901  1.0000
  H   H15       1.0  0.14677  0.11386999999999997  0.23054  1.0000
  H   H16       1.0  0.30362  0.11678999999999995  0.36318  1.0000
  H   H17       1.0  0.97501  0.028770000000000014  0.44427  1.0000
  H   H18       1.0  0.8211000000000002  0.032429999999999994  0.31722  1.0000
  H   H19       1.0  0.5085  0.9195  0.02816  1.0000
  H   H20       1.0  0.6112299999999999  0.9034699999999998  0.16413  1.0000
  H   H21       1.0  0.29505999999999993  0.9643099999999998  0.26103  1.0000
  H   H22       1.0  0.18953999999999996  0.97901  0.12479  1.0000
  H   H23       1.0  0.33029  0.8386999999999999  0.90053  1.0000
  H   H24       1.0  0.41668  0.88308  0.77057  1.0000
  H   H25       1.0  0.44138  0.7529999999999998  0.63827  1.0000
  H   H26       1.0  0.03081999999999993  0.5828099999999998  0.55471  1.0000
  H   H27       1.0  0.0030499999999999802  0.7136299999999999  0.68119  1.0000
  H   H28       1.0  0.01875  0.10784  0.02731  1.0000
  H   H29       1.0  0.05238  0.26169  0.16218  1.0000
  H   H30       1.0  0.46565  0.29808  0.2609  1.0000
  H   H31       1.0  0.43438  0.14503999999999995  0.12585  1.0000
  H   H32       1.0  0.06995000000000008  0.061020000000000005  0.901  1.0000
  H   H33       1.0  0.8532300000000002  0.88613  0.76946  1.0000
  H   H34       1.0  0.69638  0.8832099999999998  0.63682  1.0000
  H   H35       1.0  0.025000000000000012  0.97123  0.55573  1.0000
  H   H36       1.0  0.1789099999999999  0.9675699999999997  0.68278  1.0000
  C   C1        1.0  0.65785  0.04804999999999996  0.93327  1.0000
  C   C2        1.0  0.5397000000000001  0.07173000000000013  0.9217700000000002  1.0000
  C   C3        1.0  0.48100999999999994  0.07995999999999999  0.84539  1.0000
  C   C4        1.0  0.53908  0.06454999999999994  0.7781200000000001  1.0000
  C   C5        1.0  0.65929  0.04487999999999996  0.79042  1.0000
  C   C6        1.0  0.7173000000000003  0.03614000000000005  0.8664300000000001  1.0000
  C   C7        1.0  0.72257  0.04184  0.01506  1.0000
  C   C8        1.0  0.72318  0.10965999999999997  0.09827  1.0000
  C   C9        1.0  0.79875  0.11992  0.18097  1.0000
  C   C10       1.0  0.7908899999999999  0.19330999999999995  0.26433  1.0000
  C   C11       1.0  0.66722  0.18271000000000004  0.2769300000000001  1.0000
  C   C12       1.0  0.65312  0.25471  0.35052  1.0000
  C   C13       1.0  0.76088  0.34067999999999987  0.41019  1.0000
  C   C14       1.0  0.8852399999999999  0.3504599999999999  0.39961  1.0000
  C   C15       1.0  0.90096  0.2765999999999999  0.32795  1.0000
  C   C16       1.0  0.47670999999999997  0.07132999999999999  0.69431  1.0000
  C   C17       1.0  0.7392599999999999  0.42406  0.48077  1.0000
  C   C18       1.0  0.7763700000000001  0.8859999999999998  0.93315  1.0000
  C   C19       1.0  0.88288  0.85041  0.92235  1.0000
  C   C20       1.0  0.8649  0.7647  0.84658  1.0000
  C   C21       1.0  0.7392099999999999  0.7120799999999998  0.7792  1.0000
  C   C22       1.0  0.63161  0.7447799999999998  0.79069  1.0000
  C   C23       1.0  0.6499099999999998  0.8306599999999997  0.86604  1.0000
  C   C24       1.0  0.79351  0.9744  0.01495  1.0000
  C   C25       1.0  0.87573  0.9896499999999998  0.09812  1.0000
  C   C26       1.0  0.88269  0.061980000000000014  0.18093000000000006  1.0000
  C   C27       1.0  0.9735400000000001  0.07175  0.26426  1.0000
  C   C28       1.0  0.11017  0.09539  0.27763  1.0000
  C   C29       1.0  0.19768  0.09736999999999997  0.35144  1.0000
  C   C30       1.0  0.14911000000000005  0.07102000000000004  0.4106300000000001  1.0000
  C   C31       1.0  0.013649999999999994  0.04996999999999995  0.39909  1.0000
  C   C32       1.0  0.92654  0.05174  0.32718  1.0000
  C   C33       1.0  0.7170099999999999  0.6201499999999998  0.69605  1.0000
  C   C34       1.0  0.24173000000000003  0.060130000000000024  0.4824800000000001  1.0000
  C   C35       1.0  0.3421499999999999  0.9519499999999997  0.06674  1.0000
  C   C36       1.0  0.4603099999999999  0.9282699999999998  0.07824  1.0000
  C   C37       1.0  0.5189899999999998  0.9200399999999997  0.15462  1.0000
  C   C38       1.0  0.4609200000000001  0.9354500000000001  0.22189000000000003  1.0000
  C   C39       1.0  0.34072  0.9551199999999997  0.20958  1.0000
  C   C40       1.0  0.28269999999999995  0.9638599999999998  0.13357  1.0000
  C   C41       1.0  0.27743999999999996  0.9581599999999998  0.98495  1.0000
  C   C42       1.0  0.2768299999999999  0.8903399999999998  0.90173  1.0000
  C   C43       1.0  0.2012500000000001  0.88008  0.8190300000000003  1.0000
  C   C44       1.0  0.20910999999999988  0.8066899999999998  0.73567  1.0000
  C   C45       1.0  0.3327799999999999  0.8172899999999997  0.72307  1.0000
  C   C46       1.0  0.34688  0.74529  0.64948  1.0000
  C   C47       1.0  0.23911999999999994  0.6593199999999998  0.58981  1.0000
  C   C48       1.0  0.11476999999999996  0.6495399999999998  0.6003900000000001  1.0000
  C   C49       1.0  0.09904000000000007  0.7234  0.67206  1.0000
  C   C50       1.0  0.52329  0.9286699999999998  0.30569  1.0000
  C   C51       1.0  0.2607499999999999  0.5759399999999998  0.51923  1.0000
  C   C52       1.0  0.22363999999999995  0.11399999999999999  0.06685  1.0000
  C   C53       1.0  0.11713000000000001  0.14959  0.07765  1.0000
  C   C54       1.0  0.13511000000000004  0.23529999999999998  0.15343000000000004  1.0000
  C   C55       1.0  0.2608  0.28792  0.22081  1.0000
  C   C56       1.0  0.36839  0.25522  0.20932  1.0000
  C   C57       1.0  0.35009  0.16933999999999994  0.13396  1.0000
  C   C58       1.0  0.20648999999999995  0.0255999999999999  0.98505  1.0000
  C   C59       1.0  0.12427999999999999  0.01035000000000001  0.90189  1.0000
  C   C60       1.0  0.11730999999999996  0.9380199999999997  0.81907  1.0000
  C   C61       1.0  0.02646000000000005  0.92825  0.73575  1.0000
  C   C62       1.0  0.8898399999999999  0.90461  0.72237  1.0000
  C   C63       1.0  0.80232  0.9026299999999998  0.64856  1.0000
  C   C64       1.0  0.8508999999999999  0.9289799999999997  0.58937  1.0000
  C   C65       1.0  0.9863599999999997  0.9500299999999999  0.60091  1.0000
  C   C66       1.0  0.07345999999999994  0.94826  0.67283  1.0000
  C   C67       1.0  0.28298999999999996  0.3798499999999999  0.30395  1.0000
  C   C68       1.0  0.7582800000000001  0.9398699999999998  0.51753  1.0000
  O   O1        1.0  0.5031900000000001  0.022050000000000035  0.62409  1.0000
  O   O2        1.0  0.40642000000000006  0.1256800000000001  0.6993600000000002  1.0000
  O   O3        1.0  0.61761  0.4194999999999999  0.47157  1.0000
  O   O4        1.0  0.83674  0.4940699999999999  0.54328  1.0000
  O   O5        1.0  0.6187199999999999  0.5974599999999999  0.62583  1.0000
  O   O6        1.0  0.79272  0.5711499999999998  0.70087  1.0000
  O   O7        1.0  0.35177  0.05088000000000006  0.4719800000000001  1.0000
  O   O8        1.0  0.20797000000000007  0.05955000000000006  0.5473500000000002  1.0000
  O   O9        1.0  0.49681999999999993  0.97795  0.37592  1.0000
  O   O10       1.0  0.59358  0.87432  0.30064  1.0000
  O   O11       1.0  0.38238999999999995  0.5805  0.52843  1.0000
  O   O12       1.0  0.16325999999999996  0.5059299999999998  0.45672  1.0000
  O   O13       1.0  0.38129  0.4025399999999999  0.37417  1.0000
  O   O14       1.0  0.20728999999999997  0.42885  0.29913  1.0000
  O   O15       1.0  0.6482399999999998  0.9491199999999995  0.52802  1.0000
  O   O16       1.0  0.7920299999999999  0.9404499999999998  0.45265  1.0000
