data_image0
_chemical_formula_structural       Cd6H60C48N24
_chemical_formula_sum              "Cd6 H60 C48 N24"
_cell_length_a       15.81423
_cell_length_b       15.82037
_cell_length_c       15.818869999999999
_cell_angle_alpha    109.47098999999999
_cell_angle_beta     109.47146000000001
_cell_angle_gamma    109.47149

_symmetry_space_group_name_H-M    'P 1'
_symmetry_Int_Tables_number       1

loop_
  _symmetry_equiv_pos_as_xyz
  'x,y,z'

loop_
  _atom_site_type_symbol
  _atom_site_label
  _atom_site_symmetry_multiplicity
  _atom_site_fract_x
  _atom_site_fract_y
  _atom_site_fract_z
  _atom_site_occupancy
  Cd  Cd1       1.0  0.7499900000000003  0.24998999999999993  0.49986999999999987  1.0000
  Cd  Cd2       1.0  0.25041  0.75031  0.50028  1.0000
  Cd  Cd3       1.0  0.50013  0.24994000000000005  0.74992  1.0000
  Cd  Cd4       1.0  0.5003  0.75019  0.24997  1.0000
  Cd  Cd5       1.0  0.75011  0.49986000000000014  0.25013  1.0000
  Cd  Cd6       1.0  0.2501399999999999  0.49983999999999995  0.7501199999999999  1.0000
  H   H1        1.0  0.6461200000000002  0.13286  0.24007999999999993  1.0000
  H   H2        1.0  0.35366000000000003  0.59366  0.48658  1.0000
  H   H3        1.0  0.8926899999999999  0.4059499999999999  0.7599099999999999  1.0000
  H   H4        1.0  0.10718  0.86715  0.51348  1.0000
  H   H5        1.0  0.48668999999999996  0.35378999999999994  0.5939199999999999  1.0000
  H   H6        1.0  0.24002  0.64607  0.13279  1.0000
  H   H7        1.0  0.51329  0.10728000000000003  0.86719  1.0000
  H   H8        1.0  0.7600400000000002  0.89292  0.4062699999999999  1.0000
  H   H9        1.0  0.8671799999999998  0.51353  0.10714  1.0000
  H   H10       1.0  0.40599999999999997  0.7597799999999999  0.8926999999999999  1.0000
  H   H11       1.0  0.5937899999999999  0.48663999999999996  0.3537599999999999  1.0000
  H   H12       1.0  0.13289  0.24004  0.64623  1.0000
  H   H13       1.0  0.35379  0.48660999999999993  0.59382  1.0000
  H   H14       1.0  0.64624  0.24007  0.13290999999999997  1.0000
  H   H15       1.0  0.1071  0.51349  0.86709  1.0000
  H   H16       1.0  0.89272  0.75977  0.406  1.0000
  H   H17       1.0  0.51345  0.8671400000000002  0.10711  1.0000
  H   H18       1.0  0.7600400000000003  0.40634  0.89286  1.0000
  H   H19       1.0  0.48689  0.59417  0.35403  1.0000
  H   H20       1.0  0.2401  0.13285000000000005  0.64612  1.0000
  H   H21       1.0  0.13290999999999997  0.64614  0.24018  1.0000
  H   H22       1.0  0.59385  0.35384  0.48664  1.0000
  H   H23       1.0  0.40628999999999993  0.89293  0.75996  1.0000
  H   H24       1.0  0.86728  0.10728999999999998  0.51332  1.0000
  H   H25       1.0  0.8576799999999999  0.54431  0.47558  1.0000
  H   H26       1.0  0.8570500000000001  0.47529  0.54445  1.0000
  H   H27       1.0  0.7535200000000002  0.49894  0.49847  1.0000
  H   H28       1.0  0.24464  0.75263  0.73452  1.0000
  H   H29       1.0  0.15688999999999992  0.6271999999999999  0.7029499999999997  1.0000
  H   H30       1.0  0.13001  0.67081  0.61214  1.0000
  H   H31       1.0  0.00941999999999998  0.25998  0.50593  1.0000
  H   H32       1.0  0.06410999999999999  0.38544  0.52132  1.0000
  H   H33       1.0  0.92708  0.30471  0.45457  1.0000
  H   H34       1.0  0.9595000000000002  0.46663000000000004  0.34967  1.0000
  H   H35       1.0  0.07912000000000002  0.53362  0.35669999999999996  1.0000
  H   H36       1.0  0.9598800000000002  0.48018999999999995  0.24321999999999996  1.0000
  H   H37       1.0  0.7324400000000001  0.24397000000000002  0.75352  1.0000
  H   H38       1.0  0.7055899999999999  0.15938999999999995  0.6290099999999997  1.0000
  H   H39       1.0  0.6114899999999999  0.1281099999999999  0.6680899999999999  1.0000
  H   H40       1.0  0.48913  0.87918  0.53621  1.0000
  H   H41       1.0  0.54612  0.82994  0.46739  1.0000
  H   H42       1.0  0.48294  0.75986  0.51601  1.0000
  H   H43       1.0  0.31864  0.93429  0.45664  1.0000
  H   H44       1.0  0.37906  0.07175  0.52654  1.0000
  H   H45       1.0  0.2517800000000001  0.99357  0.49803  1.0000
  H   H46       1.0  0.5265700000000002  0.07172999999999997  0.37907999999999986  1.0000
  H   H47       1.0  0.45668000000000003  0.9342899999999998  0.31868999999999986  1.0000
  H   H48       1.0  0.49803  0.99358  0.2518  1.0000
  H   H49       1.0  0.5213  0.3854200000000001  0.06408  1.0000
  H   H50       1.0  0.50591  0.25997  0.0094  1.0000
  H   H51       1.0  0.45453999999999994  0.3047  0.9270799999999999  1.0000
  H   H52       1.0  0.3567  0.53363  0.07907  1.0000
  H   H53       1.0  0.3496900000000001  0.46663000000000004  0.95951  1.0000
  H   H54       1.0  0.24318999999999993  0.48017  0.95987  1.0000
  H   H55       1.0  0.70298  0.62721  0.15688999999999997  1.0000
  H   H56       1.0  0.73454  0.75263  0.24462  1.0000
  H   H57       1.0  0.61215  0.6708  0.13001  1.0000
  H   H58       1.0  0.5445200000000004  0.47533  0.85706  1.0000
  H   H59       1.0  0.47557  0.54429  0.85766  1.0000
  H   H60       1.0  0.49851999999999985  0.4989699999999999  0.7535499999999998  1.0000
  C   C1        1.0  0.67596  0.21489  0.26814  1.0000
  C   C2        1.0  0.32402  0.5921200000000002  0.53897  1.0000
  C   C3        1.0  0.9466900000000003  0.40778  0.73185  1.0000
  C   C4        1.0  0.053290000000000004  0.78509  0.46135999999999994  1.0000
  C   C5        1.0  0.53889  0.32395  0.59208  1.0000
  C   C6        1.0  0.2681600000000001  0.67613  0.21487  1.0000
  C   C7        1.0  0.4610900000000001  0.05332000000000002  0.78514  1.0000
  C   C8        1.0  0.7319800000000002  0.9468900000000002  0.4079  1.0000
  C   C9        1.0  0.78513  0.46107  0.05322  1.0000
  C   C10       1.0  0.4080499999999999  0.73178  0.9467499999999999  1.0000
  C   C11       1.0  0.59209  0.53886  0.32395  1.0000
  C   C12       1.0  0.21493999999999994  0.26810999999999996  0.6759499999999999  1.0000
  C   C13       1.0  0.32399  0.53885  0.59215  1.0000
  C   C14       1.0  0.67595  0.26813  0.21492999999999998  1.0000
  C   C15       1.0  0.053170000000000064  0.46105000000000007  0.78507  1.0000
  C   C16       1.0  0.94681  0.73179  0.40806  1.0000
  C   C17       1.0  0.46134  0.78508  0.05318999999999999  1.0000
  C   C18       1.0  0.7319199999999999  0.4078799999999999  0.9467799999999997  1.0000
  C   C19       1.0  0.53898  0.59222  0.32405  1.0000
  C   C20       1.0  0.2681799999999999  0.21488999999999991  0.6759699999999998  1.0000
  C   C21       1.0  0.21499  0.6761599999999999  0.26817  1.0000
  C   C22       1.0  0.5921  0.32397  0.53882  1.0000
  C   C23       1.0  0.40789000000000003  0.9468900000000001  0.7318999999999998  1.0000
  C   C24       1.0  0.7852100000000002  0.053319999999999985  0.46112  1.0000
  C   C25       1.0  0.80819  0.47977999999999993  0.47978999999999994  1.0000
  C   C26       1.0  0.75357  0.38033  0.38034  1.0000
  C   C27       1.0  0.19183  0.67171  0.67152  1.0000
  C   C28       1.0  0.24670000000000006  0.62696  0.62703  1.0000
  C   C29       1.0  0.0001400000000000255  0.32848  0.52029  1.0000
  C   C30       1.0  9.999999999964713e-06  0.37315999999999994  0.6196899999999999  1.0000
  C   C31       1.0  0.9997500000000001  0.52008  0.32829  1.0000
  C   C32       1.0  0.00021000000000000313  0.61986  0.37257  1.0000
  C   C33       1.0  0.67153  0.19181999999999994  0.67169  1.0000
  C   C34       1.0  0.62708  0.24671  0.62694  1.0000
  C   C35       1.0  0.47972000000000004  0.8082100000000001  0.47995999999999994  1.0000
  C   C36       1.0  0.3804  0.75296  0.38021  1.0000
  C   C37       1.0  0.32836000000000004  0.9999499999999999  0.52017  1.0000
  C   C38       1.0  0.37323999999999996  6.999999999994662e-05  0.6196899999999999  1.0000
  C   C39       1.0  0.52018  0.9999400000000002  0.32836  1.0000
  C   C40       1.0  0.61972  5.9999999999954255e-05  0.37319999999999987  1.0000
  C   C41       1.0  0.52026  0.32846  0.00011  1.0000
  C   C42       1.0  0.61969  0.37314  0.99999  1.0000
  C   C43       1.0  0.32827999999999996  0.5200599999999999  0.9997099999999999  1.0000
  C   C44       1.0  0.37254  0.61982  0.00012  1.0000
  C   C45       1.0  0.67154  0.6717  0.19182  1.0000
  C   C46       1.0  0.62703  0.62694  0.24665  1.0000
  C   C47       1.0  0.47982999999999987  0.4797899999999999  0.8081899999999997  1.0000
  C   C48       1.0  0.38039999999999996  0.38030999999999987  0.7535699999999997  1.0000
  N   N1        1.0  0.72505  0.28602  0.37252  1.0000
  N   N2        1.0  0.27521000000000007  0.6476700000000002  0.56124  1.0000
  N   N3        1.0  0.91348  0.3524200000000001  0.62748  1.0000
  N   N4        1.0  0.08667000000000008  0.7141200000000002  0.43866  1.0000
  N   N5        1.0  0.5612100000000001  0.27513000000000004  0.6475999999999998  1.0000
  N   N6        1.0  0.37257  0.72467  0.28593  1.0000
  N   N7        1.0  0.43900999999999996  0.08655999999999998  0.7139999999999999  1.0000
  N   N8        1.0  0.62758  0.91361  0.35249  1.0000
  N   N9        1.0  0.7140100000000003  0.43893  0.08649  1.0000
  N   N10       1.0  0.35206999999999994  0.62752  0.9135699999999998  1.0000
  N   N11       1.0  0.6476  0.56104  0.27504  1.0000
  N   N12       1.0  0.28607  0.37246  0.72497  1.0000
  N   N13       1.0  0.27511  0.56109  0.64766  1.0000
  N   N14       1.0  0.7249700000000002  0.37248  0.28605  1.0000
  N   N15       1.0  0.08649999999999992  0.43895999999999996  0.7139999999999999  1.0000
  N   N16       1.0  0.9136200000000002  0.62754  0.35208  1.0000
  N   N17       1.0  0.43863  0.71409  0.08652999999999997  1.0000
  N   N18       1.0  0.62752  0.35247  0.91351  1.0000
  N   N19       1.0  0.56129  0.6477300000000001  0.27523  1.0000
  N   N20       1.0  0.3726099999999999  0.2860199999999999  0.7250599999999998  1.0000
  N   N21       1.0  0.2861100000000001  0.72467  0.3724799999999999  1.0000
  N   N22       1.0  0.64768  0.27516  0.56109  1.0000
  N   N23       1.0  0.35255000000000003  0.91362  0.62754  1.0000
  N   N24       1.0  0.7140400000000001  0.08653999999999998  0.43898  1.0000
