data_image0
_chemical_formula_structural       Er6H36C72O36
_chemical_formula_sum              "Er6 H36 C72 O36"
_cell_length_a       10.71377
_cell_length_b       11.20683
_cell_length_c       26.06283
_cell_angle_alpha    84.36528000000001
_cell_angle_beta     87.82008
_cell_angle_gamma    63.899710000000006

_space_group_name_H-M_alt    "P 1"
_space_group_IT_number       1

loop_
  _space_group_symop_operation_xyz
  'x, y, z'

loop_
  _atom_site_type_symbol
  _atom_site_label
  _atom_site_symmetry_multiplicity
  _atom_site_fract_x
  _atom_site_fract_y
  _atom_site_fract_z
  _atom_site_occupancy
  Er  Er1       1.0  0.39969000000000027  0.63327  0.9039  1.0000
  Er  Er2       1.0  0.3467299999999999  0.83041  0.74548  1.0000
  Er  Er3       1.0  0.40021  0.024139999999999995  0.5611  1.0000
  Er  Er4       1.0  0.6003000000000001  0.37277999999999994  0.09737  1.0000
  Er  Er5       1.0  0.65637  0.16669  0.2546  1.0000
  Er  Er6       1.0  0.5996600000000002  0.9759599999999999  0.4365  1.0000
  H   H1        1.0  0.5422000000000002  0.3831199999999999  0.41988  1.0000
  H   H2        1.0  0.4418  0.39962  0.58082  1.0000
  H   H3        1.0  0.43506000000000006  0.09884  0.78303  1.0000
  H   H4        1.0  0.46984999999999993  0.27207  0.82636  1.0000
  H   H5        1.0  0.32898  0.3525499999999999  0.64172  1.0000
  H   H6        1.0  0.37067000000000005  0.52417  0.68416  1.0000
  H   H7        1.0  0.045699999999999984  0.02507  0.54759  1.0000
  H   H8        1.0  0.82329  0.027839999999999997  0.52183  1.0000
  H   H9        1.0  0.08401000000000013  0.745  0.67681  1.0000
  H   H10       1.0  0.8543100000000002  0.7519899999999998  0.65379  1.0000
  H   H11       1.0  0.80611  0.65864  0.90558  1.0000
  H   H12       1.0  0.022890000000000105  0.6891599999999999  0.89986  1.0000
  H   H13       1.0  0.7046800000000001  0.82901  0.7491700000000002  1.0000
  H   H14       1.0  0.9245700000000002  0.8539799999999995  0.7423500000000002  1.0000
  H   H15       1.0  0.5980799999999998  0.76554  0.03843  1.0000
  H   H16       1.0  0.34584000000000004  0.07116999999999994  0.9233300000000001  1.0000
  H   H17       1.0  0.06315999999999998  0.66763  0.03304  1.0000
  H   H18       1.0  0.14442000000000002  0.36281999999999986  0.9313500000000002  1.0000
  H   H19       1.0  0.45883  0.61717  0.5792  1.0000
  H   H20       1.0  0.5590600000000001  0.6006599999999999  0.41843  1.0000
  H   H21       1.0  0.5646000000000003  0.8995999999999998  0.21648  1.0000
  H   H22       1.0  0.5298400000000002  0.72435  0.17391000000000004  1.0000
  H   H23       1.0  0.6712800000000002  0.6476  0.35845  1.0000
  H   H24       1.0  0.62962  0.47476999999999997  0.31655  1.0000
  H   H25       1.0  0.95448  0.9756999999999999  0.45289  1.0000
  H   H26       1.0  0.17794  0.97254  0.47778  1.0000
  H   H27       1.0  0.9156600000000003  0.25676999999999994  0.32311000000000006  1.0000
  H   H28       1.0  0.14620999999999995  0.24795999999999993  0.3458100000000001  1.0000
  H   H29       1.0  0.19678000000000004  0.3404  0.09489  1.0000
  H   H30       1.0  0.9792  0.31101999999999996  0.10016  1.0000
  H   H31       1.0  0.29645  0.17034  0.25126  1.0000
  H   H32       1.0  0.07589000000000003  0.14594999999999994  0.25782000000000005  1.0000
  H   H33       1.0  0.40410000000000007  0.23798999999999998  0.96272  1.0000
  H   H34       1.0  0.65536  0.93326  0.0775  1.0000
  H   H35       1.0  0.9363399999999998  0.33335999999999993  0.9673200000000001  1.0000
  H   H36       1.0  0.85487  0.6375  0.06877  1.0000
  C   C1        1.0  0.48177000000000003  0.25043  0.49972  1.0000
  C   C2        1.0  0.49011000000000005  0.37970999999999994  0.50021  1.0000
  C   C3        1.0  0.52463  0.43516  0.45443  1.0000
  C   C4        1.0  0.4665100000000002  0.44469999999999993  0.54548  1.0000
  C   C5        1.0  0.36116000000000004  0.11300999999999997  0.68353  1.0000
  C   C6        1.0  0.3801500000000002  0.21576999999999996  0.7099800000000002  1.0000
  C   C7        1.0  0.41985  0.19290999999999997  0.7620200000000001  1.0000
  C   C8        1.0  0.44082  0.28876  0.7858400000000001  1.0000
  C   C9        1.0  0.36167  0.33578  0.68182  1.0000
  C   C10       1.0  0.3842800000000001  0.4307299999999999  0.7053300000000001  1.0000
  C   C11       1.0  0.42411999999999994  0.40814  0.75753  1.0000
  C   C12       1.0  0.44120999999999994  0.5146999999999999  0.7830100000000001  1.0000
  C   C13       1.0  0.2088300000000001  0.8887399999999999  0.62703  1.0000
  C   C14       1.0  0.07789000000000003  0.8829799999999999  0.6129  1.0000
  C   C15       1.0  0.004710000000000179  0.9628199999999998  0.56929  1.0000
  C   C16       1.0  0.88074  0.96439  0.55523  1.0000
  C   C17       1.0  0.025000000000000126  0.8048599999999998  0.6428900000000001  1.0000
  C   C18       1.0  0.8978300000000001  0.8092499999999999  0.62982  1.0000
  C   C19       1.0  0.8259300000000002  0.8888999999999998  0.58568  1.0000
  C   C20       1.0  0.6853900000000002  0.9078499999999999  0.57213  1.0000
  C   C21       1.0  0.6065000000000002  0.7314599999999998  0.8321400000000001  1.0000
  C   C22       1.0  0.7409700000000001  0.74336  0.82768  1.0000
  C   C23       1.0  0.83239  0.7018900000000001  0.87004  1.0000
  C   C24       1.0  0.9539900000000003  0.7187699999999997  0.8667700000000002  1.0000
  C   C25       1.0  0.7759600000000002  0.7979799999999998  0.78175  1.0000
  C   C26       1.0  0.8987700000000002  0.81254  0.77827  1.0000
  C   C27       1.0  0.9888800000000001  0.77427  0.8210100000000001  1.0000
  C   C28       1.0  0.12070000000000006  0.7897199999999999  0.8182100000000001  1.0000
  C   C29       1.0  0.4371500000000002  0.8097699999999998  0.9550900000000002  1.0000
  C   C30       1.0  0.4687900000000003  0.90907  0.9788400000000003  1.0000
  C   C31       1.0  0.5564399999999999  0.86906  0.022260000000000005  1.0000
  C   C32       1.0  0.41317000000000004  0.04213999999999994  0.9571000000000002  1.0000
  C   C33       1.0  0.23292  0.5430999999999999  0.95885  1.0000
  C   C34       1.0  0.11574999999999996  0.5167  0.98075  1.0000
  C   C35       1.0  0.03422  0.59472  0.019310000000000004  1.0000
  C   C36       1.0  0.08157000000000002  0.42178999999999994  0.9616  1.0000
  C   C37       1.0  0.5179100000000002  0.74996  0.49883  1.0000
  C   C38       1.0  0.5110900000000002  0.61984  0.49885  1.0000
  C   C39       1.0  0.47668999999999995  0.5644599999999999  0.54472  1.0000
  C   C40       1.0  0.53489  0.55478  0.4536600000000001  1.0000
  C   C41       1.0  0.64153  0.8837499999999999  0.31592000000000003  1.0000
  C   C42       1.0  0.62  0.7824900000000001  0.2897600000000001  1.0000
  C   C43       1.0  0.57987  0.80576  0.23776  1.0000
  C   C44       1.0  0.55891  0.70956  0.21436000000000002  1.0000
  C   C45       1.0  0.63847  0.6631399999999998  0.3184100000000001  1.0000
  C   C46       1.0  0.61596  0.56797  0.29525  1.0000
  C   C47       1.0  0.57608  0.5907399999999998  0.24316  1.0000
  C   C48       1.0  0.5594600000000002  0.48455999999999966  0.21788  1.0000
  C   C49       1.0  0.7929  0.11033999999999997  0.37282  1.0000
  C   C50       1.0  0.92233  0.11749000000000002  0.38708  1.0000
  C   C51       1.0  0.9950000000000001  0.03785000000000001  0.43083  1.0000
  C   C52       1.0  0.11892  0.036359999999999996  0.44466000000000006  1.0000
  C   C53       1.0  0.97424  0.19612  0.35691  1.0000
  C   C54       1.0  0.10129  0.19172  0.36971  1.0000
  C   C55       1.0  0.17278000000000004  0.11190999999999991  0.41374  1.0000
  C   C56       1.0  0.31349999999999995  0.09246999999999998  0.42637  1.0000
  C   C57       1.0  0.39476000000000006  0.2688499999999999  0.16845  1.0000
  C   C58       1.0  0.26061999999999996  0.2565  0.17273000000000005  1.0000
  C   C59       1.0  0.16947  0.29762  0.13034  1.0000
  C   C60       1.0  0.047599999999999996  0.28097  0.13346  1.0000
  C   C61       1.0  0.22546  0.20172999999999996  0.2186  1.0000
  C   C62       1.0  0.10262999999999997  0.1871  0.22199000000000002  1.0000
  C   C63       1.0  0.012580000000000029  0.22527999999999995  0.17922000000000005  1.0000
  C   C64       1.0  0.88063  0.21001999999999998  0.18248  1.0000
  C   C65       1.0  0.56212  0.19436  0.046340000000000006  1.0000
  C   C66       1.0  0.53201  0.09453999999999999  0.02225  1.0000
  C   C67       1.0  0.44491000000000014  0.13442  0.97873  1.0000
  C   C68       1.0  0.58797  0.9615299999999999  0.04384  1.0000
  C   C69       1.0  0.7667200000000001  0.4601399999999999  0.04138000000000001  1.0000
  C   C70       1.0  0.8845800000000001  0.4846399999999999  0.01927  1.0000
  C   C71       1.0  0.9662500000000003  0.40593000000000007  0.98091  1.0000
  C   C72       1.0  0.91895  0.57897  0.03861000000000001  1.0000
  O   O1        1.0  0.42147  0.21525  0.53742  1.0000
  O   O2        1.0  0.53745  0.18257999999999996  0.4616500000000001  1.0000
  O   O3        1.0  0.3572  0.12612  0.63463  1.0000
  O   O4        1.0  0.34972  0.01719999999999994  0.7114600000000002  1.0000
  O   O5        1.0  0.44195  0.61318  0.7525800000000002  1.0000
  O   O6        1.0  0.4501399999999999  0.50621  0.83135  1.0000
  O   O7        1.0  0.24289  0.96813  0.59831  1.0000
  O   O8        1.0  0.27868000000000015  0.8160599999999997  0.66634  1.0000
  O   O9        1.0  0.6428200000000001  0.9466199999999999  0.5248400000000001  1.0000
  O   O10       1.0  0.60357  0.8979299999999999  0.60697  1.0000
  O   O11       1.0  0.5075000000000001  0.8078999999999998  0.7999800000000001  1.0000
  O   O12       1.0  0.5949700000000002  0.65085  0.86699  1.0000
  O   O13       1.0  0.14677000000000007  0.8459599999999999  0.77585  1.0000
  O   O14       1.0  0.20383999999999997  0.74753  0.8560500000000002  1.0000
  O   O15       1.0  0.34925999999999996  0.8493099999999999  0.9175000000000001  1.0000
  O   O16       1.0  0.5004400000000001  0.6849899999999999  0.97059  1.0000
  O   O17       1.0  0.24803000000000003  0.64308  0.97219  1.0000
  O   O18       1.0  0.3128699999999999  0.4720600000000001  0.92455  1.0000
  O   O19       1.0  0.57656  0.78598  0.46073  1.0000
  O   O20       1.0  0.46293000000000006  0.8168799999999999  0.53722  1.0000
  O   O21       1.0  0.6481700000000001  0.8688599999999997  0.3648  1.0000
  O   O22       1.0  0.65313  0.9795199999999998  0.2881  1.0000
  O   O23       1.0  0.5642899999999998  0.38344  0.24809  1.0000
  O   O24       1.0  0.5450200000000001  0.49675  0.16967  1.0000
  O   O25       1.0  0.76107  0.028909999999999974  0.40120000000000006  1.0000
  O   O26       1.0  0.7225100000000002  0.18351  0.33374  1.0000
  O   O27       1.0  0.35740000000000005  0.053189999999999966  0.4734  1.0000
  O   O28       1.0  0.3943400000000001  0.10230999999999998  0.39108  1.0000
  O   O29       1.0  0.4938400000000001  0.19148999999999997  0.20044  1.0000
  O   O30       1.0  0.40625  0.35046  0.13418  1.0000
  O   O31       1.0  0.8576  0.14876999999999999  0.22399  1.0000
  O   O32       1.0  0.79399  0.25799  0.14572  1.0000
  O   O33       1.0  0.65138  0.15527  0.08342  1.0000
  O   O34       1.0  0.4962700000000001  0.3191899999999999  0.03138  1.0000
  O   O35       1.0  0.75014  0.36076  0.028220000000000002  1.0000
  O   O36       1.0  0.68755  0.53233  0.07563  1.0000
