data_image0
_chemical_formula_structural       Gd4H16C48S8O32
_chemical_formula_sum              "Gd4 H16 C48 S8 O32"
_cell_length_a       11.74318
_cell_length_b       12.137659999999999
_cell_length_c       16.27475
_cell_angle_alpha    90.06017999999999
_cell_angle_beta     89.97764
_cell_angle_gamma    112.80833000000001

_space_group_name_H-M_alt    "P 1"
_space_group_IT_number       1

loop_
  _space_group_symop_operation_xyz
  'x, y, z'

loop_
  _atom_site_type_symbol
  _atom_site_label
  _atom_site_symmetry_multiplicity
  _atom_site_fract_x
  _atom_site_fract_y
  _atom_site_fract_z
  _atom_site_occupancy
  Gd  Gd1       1.0  0.80375  0.9191300000000001  0.97257  1.0000
  Gd  Gd2       1.0  0.19689  0.58174  0.47257  1.0000
  Gd  Gd3       1.0  0.19639  0.0809  0.0273  1.0000
  Gd  Gd4       1.0  0.8035599999999998  0.41892  0.52744  1.0000
  H   H1        1.0  0.23542999999999994  0.28632  0.85788  1.0000
  H   H2        1.0  0.26732  0.41731  0.72142  1.0000
  H   H3        1.0  0.67574  0.55942  0.75914  1.0000
  H   H4        1.0  0.55188  0.49999  0.61864  1.0000
  H   H5        1.0  0.7647999999999998  0.21396  0.35896000000000006  1.0000
  H   H6        1.0  0.7331999999999997  0.084  0.22195  1.0000
  H   H7        1.0  0.3233399999999999  0.94091  0.2588  1.0000
  H   H8        1.0  0.4485  0.0013  0.11916  1.0000
  H   H9        1.0  0.76446  0.71384  0.14223000000000005  1.0000
  H   H10       1.0  0.7329699999999999  0.58317  0.27881  1.0000
  H   H11       1.0  0.32423  0.43991  0.24124  1.0000
  H   H12       1.0  0.449  0.49987  0.38124  1.0000
  H   H13       1.0  0.23563  0.78613  0.64113  1.0000
  H   H14       1.0  0.26694000000000007  0.9160900000000001  0.7780900000000002  1.0000
  H   H15       1.0  0.6769299999999999  0.05897  0.74095  1.0000
  H   H16       1.0  0.55205  0.99863  0.88078  1.0000
  C   C1        1.0  0.03858999999999998  0.25367  0.84863  1.0000
  C   C2        1.0  0.16325999999999996  0.30256  0.82427  1.0000
  C   C3        1.0  0.18004  0.37042  0.75271  1.0000
  C   C4        1.0  0.06823  0.37171  0.72261  1.0000
  C   C5        1.0  0.9846  0.17084  0.91775  1.0000
  C   C6        1.0  0.04938999999999996  0.43174  0.64754  1.0000
  C   C7        1.0  0.60173  0.69846  0.77255  1.0000
  C   C8        1.0  0.61776  0.60241  0.7339  1.0000
  C   C9        1.0  0.5525099999999998  0.57085  0.65976  1.0000
  C   C10       1.0  0.48647  0.64323  0.64284  1.0000
  C   C11       1.0  0.66245  0.7642400000000001  0.84722  1.0000
  C   C12       1.0  0.40314  0.6336  0.57301  1.0000
  C   C13       1.0  0.9616699999999998  0.24684999999999999  0.34966000000000014  1.0000
  C   C14       1.0  0.8370899999999998  0.19800999999999996  0.32522  1.0000
  C   C15       1.0  0.82052  0.1309  0.25324  1.0000
  C   C16       1.0  0.9324999999999999  0.13004  0.2229  1.0000
  C   C17       1.0  0.016180000000000007  0.3295  0.41892  1.0000
  C   C18       1.0  0.9509199999999999  0.0703  0.14746  1.0000
  C   C19       1.0  0.3978099999999999  0.80211  0.27241  1.0000
  C   C20       1.0  0.38174999999999987  0.8980999999999999  0.23386  1.0000
  C   C21       1.0  0.44782000000000005  0.9302500000000001  0.16002  1.0000
  C   C22       1.0  0.5145499999999998  0.8584699999999998  0.14313  1.0000
  C   C23       1.0  0.33717  0.73599  0.34699  1.0000
  C   C24       1.0  0.59851  0.86891  0.07339  1.0000
  C   C25       1.0  0.96138  0.74667  0.15132000000000007  1.0000
  C   C26       1.0  0.83676  0.69776  0.1758  1.0000
  C   C27       1.0  0.8201499999999998  0.62986  0.24733000000000002  1.0000
  C   C28       1.0  0.9321199999999997  0.62865  0.27725  1.0000
  C   C29       1.0  0.015529999999999987  0.82938  0.08216  1.0000
  C   C30       1.0  0.9511099999999998  0.56928  0.35254  1.0000
  C   C31       1.0  0.39832  0.30089  0.2276  1.0000
  C   C32       1.0  0.38232999999999995  0.39692  0.26627  1.0000
  C   C33       1.0  0.4481199999999999  0.42884  0.34021  1.0000
  C   C34       1.0  0.51451  0.3568  0.35702  1.0000
  C   C35       1.0  0.3376  0.23533  0.15283  1.0000
  C   C36       1.0  0.59827  0.36718  0.42676  1.0000
  C   C37       1.0  0.03884000000000002  0.75341  0.65014  1.0000
  C   C38       1.0  0.16326999999999994  0.80206  0.6748  1.0000
  C   C39       1.0  0.17965  0.86927  0.74675  1.0000
  C   C40       1.0  0.06759  0.87007  0.7769800000000002  1.0000
  C   C41       1.0  0.98422  0.67092  0.58085  1.0000
  C   C42       1.0  0.04905000000000008  0.92959  0.85252  1.0000
  C   C43       1.0  0.6024899999999999  0.19782000000000002  0.72751  1.0000
  C   C44       1.0  0.61861  0.10183  0.76604  1.0000
  C   C45       1.0  0.5526  0.06962  0.83991  1.0000
  C   C46       1.0  0.48576999999999987  0.14136  0.85682  1.0000
  C   C47       1.0  0.6630099999999999  0.26394  0.65285  1.0000
  C   C48       1.0  0.4017399999999999  0.13091  0.92655  1.0000
  S   S1        1.0  0.9431099999999999  0.28986  0.78246  1.0000
  S   S2        1.0  0.50457  0.74888  0.71756  1.0000
  S   S3        1.0  0.057419999999999985  0.21142  0.28302  1.0000
  S   S4        1.0  0.4959399999999999  0.7524599999999999  0.21757  1.0000
  S   S5        1.0  0.057049999999999976  0.71047  0.21731  1.0000
  S   S6        1.0  0.4959399999999999  0.25077  0.28246  1.0000
  S   S7        1.0  0.9428999999999997  0.7888299999999999  0.7166400000000003  1.0000
  S   S8        1.0  0.5043  0.24737  0.78238  1.0000
  O   O1        1.0  0.8674099999999999  0.11879  0.92056  1.0000
  O   O2        1.0  0.058359999999999995  0.1518  0.96768  1.0000
  O   O3        1.0  0.94253  0.43317  0.63786  1.0000
  O   O4        1.0  0.14205999999999994  0.47666  0.60042  1.0000
  O   O5        1.0  0.7197399999999999  0.72212  0.89563  1.0000
  O   O6        1.0  0.6571099999999997  0.8673699999999999  0.85857  1.0000
  O   O7        1.0  0.35353  0.71061  0.56645  1.0000
  O   O8        1.0  0.37778  0.54497  0.52431  1.0000
  O   O9        1.0  0.13351  0.38113  0.4209400000000001  1.0000
  O   O10       1.0  0.9433399999999997  0.34876  0.46967  1.0000
  O   O11       1.0  0.056969999999999986  0.06678  0.13781  1.0000
  O   O12       1.0  0.85841  0.027940000000000003  0.09996  1.0000
  O   O13       1.0  0.28018  0.77802  0.3958200000000001  1.0000
  O   O14       1.0  0.34264999999999995  0.6329  0.35811  1.0000
  O   O15       1.0  0.6500399999999997  0.7932399999999998  0.06722  1.0000
  O   O16       1.0  0.6222599999999999  0.95641  0.02421  1.0000
  O   O17       1.0  0.13272999999999985  0.8811599999999999  0.07944  1.0000
  O   O18       1.0  0.9419299999999998  0.8484099999999999  0.03208  1.0000
  O   O19       1.0  0.057629999999999994  0.56693  0.36216  1.0000
  O   O20       1.0  0.8586599999999998  0.52584  0.39993  1.0000
  O   O21       1.0  0.28073999999999993  0.27777  0.1042  1.0000
  O   O22       1.0  0.3424799999999999  0.13206  0.14149  1.0000
  O   O23       1.0  0.6491399999999999  0.29115  0.4331800000000001  1.0000
  O   O24       1.0  0.62242  0.45535  0.47575  1.0000
  O   O25       1.0  0.8668899999999999  0.61919  0.57912  1.0000
  O   O26       1.0  0.056730000000000017  0.65173  0.52981  1.0000
  O   O27       1.0  0.94301  0.93315  0.86217  1.0000
  O   O28       1.0  0.14147999999999994  0.97195  0.90007  1.0000
  O   O29       1.0  0.7198399999999998  0.22183  0.60401  1.0000
  O   O30       1.0  0.6576099999999999  0.36709  0.64185  1.0000
  O   O31       1.0  0.35033  0.20667  0.93274  1.0000
  O   O32       1.0  0.3778399999999999  0.04335  0.97571  1.0000
