data_image0
_chemical_formula_structural       La4H48C60O24
_chemical_formula_sum              "La4 H48 C60 O24"
_cell_length_a       7.3812
_cell_length_b       17.69166
_cell_length_c       16.35302
_cell_angle_alpha    121.55551
_cell_angle_beta     101.73064
_cell_angle_gamma    91.06329

_symmetry_space_group_name_H-M    'P 1'
_symmetry_Int_Tables_number       1

loop_
  _symmetry_equiv_pos_as_xyz
  'x,y,z'

loop_
  _atom_site_type_symbol
  _atom_site_label
  _atom_site_symmetry_multiplicity
  _atom_site_fract_x
  _atom_site_fract_y
  _atom_site_fract_z
  _atom_site_occupancy
  La  La1       1.0  0.3840799999999999  0.7790299999999998  0.67788  1.0000
  La  La2       1.0  0.11372999999999996  0.10217  0.32546  1.0000
  La  La3       1.0  0.6158999999999998  0.22097  0.32212  1.0000
  La  La4       1.0  0.88625  0.89783  0.67454  1.0000
  H   H1        1.0  0.4485999999999999  0.05104000000000001  0.86076  1.0000
  H   H2        1.0  0.5785  0.0479100000000001  0.9613  1.0000
  H   H3        1.0  0.62417  0.32486  0.70205  1.0000
  H   H4        1.0  0.21913999999999995  0.36015999999999987  0.55941  1.0000
  H   H5        1.0  0.3186  0.28569  0.5877  1.0000
  H   H6        1.0  0.2202  0.48488  0.60061  1.0000
  H   H7        1.0  0.17107  0.54936  0.7164300000000001  1.0000
  H   H8        1.0  0.54254  0.64373  0.85221  1.0000
  H   H9        1.0  0.613  0.33626  0.92344  1.0000
  H   H10       1.0  0.79571  0.60081  0.93759  1.0000
  H   H11       1.0  0.4793399999999999  0.17809  0.85075  1.0000
  H   H12       1.0  0.83585  0.4393999999999999  0.86282  1.0000
  H   H13       1.0  0.05648999999999999  0.18862  0.13371  1.0000
  H   H14       1.0  0.92504  0.08613999999999997  0.03462  1.0000
  H   H15       1.0  0.87154  0.61985  0.29215  1.0000
  H   H16       1.0  0.28532  0.79326  0.43611  1.0000
  H   H17       1.0  0.17009999999999997  0.69432  0.41133  1.0000
  H   H18       1.0  0.29362  0.88116  0.39843  1.0000
  H   H19       1.0  0.32834999999999986  0.84181  0.28088  1.0000
  H   H20       1.0  0.96638  0.8008799999999999  0.15056  1.0000
  H   H21       1.0  0.88257  0.41121  0.0732  1.0000
  H   H22       1.0  0.70679  0.67423  0.0632  1.0000
  H   H23       1.0  0.020209999999999992  0.32547  0.14515  1.0000
  H   H24       1.0  0.6607599999999998  0.58093  0.13323  1.0000
  H   H25       1.0  0.55139  0.94897  0.13924  1.0000
  H   H26       1.0  0.42149  0.9520899999999999  0.03871  1.0000
  H   H27       1.0  0.37582  0.67515  0.29796  1.0000
  H   H28       1.0  0.7808400000000001  0.63984  0.44059  1.0000
  H   H29       1.0  0.68139  0.7143099999999997  0.4123  1.0000
  H   H30       1.0  0.7797799999999999  0.51512  0.39939  1.0000
  H   H31       1.0  0.82891  0.45064  0.28358  1.0000
  H   H32       1.0  0.45745  0.35626999999999986  0.14779  1.0000
  H   H33       1.0  0.38698  0.66374  0.07656  1.0000
  H   H34       1.0  0.20426999999999995  0.39919  0.06241  1.0000
  H   H35       1.0  0.52065  0.82191  0.14925  1.0000
  H   H36       1.0  0.16413  0.5606  0.13719  1.0000
  H   H37       1.0  0.94349  0.81139  0.8663  1.0000
  H   H38       1.0  0.07494999999999999  0.91386  0.96538  1.0000
  H   H39       1.0  0.12843999999999994  0.38014999999999993  0.70785  1.0000
  H   H40       1.0  0.7146699999999999  0.20674  0.56389  1.0000
  H   H41       1.0  0.8298900000000001  0.30568  0.58867  1.0000
  H   H42       1.0  0.70636  0.11883999999999996  0.60157  1.0000
  H   H43       1.0  0.6716399999999998  0.15818999999999997  0.71912  1.0000
  H   H44       1.0  0.03360000000000001  0.19912000000000002  0.84945  1.0000
  H   H45       1.0  0.11742000000000001  0.58879  0.92681  1.0000
  H   H46       1.0  0.2932  0.3257700000000001  0.9368  1.0000
  H   H47       1.0  0.97977  0.67453  0.85485  1.0000
  H   H48       1.0  0.3392299999999999  0.41906999999999994  0.86677  1.0000
  C   C1        1.0  0.44476  0.50936  0.72517  1.0000
  C   C2        1.0  0.67506  0.16124000000000013  0.9553600000000001  1.0000
  C   C3        1.0  0.7031  0.9976799999999999  0.8398700000000001  1.0000
  C   C4        1.0  0.47169  0.41887999999999986  0.68207  1.0000
  C   C5        1.0  0.44501000000000007  0.30905  0.49704000000000004  1.0000
  C   C6        1.0  0.32459  0.62111  0.67676  1.0000
  C   C7        1.0  0.59143  0.06422000000000012  0.9060800000000002  1.0000
  C   C8        1.0  0.61047  0.39528999999999986  0.73372  1.0000
  C   C9        1.0  0.35489999999999994  0.34374  0.58306  1.0000
  C   C10       1.0  0.28468999999999994  0.53749  0.67838  1.0000
  C   C11       1.0  0.56272  0.57377  0.8180200000000001  1.0000
  C   C12       1.0  0.67335  0.29964  0.95634  1.0000
  C   C13       1.0  0.70435  0.54957  0.86675  1.0000
  C   C14       1.0  0.59922  0.21026999999999993  0.91502  1.0000
  C   C15       1.0  0.72804  0.45963  0.82504  1.0000
  C   C16       1.0  0.06047999999999999  0.78663  0.2748  1.0000
  C   C17       1.0  0.82854  0.20331  0.03924  1.0000
  C   C18       1.0  0.8027  0.15407  0.15686  1.0000
  C   C19       1.0  0.030260000000000037  0.73578  0.3155700000000001  1.0000
  C   C20       1.0  0.05864  0.80995  0.50091  1.0000
  C   C21       1.0  0.17722999999999994  0.9498599999999999  0.33296  1.0000
  C   C22       1.0  0.9132299999999998  0.15600999999999998  0.08915  1.0000
  C   C23       1.0  0.8886599999999998  0.6611699999999999  0.26238  1.0000
  C   C24       1.0  0.14452  0.7567400000000001  0.41439  1.0000
  C   C25       1.0  0.22074999999999995  0.8624699999999998  0.32334000000000007  1.0000
  C   C26       1.0  0.94327  0.76231  0.18285  1.0000
  C   C27       1.0  0.8245299999999998  0.34141  0.03974  1.0000
  C   C28       1.0  0.7984699999999998  0.6900999999999999  0.13283  1.0000
  C   C29       1.0  0.9014299999999997  0.29307  0.08036000000000001  1.0000
  C   C30       1.0  0.7716  0.63823  0.17195  1.0000
  C   C31       1.0  0.55523  0.49064  0.27483  1.0000
  C   C32       1.0  0.32492999999999994  0.8387699999999999  0.04464  1.0000
  C   C33       1.0  0.29688000000000003  0.0023300000000000217  0.16013000000000002  1.0000
  C   C34       1.0  0.5283  0.58112  0.31794  1.0000
  C   C35       1.0  0.55498  0.69096  0.50296  1.0000
  C   C36       1.0  0.6754  0.3789  0.32325  1.0000
  C   C37       1.0  0.40856  0.9357799999999998  0.09393  1.0000
  C   C38       1.0  0.38952  0.60471  0.26629  1.0000
  C   C39       1.0  0.6450799999999998  0.65626  0.41694  1.0000
  C   C40       1.0  0.7153  0.46251  0.32162  1.0000
  C   C41       1.0  0.43726999999999994  0.4262299999999999  0.18199  1.0000
  C   C42       1.0  0.3266299999999999  0.7003599999999998  0.04366  1.0000
  C   C43       1.0  0.29564  0.45043999999999995  0.13325  1.0000
  C   C44       1.0  0.40076  0.78974  0.08498  1.0000
  C   C45       1.0  0.27195  0.54037  0.17496  1.0000
  C   C46       1.0  0.93951  0.21337999999999993  0.7252  1.0000
  C   C47       1.0  0.17143999999999998  0.7966900000000001  0.96076  1.0000
  C   C48       1.0  0.19729000000000005  0.84593  0.84314  1.0000
  C   C49       1.0  0.9697300000000001  0.2642199999999999  0.68443  1.0000
  C   C50       1.0  0.94135  0.19005000000000005  0.49909000000000003  1.0000
  C   C51       1.0  0.82276  0.0501400000000001  0.6670400000000002  1.0000
  C   C52       1.0  0.08675000000000006  0.84399  0.9108500000000002  1.0000
  C   C53       1.0  0.11133  0.33882999999999996  0.73762  1.0000
  C   C54       1.0  0.85547  0.24327  0.58562  1.0000
  C   C55       1.0  0.77924  0.13752999999999996  0.67666  1.0000
  C   C56       1.0  0.056720000000000034  0.23770000000000005  0.8171500000000002  1.0000
  C   C57       1.0  0.17546  0.6586  0.96027  1.0000
  C   C58       1.0  0.20152  0.3099  0.86717  1.0000
  C   C59       1.0  0.09855999999999998  0.70693  0.91964  1.0000
  C   C60       1.0  0.22838999999999995  0.36178  0.82805  1.0000
  O   O1        1.0  0.3528200000000001  0.23669000000000007  0.41296000000000005  1.0000
  O   O2        1.0  0.5999099999999998  0.3437599999999999  0.50253  1.0000
  O   O3        1.0  0.61883  0.91675  0.77039  1.0000
  O   O4        1.0  0.8734099999999998  0.019619999999999985  0.84989  1.0000
  O   O5        1.0  0.49211999999999995  0.6590699999999999  0.69918  1.0000
  O   O6        1.0  0.18242999999999993  0.6519  0.65117  1.0000
  O   O7        1.0  0.14812000000000003  0.8222099999999998  0.5863  1.0000
  O   O8        1.0  0.9080099999999997  0.84026  0.49473  1.0000
  O   O9        1.0  0.88904  0.14599999999999994  0.22916000000000003  1.0000
  O   O10       1.0  0.6314099999999999  0.16206  0.14554  1.0000
  O   O11       1.0  0.008860000000000012  0.96238  0.3101  1.0000
  O   O12       1.0  0.3175799999999999  0.010080000000000054  0.3630100000000001  1.0000
  O   O13       1.0  0.64716  0.76331  0.58704  1.0000
  O   O14       1.0  0.40008  0.65625  0.49748  1.0000
  O   O15       1.0  0.38116  0.08325000000000002  0.22961000000000004  1.0000
  O   O16       1.0  0.12656999999999993  0.9803799999999999  0.15011  1.0000
  O   O17       1.0  0.5078599999999998  0.3409299999999999  0.30083  1.0000
  O   O18       1.0  0.8175599999999997  0.3481  0.34883  1.0000
  O   O19       1.0  0.85187  0.17779  0.4137  1.0000
  O   O20       1.0  0.09197999999999999  0.15974  0.50528  1.0000
  O   O21       1.0  0.11095000000000002  0.854  0.7708400000000001  1.0000
  O   O22       1.0  0.36858  0.8379399999999999  0.85446  1.0000
  O   O23       1.0  0.99113  0.03762999999999999  0.6899  1.0000
  O   O24       1.0  0.6824099999999999  0.98992  0.63699  1.0000
