data_image0
_chemical_formula_structural       Cu8P8H36C28N8O24
_chemical_formula_sum              "Cu8 P8 H36 C28 N8 O24"
_cell_length_a       9.554
_cell_length_b       9.54252
_cell_length_c       26.49813
_cell_angle_alpha    96.76144
_cell_angle_beta     97.03087
_cell_angle_gamma    110.54319999999998

_space_group_name_H-M_alt    "P 1"
_space_group_IT_number       1

loop_
  _space_group_symop_operation_xyz
  'x, y, z'

loop_
  _atom_site_type_symbol
  _atom_site_label
  _atom_site_symmetry_multiplicity
  _atom_site_fract_x
  _atom_site_fract_y
  _atom_site_fract_z
  _atom_site_occupancy
  Cu  Cu1       1.0  0.58308  0.6454700000000001  0.21563  1.0000
  Cu  Cu2       1.0  0.5115399999999999  0.20702999999999996  0.23368999999999995  1.0000
  Cu  Cu3       1.0  0.43104  0.36848  0.78464  1.0000
  Cu  Cu4       1.0  0.9745  0.2777  0.7669499999999999  1.0000
  Cu  Cu5       1.0  0.11850000000000005  0.6808200000000001  0.28449  1.0000
  Cu  Cu6       1.0  0.02741000000000001  0.22386000000000003  0.2669  1.0000
  Cu  Cu7       1.0  0.39547999999999994  0.83406  0.7156399999999999  1.0000
  Cu  Cu8       1.0  0.95719  0.76294  0.73397  1.0000
  P   P1        1.0  0.8819299999999999  0.87778  0.27409  1.0000
  P   P2        1.0  0.84711  0.41258  0.23033999999999996  1.0000
  P   P3        1.0  0.60273  0.60829  0.7265699999999999  1.0000
  P   P4        1.0  0.18153999999999995  0.6184  0.7699799999999998  1.0000
  P   P5        1.0  0.35764000000000007  0.85266  0.22609  1.0000
  P   P6        1.0  0.3678100000000001  0.43098000000000003  0.26991  1.0000
  P   P7        1.0  0.62807  0.13321  0.77436  1.0000
  P   P8        1.0  0.16257  0.09761000000000003  0.73031  1.0000
  H   H1        1.0  0.69456  0.5731  0.29575  1.0000
  H   H2        1.0  0.11027000000000008  0.80504  0.17819999999999994  1.0000
  H   H3        1.0  0.19965  0.69668  0.14419  1.0000
  H   H4        1.0  0.90747  0.46702  0.14574999999999996  1.0000
  H   H5        1.0  0.88376  0.62332  0.18422999999999995  1.0000
  H   H6        1.0  0.12790999999999994  0.90274  0.3716699999999999  1.0000
  H   H7        1.0  0.18167000000000003  0.9456500000000001  0.46924  1.0000
  H   H8        1.0  0.07711999999999991  0.8216099999999998  0.54224  1.0000
  H   H9        1.0  0.14422999999999986  0.8516799999999999  0.6385399999999999  1.0000
  H   H10       1.0  0.2771  0.39743  0.7045  1.0000
  H   H11       1.0  0.6275599999999999  0.93244  0.8210099999999999  1.0000
  H   H12       1.0  0.5561399999999997  0.05634999999999986  0.8562699999999998  1.0000
  H   H13       1.0  0.3229700000000001  0.76674  0.85443  1.0000
  H   H14       1.0  0.43886  0.7019100000000001  0.81601  1.0000
  H   H15       1.0  0.52975  0.7562  0.62893  1.0000
  H   H16       1.0  0.47595000000000004  0.71275  0.53135  1.0000
  H   H17       1.0  0.28014  0.53551  0.45722  1.0000
  H   H18       1.0  0.21481000000000003  0.50757  0.36095  1.0000
  H   H19       1.0  0.14569  0.52657  0.20442  1.0000
  H   H20       1.0  0.68307  0.87713  0.32127  1.0000
  H   H21       1.0  0.80777  0.8053200000000001  0.35621  1.0000
  H   H22       1.0  0.517  0.57152  0.35445999999999994  1.0000
  H   H23       1.0  0.45243  0.68836  0.31612  1.0000
  H   H24       1.0  0.50496  0.7792300000000002  0.1286  1.0000
  H   H25       1.0  0.46270000000000006  0.72639  0.031049999999999994  1.0000
  H   H26       1.0  0.28551  0.52998  0.9569699999999999  1.0000
  H   H27       1.0  0.2570299999999998  0.46413999999999983  0.8607699999999998  1.0000
  H   H28       1.0  0.32380999999999993  0.9446899999999999  0.79564  1.0000
  H   H29       1.0  0.5549099999999999  0.36095999999999995  0.6786199999999999  1.0000
  H   H30       1.0  0.44698999999999994  0.45072  0.64432  1.0000
  H   H31       1.0  0.21607999999999994  0.1592599999999999  0.6457699999999997  1.0000
  H   H32       1.0  0.37231000000000003  0.1346999999999999  0.6842199999999998  1.0000
  H   H33       1.0  0.65251  0.37833  0.87212  1.0000
  H   H34       1.0  0.69591  0.4325499999999999  0.96969  1.0000
  H   H35       1.0  0.57191  0.32743  0.04258  1.0000
  H   H36       1.0  0.60051  0.3934  0.13879  1.0000
  C   C1        1.0  0.74809  0.80298  0.31776  1.0000
  C   C2        1.0  0.9301800000000001  0.53303  0.18471999999999997  1.0000
  C   C3        1.0  0.16088000000000008  0.8252000000000003  0.3931299999999999  1.0000
  C   C4        1.0  0.19055999999999998  0.84693  0.44683  1.0000
  C   C5        1.0  0.23630999999999996  0.7438399999999998  0.47155  1.0000
  C   C6        1.0  0.17882  0.80612  0.55952  1.0000
  C   C7        1.0  0.21492  0.82326  0.61296  1.0000
  C   C8        1.0  0.4844399999999999  0.42949000000000004  0.6825699999999999  1.0000
  C   C9        1.0  0.3487400000000001  0.7485900000000001  0.81547  1.0000
  C   C10       1.0  0.43080999999999997  0.7674500000000001  0.60721  1.0000
  C   C11       1.0  0.39930999999999994  0.7436899999999999  0.5535  1.0000
  C   C12       1.0  0.27169999999999994  0.76461  0.5284799999999998  1.0000
  C   C13       1.0  0.24734  0.62025  0.44021999999999994  1.0000
  C   C14       1.0  0.21149000000000007  0.6035100000000001  0.38679999999999987  1.0000
  C   C15       1.0  0.17848999999999995  0.73425  0.18232999999999994  1.0000
  C   C16       1.0  0.49864  0.59782  0.31550999999999996  1.0000
  C   C17       1.0  0.51652  0.68044  0.10702999999999997  1.0000
  C   C18       1.0  0.4934200000000001  0.64951  0.053339999999999985  1.0000
  C   C19       1.0  0.51471  0.52206  0.028519999999999993  1.0000
  C   C20       1.0  0.37021999999999994  0.49738999999999994  0.9401199999999998  1.0000
  C   C21       1.0  0.35318  0.46119000000000004  0.88673  1.0000
  C   C22       1.0  0.5537  0.99783  0.81771  1.0000
  C   C23       1.0  0.2823399999999999  0.18140999999999988  0.6847299999999997  1.0000
  C   C24       1.0  0.57508  0.41124000000000016  0.89344  1.0000
  C   C25       1.0  0.5970900000000001  0.44122999999999996  0.9471299999999999  1.0000
  C   C26       1.0  0.49404  0.48680000000000007  0.97163  1.0000
  C   C27       1.0  0.55601  0.4289200000000001  0.05971999999999999  1.0000
  C   C28       1.0  0.57241  0.46440000000000003  0.11311  1.0000
  N   N1        1.0  0.64042  0.6489400000000001  0.29393  1.0000
  N   N2        1.0  0.17039000000000004  0.7049  0.36357999999999996  1.0000
  N   N3        1.0  0.35505  0.34547000000000005  0.7063  1.0000
  N   N4        1.0  0.33958999999999995  0.8058799999999999  0.63649  1.0000
  N   N5        1.0  0.09439  0.60506  0.20621  1.0000
  N   N6        1.0  0.55465  0.5889  0.13646  1.0000
  N   N7        1.0  0.39958999999999995  0.89053  0.7937999999999998  1.0000
  N   N8        1.0  0.45450999999999997  0.42024000000000006  0.86371  1.0000
  O   O1        1.0  0.03242  0.85909  0.28817  1.0000
  O   O2        1.0  0.32621  0.82087  0.2804  1.0000
  O   O3        1.0  0.36879  0.012969999999999995  0.21463999999999997  1.0000
  O   O4        1.0  0.88943  0.27082000000000006  0.2198  1.0000
  O   O5        1.0  0.67243  0.36913  0.21715999999999996  1.0000
  O   O6        1.0  0.91574  0.5121000000000001  0.28404  1.0000
  O   O7        1.0  0.5691900000000001  0.7436  0.7118  1.0000
  O   O8        1.0  0.54182  0.04680999999999995  0.7198299999999999  1.0000
  O   O9        1.0  0.7995799999999998  0.15490999999999996  0.78554  1.0000
  O   O10       1.0  0.05068000000000004  0.67134  0.78074  1.0000
  O   O11       1.0  0.15254000000000006  0.45702000000000004  0.78308  1.0000
  O   O12       1.0  0.2245999999999999  0.6324499999999998  0.7161699999999999  1.0000
  O   O13       1.0  0.49297000000000013  0.81898  0.21178  1.0000
  O   O14       1.0  0.7934  0.79294  0.21965  1.0000
  O   O15       1.0  0.9042  0.049469999999999965  0.28576999999999997  1.0000
  O   O16       1.0  0.41996000000000006  0.29928999999999994  0.28056999999999993  1.0000
  O   O17       1.0  0.20671999999999996  0.40203  0.2829499999999999  1.0000
  O   O18       1.0  0.38198  0.47488  0.21615999999999994  1.0000
  O   O19       1.0  0.61029  0.28375  0.78948  1.0000
  O   O20       1.0  0.56997  0.57625  0.78071  1.0000
  O   O21       1.0  0.7634900000000001  0.61898  0.7164199999999997  1.0000
  O   O22       1.0  0.02059000000000001  0.13961  0.71993  1.0000
  O   O23       1.0  0.11896999999999996  0.9228100000000001  0.7170199999999999  1.0000
  O   O24       1.0  0.26254  0.16558999999999988  0.7839999999999998  1.0000
