data_image0
_chemical_formula_structural       Er4H32C72N12O32
_chemical_formula_sum              "Er4 H32 C72 N12 O32"
_cell_length_a       10.17806
_cell_length_b       10.50204
_cell_length_c       19.962869999999995
_cell_angle_alpha    90.00013999999999
_cell_angle_beta     89.98826999999999
_cell_angle_gamma    109.74445999999999

_symmetry_space_group_name_H-M    'P 1'
_symmetry_Int_Tables_number       1

loop_
  _symmetry_equiv_pos_as_xyz
  'x,y,z'

loop_
  _atom_site_type_symbol
  _atom_site_label
  _atom_site_symmetry_multiplicity
  _atom_site_fract_x
  _atom_site_fract_y
  _atom_site_fract_z
  _atom_site_occupancy
  Er  Er1       1.0  0.29658  0.31519  0.95439  1.0000
  Er  Er2       1.0  0.20342999999999997  0.68497  0.45600999999999997  1.0000
  Er  Er3       1.0  0.70338  0.6847599999999999  0.04563  1.0000
  Er  Er4       1.0  0.79653  0.31496  0.54398  1.0000
  H   H1        1.0  0.75983  0.67503  0.34348999999999996  1.0000
  H   H2        1.0  0.1768  0.28127  0.16169999999999998  1.0000
  H   H3        1.0  0.9735499999999999  0.11839999999999999  0.19869  1.0000
  H   H4        1.0  0.31571  0.3671  0.3666  1.0000
  H   H5        1.0  0.77396  0.9856099999999999  0.17602  1.0000
  H   H6        1.0  0.58951  0.55403  0.20387  1.0000
  H   H7        1.0  0.37656  0.72677  0.24902999999999997  1.0000
  H   H8        1.0  0.69017  0.95451  0.389  1.0000
  H   H9        1.0  0.74094  0.32523  0.8457899999999999  1.0000
  H   H10       1.0  0.32175  0.71721  0.66217  1.0000
  H   H11       1.0  0.52494  0.8803599999999999  0.69851  1.0000
  H   H12       1.0  0.1846799999999999  0.6335499999999998  0.8675599999999999  1.0000
  H   H13       1.0  0.7239199999999999  0.01368  0.6752  1.0000
  H   H14       1.0  0.90931  0.44498  0.7058199999999999  1.0000
  H   H15       1.0  0.12160000000000001  0.27311  0.74723  1.0000
  H   H16       1.0  0.8096500000000001  0.04517999999999999  0.88794  1.0000
  H   H17       1.0  0.24017999999999998  0.32498  0.65651  1.0000
  H   H18       1.0  0.8232200000000001  0.71873  0.83831  1.0000
  H   H19       1.0  0.026459999999999966  0.8816099999999999  0.80131  1.0000
  H   H20       1.0  0.68431  0.6329099999999999  0.6334  1.0000
  H   H21       1.0  0.22604999999999995  0.014389999999999998  0.82398  1.0000
  H   H22       1.0  0.4104999999999999  0.4459699999999999  0.79613  1.0000
  H   H23       1.0  0.62345  0.27324  0.75097  1.0000
  H   H24       1.0  0.30985  0.0455  0.61101  1.0000
  H   H25       1.0  0.25907  0.67478  0.15422  1.0000
  H   H26       1.0  0.6782699999999999  0.2828  0.33784  1.0000
  H   H27       1.0  0.47507  0.11964999999999999  0.30149  1.0000
  H   H28       1.0  0.8153299999999999  0.36646  0.13244  1.0000
  H   H29       1.0  0.2760899999999999  0.9863299999999998  0.32481  1.0000
  H   H30       1.0  0.0907  0.55503  0.29418  1.0000
  H   H31       1.0  0.87841  0.7268899999999999  0.25278  1.0000
  H   H32       1.0  0.19035999999999997  0.9548199999999999  0.11205999999999999  1.0000
  C   C1        1.0  0.74637  0.9819499999999999  0.28416  1.0000
  C   C2        1.0  0.5233999999999999  0.8347099999999998  0.32391  1.0000
  C   C3        1.0  0.57085  0.85434  0.20462999999999998  1.0000
  C   C4        1.0  0.25541  0.33227999999999996  0.19863  1.0000
  C   C5        1.0  0.9840599999999999  0.13789  0.25181  1.0000
  C   C6        1.0  0.33371  0.38101  0.31297  1.0000
  C   C7        1.0  0.42355  0.76913  0.37823999999999997  1.0000
  C   C8        1.0  0.22855000000000003  0.3119499999999999  0.26739  1.0000
  C   C9        1.0  0.70479  0.9449199999999999  0.21806999999999996  1.0000
  C   C10       1.0  0.41009  0.43363999999999997  0.10263999999999998  1.0000
  C   C11       1.0  0.5260699999999998  0.8129399999999998  0.13375  1.0000
  C   C12       1.0  0.46268999999999993  0.4684599999999999  0.29009  1.0000
  C   C13       1.0  0.38439999999999996  0.41891  0.17565999999999998  1.0000
  C   C14       1.0  0.48831  0.48816  0.22138  1.0000
  C   C15       1.0  0.57262  0.53997  0.33982  1.0000
  C   C16       1.0  0.09314  0.22048  0.28995999999999994  1.0000
  C   C17       1.0  0.48021  0.79899  0.25779  1.0000
  C   C18       1.0  0.65612  0.9273699999999998  0.33775999999999995  1.0000
  C   C19       1.0  0.75285  0.01809  0.7832  1.0000
  C   C20       1.0  0.97578  0.16538  0.8224799999999999  1.0000
  C   C21       1.0  0.92763  0.14546  0.7031999999999999  1.0000
  C   C22       1.0  0.24319000000000002  0.66661  0.69922  1.0000
  C   C23       1.0  0.51506  0.8615099999999998  0.75167  1.0000
  C   C24       1.0  0.1664  0.61939  0.8139399999999999  1.0000
  C   C25       1.0  0.07623999999999999  0.23076999999999998  0.87655  1.0000
  C   C26       1.0  0.27079  0.68786  0.76795  1.0000
  C   C27       1.0  0.7937299999999999  0.05496  0.7169399999999999  1.0000
  C   C28       1.0  0.08639999999999992  0.5627999999999997  0.6036399999999998  1.0000
  C   C29       1.0  0.97408  0.18723999999999993  0.63248  1.0000
  C   C30       1.0  0.037430000000000005  0.53175  0.7914  1.0000
  C   C31       1.0  0.11392999999999999  0.57961  0.67656  1.0000
  C   C32       1.0  0.010719999999999983  0.51125  0.72282  1.0000
  C   C33       1.0  0.92931  0.46006  0.84175  1.0000
  C   C34       1.0  0.4063599999999999  0.7793199999999999  0.7901099999999999  1.0000
  C   C35       1.0  0.018169999999999985  0.20101999999999998  0.7562899999999999  1.0000
  C   C36       1.0  0.84336  0.07265  0.8366599999999997  1.0000
  C   C37       1.0  0.25364  0.01806  0.71584  1.0000
  C   C38       1.0  0.47661  0.16529  0.67609  1.0000
  C   C39       1.0  0.42916  0.14566  0.79537  1.0000
  C   C40       1.0  0.74461  0.6677199999999999  0.80137  1.0000
  C   C41       1.0  0.015949999999999975  0.8621199999999999  0.74819  1.0000
  C   C42       1.0  0.6663  0.61899  0.68703  1.0000
  C   C43       1.0  0.5764599999999999  0.23086999999999996  0.62176  1.0000
  C   C44       1.0  0.77146  0.68806  0.73261  1.0000
  C   C45       1.0  0.29522  0.05508999999999999  0.7819299999999999  1.0000
  C   C46       1.0  0.58992  0.56637  0.8973599999999998  1.0000
  C   C47       1.0  0.47394  0.18706  0.86626  1.0000
  C   C48       1.0  0.53732  0.53155  0.70991  1.0000
  C   C49       1.0  0.61562  0.58109  0.82434  1.0000
  C   C50       1.0  0.51171  0.51184  0.7786199999999999  1.0000
  C   C51       1.0  0.4273899999999999  0.46003999999999995  0.66019  1.0000
  C   C52       1.0  0.90687  0.77953  0.7100499999999998  1.0000
  C   C53       1.0  0.5197999999999999  0.20101  0.7422099999999999  1.0000
  C   C54       1.0  0.34389  0.07263  0.6622399999999999  1.0000
  C   C55       1.0  0.24715999999999994  0.9819199999999998  0.2168  1.0000
  C   C56       1.0  0.02422999999999998  0.83462  0.17752  1.0000
  C   C57       1.0  0.07237999999999994  0.8545399999999999  0.2968  1.0000
  C   C58       1.0  0.7568299999999999  0.3334  0.30078  1.0000
  C   C59       1.0  0.48494999999999994  0.13849999999999998  0.24832999999999994  1.0000
  C   C60       1.0  0.8336099999999999  0.38061  0.18606  1.0000
  C   C61       1.0  0.92378  0.76924  0.12346  1.0000
  C   C62       1.0  0.72922  0.31214  0.23206  1.0000
  C   C63       1.0  0.20627999999999996  0.94504  0.28306  1.0000
  C   C64       1.0  0.91362  0.43720999999999993  0.39636  1.0000
  C   C65       1.0  0.025919999999999957  0.8127599999999999  0.36751999999999996  1.0000
  C   C66       1.0  0.96258  0.46825  0.20861  1.0000
  C   C67       1.0  0.88608  0.42038999999999993  0.32344  1.0000
  C   C68       1.0  0.98929  0.48874999999999996  0.27718  1.0000
  C   C69       1.0  0.0707  0.53994  0.15825  1.0000
  C   C70       1.0  0.59365  0.22069  0.20989  1.0000
  C   C71       1.0  0.9818399999999999  0.7989799999999999  0.24371  1.0000
  C   C72       1.0  0.15666  0.92736  0.16334  1.0000
  N   N1        1.0  0.92545  0.11801999999999999  0.36073999999999995  1.0000
  N   N2        1.0  0.05250999999999999  0.20467999999999997  0.35615  1.0000
  N   N3        1.0  0.88179  0.07577  0.29663  1.0000
  N   N4        1.0  0.5745999999999999  0.8824599999999998  0.8604299999999999  1.0000
  N   N5        1.0  0.44754  0.79569  0.85618  1.0000
  N   N6        1.0  0.61771  0.92409  0.79614  1.0000
  N   N7        1.0  0.07455999999999997  0.8819899999999999  0.6392599999999999  1.0000
  N   N8        1.0  0.9474999999999998  0.7953199999999999  0.6438599999999999  1.0000
  N   N9        1.0  0.11821999999999988  0.9242399999999997  0.70337  1.0000
  N   N10       1.0  0.42541  0.11754999999999999  0.13957  1.0000
  N   N11       1.0  0.55247  0.20431  0.14382  1.0000
  N   N12       1.0  0.3823  0.07590999999999999  0.20387  1.0000
  O   O1        1.0  0.31435  0.3621  0.06309  1.0000
  O   O2        1.0  0.68679  0.62543  0.30961  1.0000
  O   O3        1.0  0.40121  0.7631  0.11763999999999997  1.0000
  O   O4        1.0  0.43351  0.8194999999999999  0.43744  1.0000
  O   O5        1.0  0.3197  0.66202  0.3636099999999999  1.0000
  O   O6        1.0  0.52652  0.51505  0.08086  1.0000
  O   O7        1.0  0.62862  0.8303899999999999  0.0907  1.0000
  O   O8        1.0  0.55982  0.52337  0.40053  1.0000
  O   O9        1.0  0.18132999999999994  0.6315199999999997  0.5630299999999999  1.0000
  O   O10       1.0  0.81391  0.37566  0.81201  1.0000
  O   O11       1.0  0.09960999999999998  0.23768999999999998  0.61737  1.0000
  O   O12       1.0  0.06643  0.18050999999999998  0.9357599999999999  1.0000
  O   O13       1.0  0.18044  0.33761  0.86181  1.0000
  O   O14       1.0  0.96877  0.48245999999999994  0.5826999999999999  1.0000
  O   O15       1.0  0.8729099999999999  0.16966  0.58876  1.0000
  O   O16       1.0  0.9454099999999999  0.47575  0.90242  1.0000
  O   O17       1.0  0.6856599999999998  0.6379099999999998  0.93691  1.0000
  O   O18       1.0  0.31323  0.37458  0.69039  1.0000
  O   O19       1.0  0.59879  0.23691  0.8823599999999999  1.0000
  O   O20       1.0  0.56651  0.18050999999999998  0.5625599999999998  1.0000
  O   O21       1.0  0.68032  0.33799  0.6364  1.0000
  O   O22       1.0  0.47349  0.48498  0.9191399999999998  1.0000
  O   O23       1.0  0.37137999999999993  0.16961  0.90931  1.0000
  O   O24       1.0  0.44018999999999997  0.4766299999999999  0.59946  1.0000
  O   O25       1.0  0.81868  0.36848  0.43696999999999997  1.0000
  O   O26       1.0  0.18609999999999996  0.6243499999999998  0.18799999999999997  1.0000
  O   O27       1.0  0.9004099999999999  0.76231  0.3826399999999999  1.0000
  O   O28       1.0  0.9335899999999999  0.8194999999999999  0.06423999999999999  1.0000
  O   O29       1.0  0.8195699999999999  0.66239  0.13819  1.0000
  O   O30       1.0  0.031249999999999962  0.5175499999999998  0.4173  1.0000
  O   O31       1.0  0.12710999999999995  0.8303499999999999  0.41123999999999994  1.0000
  O   O32       1.0  0.05460000000000001  0.52425  0.09758  1.0000
