data_image0
_chemical_formula_structural       Mn6H28C60N8O26
_chemical_formula_sum              "Mn6 H28 C60 N8 O26"
_cell_length_a       7.65241
_cell_length_b       15.10395
_cell_length_c       18.372030000000002
_cell_angle_alpha    104.94586
_cell_angle_beta     89.97595
_cell_angle_gamma    104.6544

_symmetry_space_group_name_H-M    'P 1'
_symmetry_Int_Tables_number       1

loop_
  _symmetry_equiv_pos_as_xyz
  'x,y,z'

loop_
  _atom_site_type_symbol
  _atom_site_label
  _atom_site_symmetry_multiplicity
  _atom_site_fract_x
  _atom_site_fract_y
  _atom_site_fract_z
  _atom_site_occupancy
  Mn  Mn1       1.0  0.8810600000000004  0.39004  0.10687  1.0000
  Mn  Mn2       1.0  0.8376300000000001  0.57253  0.06818  1.0000
  Mn  Mn3       1.0  0.38423  0.55203  0.20655  1.0000
  Mn  Mn4       1.0  0.50842  0.3908  0.60618  1.0000
  Mn  Mn5       1.0  0.7368300000000002  0.57346  0.56775  1.0000
  Mn  Mn6       1.0  0.16827  0.5526  0.70585  1.0000
  H   H1        1.0  0.3833500000000001  0.20088  0.19196  1.0000
  H   H2        1.0  0.22979000000000005  0.24645  0.42131  1.0000
  H   H3        1.0  0.55351  0.48045  0.34806  1.0000
  H   H4        1.0  0.98897  0.9672  0.0974  1.0000
  H   H5        1.0  0.7853300000000002  0.80126  0.07193  1.0000
  H   H6        1.0  0.8183800000000001  0.81955  0.30867  1.0000
  H   H7        1.0  0.028630000000000017  0.98376  0.33362  1.0000
  H   H8        1.0  0.3004800000000001  0.76288  0.30418  1.0000
  H   H9        1.0  0.4864700000000001  0.92887  0.36514  1.0000
  H   H10       1.0  0.4999000000000001  0.99412  0.1511  1.0000
  H   H11       1.0  0.2954  0.83211  0.09146  1.0000
  H   H12       1.0  0.66322  0.20652  0.40452  1.0000
  H   H13       1.0  0.024720000000000023  0.47095  0.3912  1.0000
  H   H14       1.0  0.92699  0.22480999999999998  0.2001  1.0000
  H   H15       1.0  0.81686  0.20268  0.69112  1.0000
  H   H16       1.0  0.013949999999999994  0.24499  0.92015  1.0000
  H   H17       1.0  0.9282600000000002  0.48122  0.84848  1.0000
  H   H18       1.0  0.9761400000000002  0.96508  0.5962  1.0000
  H   H19       1.0  0.01676000000000001  0.79978  0.57243  1.0000
  H   H20       1.0  0.0012999999999999381  0.8210599999999999  0.8095199999999999  1.0000
  H   H21       1.0  0.9529899999999999  0.9846899999999998  0.8329099999999999  1.0000
  H   H22       1.0  0.4624800000000001  0.76227  0.80214  1.0000
  H   H23       1.0  0.44191  0.92802  0.86388  1.0000
  H   H24       1.0  0.49356000000000005  0.9949600000000001  0.65058  1.0000
  H   H25       1.0  0.5367100000000002  0.83317  0.59011  1.0000
  H   H26       1.0  0.5413500000000002  0.20652999999999994  0.9042699999999999  1.0000
  H   H27       1.0  0.4453599999999999  0.47107999999999994  0.89024  1.0000
  H   H28       1.0  0.29593  0.2242  0.69978  1.0000
  C   C1        1.0  0.57284  0.38481  0.20308999999999996  1.0000
  C   C2        1.0  0.47801  0.34485000000000005  0.26321  1.0000
  C   C3        1.0  0.38534  0.24911999999999998  0.24749999999999997  1.0000
  C   C4        1.0  0.29114  0.21472  0.30452  1.0000
  C   C5        1.0  0.2998300000000001  0.27464  0.37739  1.0000
  C   C6        1.0  0.3945900000000001  0.37031  0.39296  1.0000
  C   C7        1.0  0.41795  0.43275  0.47129999999999994  1.0000
  C   C8        1.0  0.4804400000000001  0.40588  0.33533  1.0000
  C   C9        1.0  0.019890000000000012  0.9839  0.21679  1.0000
  C   C10       1.0  0.95082  0.93335  0.14272  1.0000
  C   C11       1.0  0.83811  0.8420299999999998  0.1289  1.0000
  C   C12       1.0  0.7904700000000001  0.8009799999999999  0.18895  1.0000
  C   C13       1.0  0.6753300000000002  0.70239  0.17415  1.0000
  C   C14       1.0  0.8576800000000002  0.85254  0.26305  1.0000
  C   C15       1.0  0.9729800000000002  0.94287  0.27703  1.0000
  C   C16       1.0  0.17517999999999995  0.68939  0.15811  1.0000
  C   C17       1.0  0.28825000000000006  0.78746  0.19396  1.0000
  C   C18       1.0  0.34301  0.814  0.27122  1.0000
  C   C19       1.0  0.44667  0.90558  0.30502  1.0000
  C   C20       1.0  0.50669  0.96992  0.26127  1.0000
  C   C21       1.0  0.4536500000000001  0.94297  0.18371  1.0000
  C   C22       1.0  0.34183000000000013  0.85309  0.15089  1.0000
  C   C23       1.0  0.7903800000000001  0.20422  0.29914  1.0000
  C   C24       1.0  0.75852  0.24697  0.37367  1.0000
  C   C25       1.0  0.8418699999999999  0.34287  0.40641  1.0000
  C   C26       1.0  0.7837400000000001  0.38975  0.48091999999999996  1.0000
  C   C27       1.0  0.96117  0.39605999999999997  0.36594  1.0000
  C   C28       1.0  0.99308  0.35364  0.29174  1.0000
  C   C29       1.0  0.10667999999999997  0.41154999999999997  0.24617  1.0000
  C   C30       1.0  0.90585  0.25793  0.25821  1.0000
  C   C31       1.0  0.81231  0.3868  0.70326  1.0000
  C   C32       1.0  0.86689  0.34619999999999995  0.76322  1.0000
  C   C33       1.0  0.8632400000000002  0.25026  0.74686  1.0000
  C   C34       1.0  0.92217  0.21493  0.80349  1.0000
  C   C35       1.0  0.9728400000000003  0.27416  0.8767  1.0000
  C   C36       1.0  0.97498  0.37016  0.89307  1.0000
  C   C37       1.0  0.013929999999999986  0.43227  0.97184  1.0000
  C   C38       1.0  0.92567  0.40648  0.83559  1.0000
  C   C39       1.0  0.9621900000000002  0.98362  0.71589  1.0000
  C   C40       1.0  0.9813200000000001  0.9322699999999999  0.6421  1.0000
  C   C41       1.0  0.0040699999999999695  0.84125  0.62912  1.0000
  C   C42       1.0  0.011070000000000035  0.80106  0.68967  1.0000
  C   C43       1.0  0.02798000000000002  0.70255  0.6755  1.0000
  C   C44       1.0  0.9946500000000003  0.85333  0.76345  1.0000
  C   C45       1.0  0.9685600000000002  0.94337  0.77658  1.0000
  C   C46       1.0  0.5136500000000002  0.68975  0.65604  1.0000
  C   C47       1.0  0.4989500000000002  0.7877100000000001  0.69219  1.0000
  C   C48       1.0  0.47082000000000024  0.8136800000000002  0.76948  1.0000
  C   C49       1.0  0.4584900000000001  0.90509  0.80375  1.0000
  C   C50       1.0  0.46231  0.9698  0.76042  1.0000
  C   C51       1.0  0.4887300000000001  0.94348  0.68284  1.0000
  C   C52       1.0  0.51099  0.85375  0.64955  1.0000
  C   C53       1.0  0.41130999999999995  0.20394  0.799  1.0000
  C   C54       1.0  0.4864400000000001  0.24698  0.87337  1.0000
  C   C55       1.0  0.4994700000000001  0.34297  0.9058  1.0000
  C   C56       1.0  0.6055  0.38989  0.98003  1.0000
  C   C57       1.0  0.43375  0.39615  0.86515  1.0000
  C   C58       1.0  0.3596200000000001  0.35349  0.79095  1.0000
  C   C59       1.0  0.30626  0.4115400000000001  0.74497  1.0000
  C   C60       1.0  0.35008  0.25761  0.75784  1.0000
  N   N1        1.0  0.18228000000000005  0.12147  0.29438  1.0000
  N   N2        1.0  0.13343  0.07634  0.22556  1.0000
  N   N3        1.0  0.61211  0.06093000000000001  0.30094  1.0000
  N   N4        1.0  0.6995700000000005  0.11007  0.25917  1.0000
  N   N5        1.0  0.93718  0.12145  0.79302  1.0000
  N   N6        1.0  0.94084  0.07609999999999999  0.72424  1.0000
  N   N7        1.0  0.44765  0.06068999999999997  0.8004799999999999  1.0000
  N   N8        1.0  0.40783  0.10977000000000002  0.75903  1.0000
  O   O1        1.0  0.69214  0.34398  0.17069  1.0000
  O   O2        1.0  0.53452  0.45505  0.18821  1.0000
  O   O3        1.0  0.50979  0.51829  0.48391000000000006  1.0000
  O   O4        1.0  0.35046000000000005  0.39312  0.52392  1.0000
  O   O5        1.0  0.59764  0.67414  0.22878000000000004  1.0000
  O   O6        1.0  0.6573299999999999  0.6479999999999999  0.10609  1.0000
  O   O7        1.0  0.04157000000000001  0.68252  0.11206  1.0000
  O   O8        1.0  0.21113000000000004  0.61929  0.17428  1.0000
  O   O9        1.0  0.6772900000000002  0.33963  0.5159  1.0000
  O   O10       1.0  0.8419900000000003  0.48186000000000007  0.50192  1.0000
  O   O11       1.0  0.21621000000000007  0.49113  0.27986  1.0000
  O   O12       1.0  0.09050000000000005  0.3799600000000001  0.17364  1.0000
  O   O13       1.0  0.86694  0.50875  0.13445  1.0000
  O   O14       1.0  0.65079  0.34758  0.67224  1.0000
  O   O15       1.0  0.9222800000000002  0.45546  0.68696  1.0000
  O   O16       1.0  0.008159999999999947  0.5180499999999999  0.9849599999999998  1.0000
  O   O17       1.0  0.04147  0.393  0.0247  1.0000
  O   O18       1.0  0.07610999999999998  0.67441  0.73047  1.0000
  O   O19       1.0  0.9930000000000002  0.64779  0.60752  1.0000
  O   O20       1.0  0.6413600000000003  0.68288  0.61043  1.0000
  O   O21       1.0  0.40612999999999994  0.61981  0.67178  1.0000
  O   O22       1.0  0.66083  0.33946999999999994  0.014969999999999999  1.0000
  O   O23       1.0  0.6416600000000002  0.48209  0.00081  1.0000
  O   O24       1.0  0.27805  0.49167  0.77819  1.0000
  O   O25       1.0  0.29109  0.37947  0.67246  1.0000
  O   O26       1.0  0.6410600000000001  0.50958  0.63324  1.0000
