data_image0
_chemical_formula_structural       Cd14H16C40N28O36
_chemical_formula_sum              "Cd14 H16 C40 N28 O36"
_cell_length_a       11.44073
_cell_length_b       11.44758
_cell_length_c       16.78231
_cell_angle_alpha    81.88803
_cell_angle_beta     81.88496
_cell_angle_gamma    80.33667

_symmetry_space_group_name_H-M    'P 1'
_symmetry_Int_Tables_number       1

loop_
  _symmetry_equiv_pos_as_xyz
  'x,y,z'

loop_
  _atom_site_type_symbol
  _atom_site_label
  _atom_site_symmetry_multiplicity
  _atom_site_fract_x
  _atom_site_fract_y
  _atom_site_fract_z
  _atom_site_occupancy
  Cd  Cd1       1.0  0.78237  0.61326  0.48171  1.0000
  Cd  Cd2       1.0  0.5931899999999999  0.9548500000000002  0.13682  1.0000
  Cd  Cd3       1.0  0.96981  0.49041000000000007  0.88431  1.0000
  Cd  Cd4       1.0  0.38487000000000005  0.21834000000000003  0.01905  1.0000
  Cd  Cd5       1.0  0.04534999999999999  0.4053300000000001  0.36343  1.0000
  Cd  Cd6       1.0  0.50873  0.029300000000000014  0.61468  1.0000
  Cd  Cd7       1.0  0.22157000000000002  0.3802900000000001  0.5176  1.0000
  Cd  Cd8       1.0  0.4062599999999999  0.04204999999999998  0.8639500000000002  1.0000
  Cd  Cd9       1.0  0.029109999999999994  0.50898  0.11536  1.0000
  Cd  Cd10      1.0  0.6192  0.77804  0.9831800000000002  1.0000
  Cd  Cd11      1.0  0.9570600000000004  0.59244  0.63565  1.0000
  Cd  Cd12      1.0  0.49101000000000006  0.9698700000000001  0.38481000000000004  1.0000
  Cd  Cd13      1.0  0.8122000000000001  0.18814000000000003  0.24995000000000003  1.0000
  Cd  Cd14      1.0  0.18802  0.81175  0.74989  1.0000
  H   H1        1.0  0.5405  0.66852  0.58855  1.0000
  H   H2        1.0  0.41352999999999995  0.6463600000000002  0.53513  1.0000
  H   H3        1.0  0.60886  0.53464  0.36849  1.0000
  H   H4        1.0  0.45963  0.60113  0.4011800000000001  1.0000
  H   H5        1.0  0.3302  0.46028  0.9122  1.0000
  H   H6        1.0  0.35350999999999994  0.5872100000000001  0.96506  1.0000
  H   H7        1.0  0.4647600000000001  0.39241000000000004  0.13199  1.0000
  H   H8        1.0  0.3991100000000001  0.54172  0.09886  1.0000
  H   H9        1.0  0.4707499999999999  0.38655000000000006  0.3990800000000001  1.0000
  H   H10       1.0  0.58716  0.35408  0.46366  1.0000
  H   H11       1.0  0.38561000000000006  0.41291000000000005  0.64316  1.0000
  H   H12       1.0  0.5468400000000001  0.39731  0.59832  1.0000
  H   H13       1.0  0.6145299999999999  0.5284  0.10068  1.0000
  H   H14       1.0  0.6449500000000001  0.41224  0.03596  1.0000
  H   H15       1.0  0.5878500000000001  0.6141999999999999  0.85676  1.0000
  H   H16       1.0  0.60274  0.45313  0.90158  1.0000
  C   C1        1.0  0.78464  0.31292999999999993  0.91365  1.0000
  C   C2        1.0  0.81995  0.22572000000000006  0.0664  1.0000
  C   C3        1.0  0.80292  0.66154  0.2119  1.0000
  C   C4        1.0  0.83919  0.2962800000000001  0.9922  1.0000
  C   C5        1.0  0.5092499999999999  0.63537  0.53894  1.0000
  C   C6        1.0  0.7684600000000001  0.69172  0.12781  1.0000
  C   C7        1.0  0.7635200000000001  0.7017699999999999  0.28765  1.0000
  C   C8        1.0  0.7533  0.12468  0.09318  1.0000
  C   C9        1.0  0.5392499999999999  0.54183  0.42042  1.0000
  C   C10       1.0  0.6744300000000002  0.80006  0.31746  1.0000
  C   C11       1.0  0.68755  0.21302000000000004  0.58624  1.0000
  C   C12       1.0  0.77633  0.17728  0.43356  1.0000
  C   C13       1.0  0.33788  0.19623  0.28885  1.0000
  C   C14       1.0  0.70464  0.15896  0.50747  1.0000
  C   C15       1.0  0.3640300000000001  0.49151  0.96152  1.0000
  C   C16       1.0  0.3090800000000001  0.2293  0.37338  1.0000
  C   C17       1.0  0.29773  0.2369  0.21311  1.0000
  C   C18       1.0  0.87853  0.24243999999999993  0.4071400000000001  1.0000
  C   C19       1.0  0.45786  0.46165000000000006  0.07985  1.0000
  C   C20       1.0  0.20034  0.32704000000000005  0.18287  1.0000
  C   C21       1.0  0.21160999999999996  0.68802  0.08665  1.0000
  C   C22       1.0  0.17762000000000003  0.77482  0.93352  1.0000
  C   C23       1.0  0.19363000000000005  0.33269000000000004  0.78894  1.0000
  C   C24       1.0  0.15745000000000003  0.70478  0.00778  1.0000
  C   C25       1.0  0.50655  0.41521  0.44918000000000013  1.0000
  C   C26       1.0  0.22686000000000003  0.30301000000000006  0.87356  1.0000
  C   C27       1.0  0.23115999999999995  0.29105  0.71338  1.0000
  C   C28       1.0  0.24386  0.87602  0.90714  1.0000
  C   C29       1.0  0.45200000000000007  0.40951000000000004  0.58974  1.0000
  C   C30       1.0  0.31973  0.19283  0.68313  1.0000
  C   C31       1.0  0.31125  0.78761  0.41337  1.0000
  C   C32       1.0  0.22238000000000002  0.82326  0.56617  1.0000
  C   C33       1.0  0.6668299999999999  0.8072500000000001  0.71117  1.0000
  C   C34       1.0  0.29365  0.8419900000000001  0.49218  1.0000
  C   C35       1.0  0.5848  0.49325  0.05072  1.0000
  C   C36       1.0  0.6955000000000002  0.77391  0.62653  1.0000
  C   C37       1.0  0.7080700000000001  0.76853  0.78677  1.0000
  C   C38       1.0  0.12046000000000014  0.7578  0.59276  1.0000
  C   C39       1.0  0.59075  0.54789  0.91018  1.0000
  C   C40       1.0  0.8057000000000001  0.67871  0.81644  1.0000
  N   N1        1.0  0.83075  0.63086  0.34181  1.0000
  N   N2        1.0  0.92303  0.36360000000000003  0.08309000000000001  1.0000
  N   N3        1.0  0.9078400000000001  0.55211  0.30192  1.0000
  N   N4        1.0  0.58601  0.58799  0.48464  1.0000
  N   N5        1.0  0.87239  0.2706200000000001  0.12134999999999999  1.0000
  N   N6        1.0  0.89253  0.5690200000000002  0.22404  1.0000
  N   N7        1.0  0.9032100000000001  0.37954  0.00564  1.0000
  N   N8        1.0  0.36766  0.16922  0.15877  1.0000
  N   N9        1.0  0.6366800000000001  0.07699  0.41591  1.0000
  N   N10       1.0  0.44565000000000005  0.09087999999999999  0.19845000000000004  1.0000
  N   N11       1.0  0.41126000000000007  0.41477  0.01585  1.0000
  N   N12       1.0  0.73102  0.12593999999999997  0.37825  1.0000
  N   N13       1.0  0.42936  0.10576000000000003  0.27631  1.0000
  N   N14       1.0  0.62038  0.09655999999999998  0.4934200000000001  1.0000
  N   N15       1.0  0.16629  0.3640300000000001  0.6586800000000002  1.0000
  N   N16       1.0  0.07763999999999999  0.635  0.91587  1.0000
  N   N17       1.0  0.09226000000000001  0.44534000000000007  0.6981300000000003  1.0000
  N   N18       1.0  0.41556  0.41503  0.51999  1.0000
  N   N19       1.0  0.1277999999999999  0.7283800000000001  0.87795  1.0000
  N   N20       1.0  0.10710999999999993  0.4281700000000001  0.77613  1.0000
  N   N21       1.0  0.09516000000000001  0.62036  0.9937899999999998  1.0000
  N   N22       1.0  0.6360600000000001  0.8338100000000003  0.8416400000000003  1.0000
  N   N23       1.0  0.36351999999999995  0.9215200000000002  0.58415  1.0000
  N   N24       1.0  0.5555899999999999  0.9091600000000001  0.80216  1.0000
  N   N25       1.0  0.5851000000000001  0.58427  0.97996  1.0000
  N   N26       1.0  0.2689400000000001  0.87308  0.62173  1.0000
  N   N27       1.0  0.57242  0.89471  0.72413  1.0000
  N   N28       1.0  0.37875000000000003  0.9033400000000001  0.50635  1.0000
  O   O1        1.0  0.84041  0.37205  0.85351  1.0000
  O   O2        1.0  0.6645000000000002  0.7549  0.11798000000000003  1.0000
  O   O3        1.0  0.6225999999999999  0.8814000000000001  0.26861  1.0000
  O   O4        1.0  0.7213700000000001  0.10239  0.1712  1.0000
  O   O5        1.0  0.83856  0.64954  0.07138  1.0000
  O   O6        1.0  0.68546  0.2794  0.91653  1.0000
  O   O7        1.0  0.50258  0.94225  0.02797  1.0000
  O   O8        1.0  0.65396  0.8002500000000001  0.39375  1.0000
  O   O9        1.0  0.72605  0.06388  0.0441  1.0000
  O   O10       1.0  0.6282400000000001  0.15683  0.64612  1.0000
  O   O11       1.0  0.24321000000000004  0.33135  0.38486  1.0000
  O   O12       1.0  0.11983  0.38108  0.23124  1.0000
  O   O13       1.0  0.90256  0.27384  0.32908  1.0000
  O   O14       1.0  0.35461  0.16001000000000004  0.42881  1.0000
  O   O15       1.0  0.72102  0.31212  0.58365  1.0000
  O   O16       1.0  0.05736000000000003  0.49694  0.47216  1.0000
  O   O17       1.0  0.19986000000000004  0.34625  0.10659000000000003  1.0000
  O   O18       1.0  0.93861  0.26937999999999995  0.45663  1.0000
  O   O19       1.0  0.15398  0.63108  0.14682  1.0000
  O   O20       1.0  0.3293600000000001  0.23858999999999997  0.88519  1.0000
  O   O21       1.0  0.37559  0.11389999999999993  0.7313600000000002  1.0000
  O   O22       1.0  0.2782399999999999  0.89728  0.82924  1.0000
  O   O23       1.0  0.15738000000000002  0.34927  0.9287  1.0000
  O   O24       1.0  0.31156999999999996  0.7199000000000001  0.08338  1.0000
  O   O25       1.0  0.49729000000000007  0.05620999999999999  0.97218  1.0000
  O   O26       1.0  0.33788  0.19257000000000005  0.60672  1.0000
  O   O27       1.0  0.26897  0.9377  0.95635  1.0000
  O   O28       1.0  0.36741  0.8460300000000001  0.35319  1.0000
  O   O29       1.0  0.7607599999999999  0.6719800000000002  0.61469  1.0000
  O   O30       1.0  0.88302  0.62246  0.76743  1.0000
  O   O31       1.0  0.09747000000000001  0.72582  0.67079  1.0000
  O   O32       1.0  0.6478199999999998  0.84261  0.57154  1.0000
  O   O33       1.0  0.28052  0.6871600000000001  0.41669  1.0000
  O   O34       1.0  0.94371  0.49803  0.52842  1.0000
  O   O35       1.0  0.80736  0.65995  0.89273  1.0000
  O   O36       1.0  0.05991999999999997  0.7308100000000001  0.54348  1.0000
