data_image0
_chemical_formula_structural       Cd10H28C56N8O44
_chemical_formula_sum              "Cd10 H28 C56 N8 O44"
_cell_length_a       11.13003
_cell_length_b       11.304209999999998
_cell_length_c       17.20184
_cell_angle_alpha    98.50475000000002
_cell_angle_beta     108.82901
_cell_angle_gamma    91.11171

_symmetry_space_group_name_H-M    'P 1'
_symmetry_Int_Tables_number       1

loop_
  _symmetry_equiv_pos_as_xyz
  'x,y,z'

loop_
  _atom_site_type_symbol
  _atom_site_label
  _atom_site_symmetry_multiplicity
  _atom_site_fract_x
  _atom_site_fract_y
  _atom_site_fract_z
  _atom_site_occupancy
  Cd  Cd1       1.0  0.09867000000000005  0.22341999999999998  0.4651  1.0000
  Cd  Cd2       1.0  0.78923  0.28228999999999993  0.43784  1.0000
  Cd  Cd3       1.0  0.17036000000000012  0.7973399999999998  0.9390500000000003  1.0000
  Cd  Cd4       1.0  0.17858999999999994  0.87655  0.74868  1.0000
  Cd  Cd5       1.0  0.26043  0.09716999999999998  0.96297  1.0000
  Cd  Cd6       1.0  0.9013400000000003  0.77658  0.5349  1.0000
  Cd  Cd7       1.0  0.21078000000000005  0.7177099999999998  0.56216  1.0000
  Cd  Cd8       1.0  0.8296500000000002  0.20266  0.06095  1.0000
  Cd  Cd9       1.0  0.8214200000000003  0.12344000000000001  0.2513200000000001  1.0000
  Cd  Cd10      1.0  0.73958  0.90283  0.03703  1.0000
  H   H1        1.0  0.3864900000000002  0.38823999999999986  0.8599100000000002  1.0000
  H   H2        1.0  0.43130000000000007  0.54983  0.78653  1.0000
  H   H3        1.0  0.38955  0.49845999999999996  0.62934  1.0000
  H   H4        1.0  0.08250999999999997  0.38774  0.8718  1.0000
  H   H5        1.0  0.012250000000000011  0.18134  0.78689  1.0000
  H   H6        1.0  0.95904  0.15903000000000003  0.6300300000000002  1.0000
  H   H7        1.0  0.09943  0.35697  0.11106  1.0000
  H   H8        1.0  0.15067000000000005  0.37839999999999996  0.2680300000000001  1.0000
  H   H9        1.0  0.36599  0.32570999999999994  0.3533  1.0000
  H   H10       1.0  0.38691000000000003  0.03303999999999999  0.36685  1.0000
  H   H11       1.0  0.52978  0.96053  0.28703  1.0000
  H   H12       1.0  0.43779000000000007  0.9250199999999998  0.12743000000000004  1.0000
  H   H13       1.0  0.88455  0.06460000000000003  0.4111400000000001  1.0000
  H   H14       1.0  0.36671000000000004  0.90044  0.9056700000000002  1.0000
  H   H15       1.0  0.61351  0.61176  0.14009  1.0000
  H   H16       1.0  0.5687  0.45017  0.21346000000000007  1.0000
  H   H17       1.0  0.6104500000000002  0.50153  0.3706600000000001  1.0000
  H   H18       1.0  0.91749  0.61225  0.12819  1.0000
  H   H19       1.0  0.98776  0.81866  0.21311  1.0000
  H   H20       1.0  0.04095999999999997  0.84097  0.36997  1.0000
  H   H21       1.0  0.9005800000000004  0.6430200000000001  0.8889400000000002  1.0000
  H   H22       1.0  0.84933  0.6215999999999999  0.73196  1.0000
  H   H23       1.0  0.63402  0.67429  0.6467000000000003  1.0000
  H   H24       1.0  0.6131  0.96696  0.63315  1.0000
  H   H25       1.0  0.47023  0.03946999999999999  0.71296  1.0000
  H   H26       1.0  0.5622099999999999  0.07497000000000002  0.87256  1.0000
  H   H27       1.0  0.11546000000000006  0.93539  0.58885  1.0000
  H   H28       1.0  0.6333  0.09955  0.09433  1.0000
  C   C1        1.0  0.30512000000000006  0.23221  0.66243  1.0000
  C   C2        1.0  0.25883  0.11127999999999998  0.6055  1.0000
  C   C3        1.0  0.32685000000000014  0.25655  0.7485200000000002  1.0000
  C   C4        1.0  0.29467  0.16071999999999995  0.79201  1.0000
  C   C5        1.0  0.37274  0.3707499999999999  0.79352  1.0000
  C   C6        1.0  0.39866000000000007  0.46002999999999994  0.75229  1.0000
  C   C7        1.0  0.37541000000000013  0.43483999999999995  0.66751  1.0000
  C   C8        1.0  0.0372300000000001  0.5509900000000001  0.6254800000000003  1.0000
  C   C9        1.0  0.032360000000000146  0.4537999999999999  0.6774900000000003  1.0000
  C   C10       1.0  0.06378999999999993  0.47126  0.76435  1.0000
  C   C11       1.0  0.05591000000000009  0.37338  0.80424  1.0000
  C   C12       1.0  0.016919999999999987  0.25930999999999993  0.75725  1.0000
  C   C13       1.0  0.9861900000000001  0.24440999999999996  0.67159  1.0000
  C   C14       1.0  0.10316000000000015  0.59534  0.8135600000000002  1.0000
  C   C15       1.0  0.55869  0.25661999999999996  0.29828  1.0000
  C   C16       1.0  0.42737  0.28109  0.24666  1.0000
  C   C17       1.0  0.4816700000000003  0.23547  0.10826000000000002  1.0000
  C   C18       1.0  0.39414  0.26886  0.15963  1.0000
  C   C19       1.0  0.18977  0.33686  0.15323  1.0000
  C   C20       1.0  0.22053  0.34924  0.23868  1.0000
  C   C21       1.0  0.33984  0.31991  0.28618  1.0000
  C   C22       1.0  0.13617  0.07427999999999998  0.30394  1.0000
  C   C23       1.0  0.22261000000000003  0.02469  0.25722  1.0000
  C   C24       1.0  0.35045000000000004  0.010620000000000004  0.29922  1.0000
  C   C25       1.0  0.43012  0.9710499999999997  0.25412  1.0000
  C   C26       1.0  0.3823500000000001  0.9497699999999998  0.16817  1.0000
  C   C27       1.0  0.17526  0.9980599999999998  0.17034  1.0000
  C   C28       1.0  0.03835000000000001  0.011919999999999997  0.11799  1.0000
  C   C29       1.0  0.69488  0.7677899999999999  0.33757  1.0000
  C   C30       1.0  0.74118  0.8887099999999998  0.3944900000000001  1.0000
  C   C31       1.0  0.67316  0.74345  0.25147  1.0000
  C   C32       1.0  0.7053400000000001  0.83927  0.20799  1.0000
  C   C33       1.0  0.62727  0.6292399999999999  0.20648  1.0000
  C   C34       1.0  0.6013400000000001  0.5399599999999999  0.24771000000000007  1.0000
  C   C35       1.0  0.6246000000000002  0.56515  0.33248  1.0000
  C   C36       1.0  0.96277  0.449  0.37452  1.0000
  C   C37       1.0  0.96765  0.5462  0.3225000000000001  1.0000
  C   C38       1.0  0.9362200000000003  0.52873  0.23565  1.0000
  C   C39       1.0  0.9441  0.6266199999999998  0.19576  1.0000
  C   C40       1.0  0.98309  0.7406799999999999  0.24275  1.0000
  C   C41       1.0  0.01381999999999999  0.75558  0.32841  1.0000
  C   C42       1.0  0.8968500000000001  0.40465999999999996  0.18644  1.0000
  C   C43       1.0  0.44131  0.74338  0.70172  1.0000
  C   C44       1.0  0.57264  0.7189099999999998  0.75333  1.0000
  C   C45       1.0  0.51834  0.7645299999999999  0.89173  1.0000
  C   C46       1.0  0.60586  0.73113  0.84036  1.0000
  C   C47       1.0  0.81024  0.6631300000000001  0.8467600000000002  1.0000
  C   C48       1.0  0.77948  0.65076  0.76132  1.0000
  C   C49       1.0  0.66017  0.68009  0.71382  1.0000
  C   C50       1.0  0.86384  0.9257199999999999  0.69605  1.0000
  C   C51       1.0  0.7774  0.9753099999999999  0.74278  1.0000
  C   C52       1.0  0.64955  0.98938  0.70077  1.0000
  C   C53       1.0  0.5698900000000001  0.028950000000000035  0.7458700000000003  1.0000
  C   C54       1.0  0.61765  0.05022  0.83182  1.0000
  C   C55       1.0  0.8247500000000001  0.001929999999999988  0.82965  1.0000
  C   C56       1.0  0.96165  0.98807  0.8820000000000002  1.0000
  N   N1        1.0  0.3258  0.32441  0.62353  1.0000
  N   N2        1.0  0.9929600000000002  0.3411  0.63371  1.0000
  N   N3        1.0  0.27366  0.2943299999999999  0.11473  1.0000
  N   N4        1.0  0.25732  0.9639299999999998  0.12856  1.0000
  N   N5        1.0  0.6742100000000001  0.6755899999999999  0.37647  1.0000
  N   N6        1.0  0.0070500000000000415  0.6589  0.3662800000000001  1.0000
  N   N7        1.0  0.7263400000000001  0.70566  0.88527  1.0000
  N   N8        1.0  0.7426900000000002  0.036060000000000036  0.8714400000000002  1.0000
  O   O1        1.0  0.2968100000000002  0.30889  0.5414000000000002  1.0000
  O   O2        1.0  0.13736  0.0958  0.56664  1.0000
  O   O3        1.0  0.3397  0.040530000000000004  0.5982  1.0000
  O   O4        1.0  0.25414999999999993  0.060219999999999996  0.74613  1.0000
  O   O5        1.0  0.3102400000000001  0.19117999999999996  0.8688500000000002  1.0000
  O   O6        1.0  0.96556  0.32694000000000006  0.5509500000000003  1.0000
  O   O7        1.0  0.93876  0.60763  0.60469  1.0000
  O   O8        1.0  0.14014000000000004  0.56024  0.60949  1.0000
  O   O9        1.0  0.11620000000000012  0.68006  0.7765400000000002  1.0000
  O   O10       1.0  0.11651000000000002  0.6062500000000001  0.89182  1.0000
  O   O11       1.0  0.89692  0.14336999999999997  0.39472  1.0000
  O   O12       1.0  0.23644  0.28001999999999994  0.03235  1.0000
  O   O13       1.0  0.4663400000000001  0.12557  0.07055  1.0000
  O   O14       1.0  0.55726  0.31566  0.10582000000000003  1.0000
  O   O15       1.0  0.63111  0.20844999999999997  0.26209  1.0000
  O   O16       1.0  0.5870900000000001  0.29174  0.3777500000000001  1.0000
  O   O17       1.0  0.27497999999999995  0.91646  0.89014  1.0000
  O   O18       1.0  0.9646300000000002  0.9180499999999998  0.09425  1.0000
  O   O19       1.0  0.018310000000000017  0.1187  0.10541000000000003  1.0000
  O   O20       1.0  0.017890000000000003  0.0534  0.26556  1.0000
  O   O21       1.0  0.19274  0.13094999999999998  0.37645  1.0000
  O   O22       1.0  0.21278  0.95194  0.04513000000000002  1.0000
  O   O23       1.0  0.7032000000000003  0.6910999999999999  0.45859  1.0000
  O   O24       1.0  0.8626500000000001  0.9042  0.43335  1.0000
  O   O25       1.0  0.66031  0.9594699999999998  0.4018  1.0000
  O   O26       1.0  0.74586  0.9397699999999999  0.25387  1.0000
  O   O27       1.0  0.68977  0.8088199999999999  0.13115  1.0000
  O   O28       1.0  0.03445000000000001  0.67306  0.44905  1.0000
  O   O29       1.0  0.06124000000000006  0.39236  0.3953000000000001  1.0000
  O   O30       1.0  0.85987  0.43974999999999986  0.39051  1.0000
  O   O31       1.0  0.8838  0.31993  0.22346  1.0000
  O   O32       1.0  0.8834900000000002  0.39374999999999993  0.10817  1.0000
  O   O33       1.0  0.10309000000000001  0.8566199999999999  0.60528  1.0000
  O   O34       1.0  0.76357  0.71997  0.9676400000000002  1.0000
  O   O35       1.0  0.53367  0.87443  0.92944  1.0000
  O   O36       1.0  0.44275000000000014  0.6843300000000001  0.8941800000000002  1.0000
  O   O37       1.0  0.3689000000000002  0.79155  0.7379000000000002  1.0000
  O   O38       1.0  0.4129100000000001  0.70826  0.62225  1.0000
  O   O39       1.0  0.7250300000000001  0.08354  0.10986  1.0000
  O   O40       1.0  0.03538  0.08194999999999995  0.90575  1.0000
  O   O41       1.0  0.9817  0.8812999999999998  0.89459  1.0000
  O   O42       1.0  0.9821200000000001  0.9466  0.7344400000000002  1.0000
  O   O43       1.0  0.8072700000000003  0.86904  0.62354  1.0000
  O   O44       1.0  0.78723  0.04806000000000003  0.9548700000000001  1.0000
