data_image0
_chemical_formula_structural       La3H36C63N3O18
_chemical_formula_sum              "La3 H36 C63 N3 O18"
_cell_length_a       12.97438
_cell_length_b       14.73935
_cell_length_c       14.73939
_cell_angle_alpha    111.75651
_cell_angle_beta     107.08182
_cell_angle_gamma    107.08187

_space_group_name_H-M_alt    "P 1"
_space_group_IT_number       1

loop_
  _space_group_symop_operation_xyz
  'x, y, z'

loop_
  _atom_site_type_symbol
  _atom_site_label
  _atom_site_symmetry_multiplicity
  _atom_site_fract_x
  _atom_site_fract_y
  _atom_site_fract_z
  _atom_site_occupancy
  La  La1       1.0  0.17855000000000007  0.67858  0.35724  1.0000
  La  La2       1.0  0.82145  0.64276  0.32142  1.0000
  La  La3       1.0  0.5  0.6787300000000003  0.32127  1.0000
  H   H1        1.0  0.17759000000000008  0.51533  0.82351  1.0000
  H   H2        1.0  0.2645200000000001  0.6174800000000003  0.027030000000000002  1.0000
  H   H3        1.0  0.011530000000000002  0.34453  0.01547  1.0000
  H   H4        1.0  0.9284100000000002  0.2390700000000002  0.8134400000000003  1.0000
  H   H5        1.0  0.92023  0.46105  0.70921  1.0000
  H   H6        1.0  0.9146400000000002  0.5601900000000001  0.6035400000000001  1.0000
  H   H7        1.0  0.35389999999999994  0.17649999999999996  0.69204  1.0000
  H   H8        1.0  0.2376100000000001  0.9730400000000002  0.59042  1.0000
  H   H9        1.0  0.99603  0.9842100000000003  0.32892  1.0000
  H   H10       1.0  0.11443  0.18638  0.42584  1.0000
  H   H11       1.0  0.2109  0.29066  0.75162  1.0000
  H   H12       1.0  0.3107500000000001  0.39648000000000017  0.9565100000000001  1.0000
  H   H13       1.0  0.66205  0.30817  0.48439  1.0000
  H   H14       1.0  0.64703  0.4097200000000001  0.38259  1.0000
  H   H15       1.0  0.66692  0.67093  0.65544  1.0000
  H   H16       1.0  0.68904  0.57428  0.76073  1.0000
  H   H17       1.0  0.4588  0.24773  0.53876  1.0000
  H   H18       1.0  0.35435  0.04282  0.43955  1.0000
  H   H19       1.0  0.6461  0.3079600000000002  0.8235000000000002  1.0000
  H   H20       1.0  0.76239  0.4095900000000001  0.026960000000000008  1.0000
  H   H21       1.0  0.0039700000000000004  0.67108  0.0158  1.0000
  H   H22       1.0  0.88557  0.57416  0.81363  1.0000
  H   H23       1.0  0.7891000000000001  0.2483800000000002  0.7093400000000002  1.0000
  H   H24       1.0  0.68925  0.04349999999999996  0.60352  1.0000
  H   H25       1.0  0.33795  0.51561  0.69183  1.0000
  H   H26       1.0  0.35297  0.61742  0.59029  1.0000
  H   H27       1.0  0.33308  0.34457  0.32907  1.0000
  H   H28       1.0  0.3109600000000002  0.23927000000000012  0.4257200000000001  1.0000
  H   H29       1.0  0.5412  0.4612500000000001  0.75227  1.0000
  H   H30       1.0  0.64565  0.56046  0.95718  1.0000
  H   H31       1.0  0.82241  0.17649000000000006  0.4846800000000001  1.0000
  H   H32       1.0  0.7354800000000001  0.9729700000000001  0.38253  1.0000
  H   H33       1.0  0.9884700000000001  0.9845300000000003  0.65548  1.0000
  H   H34       1.0  0.0715900000000001  0.18656000000000006  0.7609300000000002  1.0000
  H   H35       1.0  0.07976999999999998  0.29079  0.53896  1.0000
  H   H36       1.0  0.08535999999999999  0.39646  0.43981  1.0000
  C   C1        1.0  0.04698000000000007  0.37019000000000013  0.8041100000000001  1.0000
  C   C2        1.0  0.1412400000000001  0.47808000000000006  0.86558  1.0000
  C   C3        1.0  0.18981000000000003  0.5351200000000002  0.9791500000000001  1.0000
  C   C4        1.0  0.14432000000000006  0.48692000000000013  0.03401  1.0000
  C   C5        1.0  0.04847999999999999  0.38032  0.97266  1.0000
  C   C6        1.0  0.0010000000000000135  0.32219000000000003  0.85944  1.0000
  C   C7        1.0  0.19035  0.54754  0.15415  1.0000
  C   C8        1.0  0.95492  0.4469700000000001  0.64936  1.0000
  C   C9        1.0  0.9531400000000001  0.5028600000000002  0.59111  1.0000
  C   C10       1.0  0.24283000000000005  0.19594000000000006  0.56622  1.0000
  C   C11       1.0  0.27558  0.13445000000000001  0.61262  1.0000
  C   C12       1.0  0.21062999999999998  0.020839999999999994  0.55595  1.0000
  C   C13       1.0  0.11034000000000005  0.9658400000000001  0.45277000000000006  1.0000
  C   C14       1.0  0.07573000000000003  0.027200000000000033  0.40765000000000007  1.0000
  C   C15       1.0  0.14135000000000003  0.14047000000000007  0.4629100000000001  1.0000
  C   C16       1.0  0.03641000000000009  0.8455900000000002  0.39305  1.0000
  C   C17       1.0  0.30547  0.35061000000000003  0.79756  1.0000
  C   C18       1.0  0.36183000000000015  0.40883000000000014  0.91169  1.0000
  C   C19       1.0  0.6766899999999999  0.4338400000000001  0.62971  1.0000
  C   C20       1.0  0.6630300000000003  0.3874900000000001  0.52182  1.0000
  C   C21       1.0  0.65465  0.4441500000000001  0.4649  1.0000
  C   C22       1.0  0.65743  0.54723  0.51314  1.0000
  C   C23       1.0  0.6680600000000002  0.5923200000000002  0.61964  1.0000
  C   C24       1.0  0.67864  0.53715  0.67769  1.0000
  C   C25       1.0  0.643  0.6067900000000002  0.45253  1.0000
  C   C26       1.0  0.50775  0.2020900000000001  0.5529  1.0000
  C   C27       1.0  0.45019  0.08794000000000002  0.49706  1.0000
  C   C28       1.0  0.7571699999999999  0.43378  0.80406  1.0000
  C   C29       1.0  0.72442  0.38738  0.86555  1.0000
  C   C30       1.0  0.7893700000000001  0.44406000000000007  0.9791600000000003  1.0000
  C   C31       1.0  0.88966  0.54724  0.03416  1.0000
  C   C32       1.0  0.9242700000000001  0.59235  0.97281  1.0000
  C   C33       1.0  0.85865  0.5371000000000001  0.85953  1.0000
  C   C34       1.0  0.96359  0.60695  0.15441  1.0000
  C   C35       1.0  0.69453  0.20244000000000004  0.64939  1.0000
  C   C36       1.0  0.63817  0.08830999999999999  0.59117  1.0000
  C   C37       1.0  0.3233  0.3702900000000001  0.56617  1.0000
  C   C38       1.0  0.3369700000000001  0.4781800000000001  0.6125100000000001  1.0000
  C   C39       1.0  0.34535000000000005  0.53511  0.55585  1.0000
  C   C40       1.0  0.34257000000000004  0.4868600000000002  0.45277000000000006  1.0000
  C   C41       1.0  0.3319400000000001  0.38037000000000015  0.4076800000000001  1.0000
  C   C42       1.0  0.3213599999999999  0.32232  0.4628500000000001  1.0000
  C   C43       1.0  0.357  0.54747  0.39321  1.0000
  C   C44       1.0  0.49225  0.44710000000000005  0.79791  1.0000
  C   C45       1.0  0.5498100000000001  0.5029500000000002  0.91206  1.0000
  C   C46       1.0  0.9530199999999999  0.19590000000000005  0.6298100000000001  1.0000
  C   C47       1.0  0.8587599999999997  0.13443000000000005  0.52192  1.0000
  C   C48       1.0  0.8101900000000001  0.020850000000000073  0.4648800000000001  1.0000
  C   C49       1.0  0.85568  0.9660000000000001  0.51308  1.0000
  C   C50       1.0  0.95152  0.02734000000000007  0.61968  1.0000
  C   C51       1.0  0.999  0.14056000000000005  0.67781  1.0000
  C   C52       1.0  0.8096500000000001  0.8458500000000002  0.45247  1.0000
  C   C53       1.0  0.04508000000000002  0.35065  0.55303  1.0000
  C   C54       1.0  0.04686000000000001  0.40889  0.4971400000000001  1.0000
  C   C55       1.0  0.0  0.36994  0.63007  1.0000
  C   C56       1.0  3.422816426295997e-17  0.48496000000000006  0.51504  1.0000
  C   C57       1.0  0.0  0.54627  0.45374  1.0000
  C   C58       1.0  0.37006  0.37003000000000014  0.73999  1.0000
  C   C59       1.0  0.4847900000000001  0.4849100000000002  0.9700100000000001  1.0000
  C   C60       1.0  0.54598  0.54618  0.09260000000000002  1.0000
  C   C61       1.0  0.6299399999999999  0.2600200000000001  0.62997  1.0000
  C   C62       1.0  0.5152  0.029989999999999992  0.51509  1.0000
  C   C63       1.0  0.45402000000000015  0.9074000000000002  0.45382000000000006  1.0000
  N   N1        1.0  1.7114082131479986e-17  0.31132  0.68868  1.0000
  N   N2        1.0  0.31142000000000003  0.3114000000000001  0.62274  1.0000
  N   N3        1.0  0.68858  0.37726  0.6886  1.0000
  O   O1        1.0  0.12971  0.5088  0.19669  1.0000
  O   O2        1.0  0.28691  0.64107  0.21377000000000004  1.0000
  O   O3        1.0  0.9092  0.56494  0.42389  1.0000
  O   O4        1.0  0.93335  0.8027399999999999  0.31142  1.0000
  O   O5        1.0  0.07343000000000005  0.7861800000000001  0.42722  1.0000
  O   O6        1.0  0.48523  0.57693  0.14094  1.0000
  O   O7        1.0  0.6209400000000004  0.6880100000000003  0.49107000000000006  1.0000
  O   O8        1.0  0.6462699999999999  0.5728700000000002  0.35916  1.0000
  O   O9        1.0  0.34494000000000014  0.8588100000000002  0.43607  1.0000
  O   O10       1.0  0.06665000000000003  0.68858  0.19726000000000002  1.0000
  O   O11       1.0  0.9265699999999999  0.5727800000000002  0.21382  1.0000
  O   O12       1.0  0.5147700000000001  0.85906  0.42307000000000006  1.0000
  O   O13       1.0  0.37906  0.50893  0.31199  1.0000
  O   O14       1.0  0.35372999999999993  0.64085  0.42713  1.0000
  O   O15       1.0  0.6550599999999999  0.56393  0.14119  1.0000
  O   O16       1.0  0.87029  0.80331  0.4912  1.0000
  O   O17       1.0  0.71309  0.78624  0.3589300000000001  1.0000
  O   O18       1.0  0.09079000000000004  0.57612  0.4350600000000001  1.0000
