data_image0
_chemical_formula_structural       Zn3H34C76N6O8F10
_chemical_formula_sum              "Zn3 H34 C76 N6 O8 F10"
_cell_length_a       11.6704
_cell_length_b       15.69667
_cell_length_c       21.246180000000003
_cell_angle_alpha    76.93776
_cell_angle_beta     79.27932
_cell_angle_gamma    89.70951999999998

_symmetry_space_group_name_H-M    'P 1'
_symmetry_Int_Tables_number       1

loop_
  _symmetry_equiv_pos_as_xyz
  'x,y,z'

loop_
  _atom_site_type_symbol
  _atom_site_label
  _atom_site_symmetry_multiplicity
  _atom_site_fract_x
  _atom_site_fract_y
  _atom_site_fract_z
  _atom_site_occupancy
  Zn  Zn1       1.0  0.96846  0.47877999999999976  0.5691699999999998  1.0000
  Zn  Zn2       1.0  0.03153000000000004  0.5212199999999998  0.4308299999999999  1.0000
  Zn  Zn3       1.0  0.5000000000000001  0.4999999999999999  0.0  1.0000
  H   H1        1.0  0.3183  0.3530599999999999  0.4285099999999999  1.0000
  H   H2        1.0  0.4489400000000002  0.22743000000000002  0.42437999999999987  1.0000
  H   H3        1.0  0.2640700000000001  0.09207000000000003  0.6151699999999999  1.0000
  H   H4        1.0  0.13911000000000007  0.22124999999999992  0.62047  1.0000
  H   H5        1.0  0.28540000000000004  0.98762  0.53257  1.0000
  H   H6        1.0  0.5467900000000002  0.17129999999999992  0.58756  1.0000
  H   H7        1.0  0.67421  0.29763000000000006  0.5885699999999999  1.0000
  H   H8        1.0  0.8458000000000002  0.30324000000000007  0.39098999999999995  1.0000
  H   H9        1.0  0.72428  0.17257  0.39093  1.0000
  H   H10       1.0  0.72757  0.44515999999999994  0.63853  1.0000
  H   H11       1.0  0.6036900000000003  0.45630999999999994  0.7462499999999997  1.0000
  H   H12       1.0  0.91784  0.5270299999999998  0.80542  1.0000
  H   H13       1.0  0.027360000000000058  0.5171400000000002  0.6938599999999998  1.0000
  H   H14       1.0  0.68126  0.32078  0.82505  1.0000
  H   H15       1.0  0.52388  0.2095  0.9133  1.0000
  H   H16       1.0  0.24736000000000002  0.21879  0.13959  1.0000
  H   H17       1.0  0.20587000000000003  0.3368  0.21441999999999997  1.0000
  H   H18       1.0  0.6816899999999999  0.6469399999999998  0.57149  1.0000
  H   H19       1.0  0.55106  0.77257  0.57562  1.0000
  H   H20       1.0  0.73592  0.9079299999999998  0.38482999999999995  1.0000
  H   H21       1.0  0.8608800000000001  0.7787499999999999  0.37953  1.0000
  H   H22       1.0  0.7146  0.012380000000000007  0.46743  1.0000
  H   H23       1.0  0.45320000000000005  0.8287  0.4124399999999999  1.0000
  H   H24       1.0  0.32578000000000007  0.70237  0.41142999999999996  1.0000
  H   H25       1.0  0.15419999999999998  0.69676  0.60901  1.0000
  H   H26       1.0  0.27570999999999996  0.82743  0.60907  1.0000
  H   H27       1.0  0.27242  0.55484  0.3614699999999999  1.0000
  H   H28       1.0  0.3963  0.5436899999999998  0.25375  1.0000
  H   H29       1.0  0.08215000000000001  0.4729699999999999  0.19458999999999996  1.0000
  H   H30       1.0  0.9726300000000001  0.48286999999999997  0.30614  1.0000
  H   H31       1.0  0.31874  0.67922  0.17494999999999997  1.0000
  H   H32       1.0  0.47611000000000003  0.7904999999999998  0.0867  1.0000
  H   H33       1.0  0.75264  0.7812099999999998  0.86041  1.0000
  H   H34       1.0  0.7941300000000001  0.6631999999999998  0.78558  1.0000
  C   C1        1.0  0.13994  0.36933  0.5248  1.0000
  C   C2        1.0  0.22032  0.29454999999999987  0.52459  1.0000
  C   C3        1.0  0.30837  0.29608  0.46942999999999996  1.0000
  C   C4        1.0  0.38072  0.22579000000000002  0.46719  1.0000
  C   C5        1.0  0.36487000000000014  0.15068000000000004  0.51911  1.0000
  C   C6        1.0  0.2767300000000001  0.14943999999999996  0.57437  1.0000
  C   C7        1.0  0.20642000000000002  0.22121  0.57754  1.0000
  C   C8        1.0  0.43663  0.07384999999999999  0.5123899999999999  1.0000
  C   C9        1.0  0.3802600000000001  0.99241  0.5200999999999999  1.0000
  C   C10       1.0  0.5596100000000002  0.08142999999999995  0.49238  1.0000
  C   C11       1.0  0.6279400000000003  0.16216000000000003  0.48956999999999995  1.0000
  C   C12       1.0  0.6128200000000003  0.19966999999999996  0.54463  1.0000
  C   C13       1.0  0.68303  0.27077999999999997  0.5451099999999999  1.0000
  C   C14       1.0  0.7676700000000001  0.3086499999999999  0.48975  1.0000
  C   C15       1.0  0.7806800000000004  0.27334  0.4339299999999999  1.0000
  C   C16       1.0  0.7127800000000002  0.20021999999999998  0.4341799999999999  1.0000
  C   C17       1.0  0.8459600000000002  0.383  0.49207  1.0000
  C   C18       1.0  0.7651  0.46309000000000006  0.67724  1.0000
  C   C19       1.0  0.6975200000000004  0.46900999999999987  0.7371799999999998  1.0000
  C   C20       1.0  0.7508000000000001  0.4913699999999998  0.78568  1.0000
  C   C21       1.0  0.8718700000000003  0.5093200000000001  0.7698699999999998  1.0000
  C   C22       1.0  0.9336400000000002  0.50296  0.7084499999999999  1.0000
  C   C23       1.0  0.67994  0.49410999999999977  0.85109  1.0000
  C   C24       1.0  0.61611  0.41675  0.88691  1.0000
  C   C25       1.0  0.6223400000000001  0.3341100000000001  0.8672099999999998  1.0000
  C   C26       1.0  0.54318  0.27721000000000007  0.91249  1.0000
  C   C27       1.0  0.49004999999999993  0.32381  0.96114  1.0000
  C   C28       1.0  0.40388000000000013  0.28796  0.01636  1.0000
  C   C29       1.0  0.3537800000000001  0.19932  0.01961  1.0000
  C   C30       1.0  0.25180000000000013  0.1915100000000001  0.9951699999999998  1.0000
  C   C31       1.0  0.20143000000000005  0.11027  0.9973599999999999  1.0000
  C   C32       1.0  0.25471  0.03399  0.023349999999999992  1.0000
  C   C33       1.0  0.35792  0.03941  0.04675  1.0000
  C   C34       1.0  0.40509  0.12166999999999997  0.04533999999999999  1.0000
  C   C35       1.0  0.35744  0.32877  0.06745999999999999  1.0000
  C   C36       1.0  0.27918000000000004  0.2863499999999999  0.12736999999999998  1.0000
  C   C37       1.0  0.25781  0.34648  0.16532  1.0000
  C   C38       1.0  0.67912  0.57325  0.87186  1.0000
  C   C39       1.0  0.8600500000000003  0.63067  0.4751899999999999  1.0000
  C   C40       1.0  0.7796700000000001  0.7054600000000001  0.47540999999999994  1.0000
  C   C41       1.0  0.69162  0.70392  0.53057  1.0000
  C   C42       1.0  0.6192699999999999  0.77422  0.5328199999999998  1.0000
  C   C43       1.0  0.63512  0.8493199999999997  0.48088999999999993  1.0000
  C   C44       1.0  0.72326  0.8505599999999998  0.4256299999999999  1.0000
  C   C45       1.0  0.7935800000000002  0.7787899999999998  0.42246  1.0000
  C   C46       1.0  0.5633600000000001  0.92615  0.48761  1.0000
  C   C47       1.0  0.61973  0.0075999999999999965  0.4799  1.0000
  C   C48       1.0  0.44038  0.91857  0.5076199999999998  1.0000
  C   C49       1.0  0.37205000000000005  0.83784  0.5104299999999999  1.0000
  C   C50       1.0  0.38718  0.80033  0.45537  1.0000
  C   C51       1.0  0.31696  0.7292199999999998  0.45489  1.0000
  C   C52       1.0  0.23233000000000006  0.6913599999999999  0.5102599999999999  1.0000
  C   C53       1.0  0.21932  0.7266599999999998  0.5660799999999999  1.0000
  C   C54       1.0  0.28722  0.79978  0.56582  1.0000
  C   C55       1.0  0.15404000000000007  0.61701  0.50792  1.0000
  C   C56       1.0  0.23489  0.53692  0.32276  1.0000
  C   C57       1.0  0.3024700000000001  0.5310000000000001  0.26282  1.0000
  C   C58       1.0  0.24919000000000002  0.50863  0.21431999999999998  1.0000
  C   C59       1.0  0.12812000000000007  0.49068  0.23013  1.0000
  C   C60       1.0  0.06634999999999999  0.49705  0.29155  1.0000
  C   C61       1.0  0.32005  0.50589  0.14892  1.0000
  C   C62       1.0  0.38388  0.5832600000000001  0.11308999999999998  1.0000
  C   C63       1.0  0.37765000000000004  0.6659  0.13279  1.0000
  C   C64       1.0  0.4568100000000001  0.72279  0.08751  1.0000
  C   C65       1.0  0.50994  0.6761999999999998  0.03886  1.0000
  C   C66       1.0  0.5961200000000002  0.7120500000000001  0.9836399999999997  1.0000
  C   C67       1.0  0.64622  0.80069  0.98039  1.0000
  C   C68       1.0  0.7481900000000001  0.8084999999999998  0.004829999999999999  1.0000
  C   C69       1.0  0.79857  0.8897299999999998  0.00265  1.0000
  C   C70       1.0  0.7452800000000002  0.9660199999999999  0.9766499999999999  1.0000
  C   C71       1.0  0.6420700000000003  0.9605999999999996  0.9532499999999998  1.0000
  C   C72       1.0  0.5949000000000002  0.87834  0.95466  1.0000
  C   C73       1.0  0.64255  0.6712399999999998  0.9325399999999999  1.0000
  C   C74       1.0  0.7208200000000001  0.71366  0.8726299999999998  1.0000
  C   C75       1.0  0.74219  0.65353  0.83468  1.0000
  C   C76       1.0  0.32087  0.42675  0.12813999999999998  1.0000
  N   N1        1.0  0.8815400000000002  0.47912000000000005  0.6632399999999999  1.0000
  N   N2        1.0  0.53699  0.4082  0.9452799999999999  1.0000
  N   N3        1.0  0.38255  0.4139099999999999  0.06909999999999998  1.0000
  N   N4        1.0  0.11845000000000007  0.52088  0.33676  1.0000
  N   N5        1.0  0.463  0.5918  0.054719999999999984  1.0000
  N   N6        1.0  0.6174500000000002  0.58609  0.9309  1.0000
  O   O1        1.0  0.07970000000000002  0.37692  0.57988  1.0000
  O   O2        1.0  0.13688  0.41969000000000006  0.46897  1.0000
  O   O3        1.0  0.90283  0.42813  0.43751999999999996  1.0000
  O   O4        1.0  0.8510200000000001  0.39417  0.5491399999999999  1.0000
  O   O5        1.0  0.9202900000000002  0.62308  0.42011999999999994  1.0000
  O   O6        1.0  0.86312  0.5803  0.5310199999999999  1.0000
  O   O7        1.0  0.09715999999999998  0.57187  0.56248  1.0000
  O   O8        1.0  0.14897  0.60584  0.45087  1.0000
  F   F1        1.0  0.19987000000000002  0.2641200000000001  0.96827  1.0000
  F   F2        1.0  0.10252000000000004  0.10402000000000004  0.9744899999999999  1.0000
  F   F3        1.0  0.20574000000000003  0.95599  0.02542  1.0000
  F   F4        1.0  0.4114500000000001  0.96546  0.0699  1.0000
  F   F5        1.0  0.50322  0.12546  0.06981  1.0000
  F   F6        1.0  0.80012  0.7358799999999998  0.03173  1.0000
  F   F7        1.0  0.89747  0.89599  0.025509999999999998  1.0000
  F   F8        1.0  0.7942500000000001  0.04401000000000007  0.9745799999999998  1.0000
  F   F9        1.0  0.5885400000000002  0.03453999999999993  0.9301  1.0000
  F   F10       1.0  0.4967700000000001  0.8745499999999998  0.9301899999999997  1.0000
