data_image0
_chemical_formula_structural       Ag4H32C36S20N8
_chemical_formula_sum              "Ag4 H32 C36 S20 N8"
_cell_length_a       10.63866
_cell_length_b       10.42216
_cell_length_c       14.391969999999999
_cell_angle_alpha    77.13574
_cell_angle_beta     75.88261
_cell_angle_gamma    80.48133

_symmetry_space_group_name_H-M    'P 1'
_symmetry_Int_Tables_number       1

loop_
  _symmetry_equiv_pos_as_xyz
  'x,y,z'

loop_
  _atom_site_type_symbol
  _atom_site_label
  _atom_site_symmetry_multiplicity
  _atom_site_fract_x
  _atom_site_fract_y
  _atom_site_fract_z
  _atom_site_occupancy
  Ag  Ag1       1.0  0.4341600000000001  0.13215000000000005  0.9846499999999998  1.0000
  Ag  Ag2       1.0  0.23827000000000012  0.23613  0.5389  1.0000
  Ag  Ag3       1.0  0.53607  0.86423  0.01941  1.0000
  Ag  Ag4       1.0  0.8669899999999999  0.7842200000000001  0.41339  1.0000
  H   H1        1.0  0.29873  0.25715  0.71591  1.0000
  H   H2        1.0  0.23506000000000002  0.18913  0.84126  1.0000
  H   H3        1.0  0.20639  0.43722999999999995  0.81231  1.0000
  H   H4        1.0  0.05271000000000004  0.37711999999999996  0.84743  1.0000
  H   H5        1.0  0.9834599999999998  0.72774  0.7624799999999999  1.0000
  H   H6        1.0  0.14840999999999993  0.7118300000000001  0.69919  1.0000
  H   H7        1.0  0.12057999999999999  0.95901  0.61999  1.0000
  H   H8        1.0  0.9535399999999999  0.96733  0.6801099999999998  1.0000
  H   H9        1.0  0.50455  0.9859900000000001  0.6583199999999999  1.0000
  H   H10       1.0  0.37398000000000003  0.9032900000000001  0.73858  1.0000
  H   H11       1.0  0.45912999999999987  0.70033  0.6569799999999999  1.0000
  H   H12       1.0  0.58343  0.78942  0.577  1.0000
  H   H13       1.0  0.79705  0.31454  0.71788  1.0000
  H   H14       1.0  0.90687  0.40142000000000005  0.62151  1.0000
  H   H15       1.0  0.6103600000000001  0.4047200000000001  0.63352  1.0000
  H   H16       1.0  0.74561  0.32919000000000004  0.55466  1.0000
  H   H17       1.0  0.6913699999999998  0.7160299999999999  0.2625  1.0000
  H   H18       1.0  0.73948  0.78899  0.13726  1.0000
  H   H19       1.0  0.8211800000000001  0.54887  0.16774999999999995  1.0000
  H   H20       1.0  0.9517999999999999  0.64576  0.1219  1.0000
  H   H21       1.0  0.99606  0.30527  0.21877  1.0000
  H   H22       1.0  0.8394399999999999  0.3073199999999999  0.29749  1.0000
  H   H23       1.0  0.92384  0.04170999999999999  0.34585  1.0000
  H   H24       1.0  0.07839999999999998  0.10183999999999999  0.30814  1.0000
  H   H25       1.0  0.45709  0.98838  0.32951  1.0000
  H   H26       1.0  0.59014  0.061190000000000015  0.2426  1.0000
  H   H27       1.0  0.55918  0.24292000000000002  0.3425999999999999  1.0000
  H   H28       1.0  0.43342  0.16234  0.43126  1.0000
  H   H29       1.0  0.18239999999999998  0.63645  0.3362  1.0000
  H   H30       1.0  0.13597999999999996  0.54771  0.45686  1.0000
  H   H31       1.0  0.41248  0.62936  0.36451  1.0000
  H   H32       1.0  0.28765  0.72284  0.43531999999999993  1.0000
  C   C1        1.0  0.79403  0.047160000000000056  0.9765899999999998  1.0000
  C   C2        1.0  0.009129999999999987  0.08420000000000005  0.83995  1.0000
  C   C3        1.0  0.004370000000000052  0.9489099999999999  0.86536  1.0000
  C   C4        1.0  0.20944  0.247  0.77346  1.0000
  C   C5        1.0  0.14118  0.38498  0.78871  1.0000
  C   C6        1.0  0.10554000000000002  0.46487000000000006  0.70061  1.0000
  C   C7        1.0  0.06875000000000003  0.78159  0.73022  1.0000
  C   C8        1.0  0.037620000000000084  0.90008  0.6503699999999998  1.0000
  C   C9        1.0  0.006899999999999986  0.8574300000000001  0.57023  1.0000
  C   C10       1.0  0.4151999999999999  0.4573499999999999  0.90522  1.0000
  C   C11       1.0  0.54579  0.6556300000000003  0.81513  1.0000
  C   C12       1.0  0.6259  0.54511  0.7902699999999999  1.0000
  C   C13       1.0  0.4733600000000001  0.8884800000000002  0.6947499999999998  1.0000
  C   C14       1.0  0.483  0.80059  0.62013  1.0000
  C   C15       1.0  0.39718  0.85195  0.55261  1.0000
  C   C16       1.0  0.8050399999999999  0.40568  0.66225  1.0000
  C   C17       1.0  0.71215  0.41277  0.59371  1.0000
  C   C18       1.0  0.7121000000000001  0.53533  0.52282  1.0000
  C   C19       1.0  0.17651  0.96294  0.0243  1.0000
  C   C20       1.0  0.9613999999999999  0.93346  0.15791  1.0000
  C   C21       1.0  0.9674000000000001  0.06784000000000001  0.1333  1.0000
  C   C22       1.0  0.77562  0.74327  0.20357  1.0000
  C   C23       1.0  0.8730400000000003  0.62007  0.18601  1.0000
  C   C24       1.0  0.9282199999999998  0.55936  0.27036  1.0000
  C   C25       1.0  0.91941  0.24342  0.2602  1.0000
  C   C26       1.0  0.97364  0.13019000000000008  0.33490999999999993  1.0000
  C   C27       1.0  0.9533000000000001  0.16401  0.4305  1.0000
  C   C28       1.0  0.55856  0.5368  0.10165999999999999  1.0000
  C   C29       1.0  0.4310800000000001  0.33742  0.19542999999999994  1.0000
  C   C30       1.0  0.37044000000000005  0.44054  0.24339999999999995  1.0000
  C   C31       1.0  0.49980999999999987  0.08122000000000001  0.29587  1.0000
  C   C32       1.0  0.5249900000000001  0.14534999999999998  0.37481  1.0000
  C   C33       1.0  0.6211  0.061329999999999996  0.4237  1.0000
  C   C34       1.0  0.21876000000000004  0.5642299999999999  0.39469  1.0000
  C   C35       1.0  0.32492  0.6209100000000002  0.42389999999999994  1.0000
  C   C36       1.0  0.36756  0.55081  0.51233  1.0000
  S   S1        1.0  0.8652900000000001  0.8943  0.9484899999999998  1.0000
  S   S2        1.0  0.87871  0.17847000000000002  0.9038299999999999  1.0000
  S   S3        1.0  0.64632  0.061549999999999994  0.0536  1.0000
  S   S4        1.0  0.11536999999999996  0.15282999999999997  0.72818  1.0000
  S   S5        1.0  0.12834000000000007  0.8284200000000003  0.8254899999999997  1.0000
  S   S6        1.0  0.5651  0.39274  0.8428399999999998  1.0000
  S   S7        1.0  0.3966499999999999  0.62618  0.8970999999999999  1.0000
  S   S8        1.0  0.3039799999999999  0.35821000000000003  0.97489  1.0000
  S   S9        1.0  0.58813  0.81728  0.77477  1.0000
  S   S10       1.0  0.78419  0.55001  0.71921  1.0000
  S   S11       1.0  0.1078  0.11938000000000001  0.05036  1.0000
  S   S12       1.0  0.09325000000000001  0.83386  0.10120999999999998  1.0000
  S   S13       1.0  0.32374000000000014  0.9413500000000001  0.9487799999999997  1.0000
  S   S14       1.0  0.8285399999999999  0.87215  0.24678  1.0000
  S   S15       1.0  0.8441999999999998  0.18739000000000003  0.17671  1.0000
  S   S16       1.0  0.42815999999999993  0.59419  0.18907  1.0000
  S   S17       1.0  0.56174  0.37394000000000005  0.09717  1.0000
  S   S18       1.0  0.6656799999999999  0.63739  0.026679999999999995  1.0000
  S   S19       1.0  0.37756999999999996  0.18070000000000003  0.23062999999999997  1.0000
  S   S20       1.0  0.2616800000000002  0.4040500000000001  0.35747999999999996  1.0000
  N   N1        1.0  0.07683000000000002  0.53015  0.6301  1.0000
  N   N2        1.0  0.98407  0.8206200000000001  0.50615  1.0000
  N   N3        1.0  0.32889999999999997  0.8931600000000001  0.4975499999999999  1.0000
  N   N4        1.0  0.71252  0.63593  0.46735  1.0000
  N   N5        1.0  0.96729  0.51478  0.3413  1.0000
  N   N6        1.0  0.9320400000000001  0.18873  0.50849  1.0000
  N   N7        1.0  0.69601  0.98884  0.46374  1.0000
  N   N8        1.0  0.40652  0.50401  0.58306  1.0000
