data_image0
_chemical_formula_structural       Ni8H40C58N6O34
_chemical_formula_sum              "Ni8 H40 C58 N6 O34"
_cell_length_a       11.35231
_cell_length_b       13.21295
_cell_length_c       13.01434
_cell_angle_alpha    66.43571
_cell_angle_beta     87.28609
_cell_angle_gamma    80.23703

_space_group_name_H-M_alt    "P 1"
_space_group_IT_number       1

loop_
  _space_group_symop_operation_xyz
  'x, y, z'

loop_
  _atom_site_type_symbol
  _atom_site_label
  _atom_site_symmetry_multiplicity
  _atom_site_fract_x
  _atom_site_fract_y
  _atom_site_fract_z
  _atom_site_occupancy
  Ni  Ni1       1.0  0.18941  0.22403  0.18961  1.0000
  Ni  Ni2       1.0  0.49687000000000003  0.14909999999999998  0.84067  1.0000
  Ni  Ni3       1.0  0.81374  0.12852000000000002  0.15969  1.0000
  Ni  Ni4       1.0  0.79881  0.7808899999999999  0.07966  1.0000
  Ni  Ni5       1.0  0.8127000000000001  0.77448  0.81089  1.0000
  Ni  Ni6       1.0  0.50672  0.84666  0.16094000000000003  1.0000
  Ni  Ni7       1.0  0.18723999999999996  0.8678300000000001  0.84061  1.0000
  Ni  Ni8       1.0  0.20479000000000006  0.21380999999999994  0.9241100000000002  1.0000
  H   H1        1.0  0.29864000000000007  0.12720999999999988  0.7783100000000002  1.0000
  H   H2        1.0  0.32464  0.03293999999999996  0.9201000000000003  1.0000
  H   H3        1.0  0.22483999999999998  0.94  0.27533  1.0000
  H   H4        1.0  0.3703500000000001  0.9298599999999998  0.32689000000000007  1.0000
  H   H5        1.0  0.11104000000000003  0.07464  0.44893  1.0000
  H   H6        1.0  0.13420000000000004  0.94863  0.42779000000000006  1.0000
  H   H7        1.0  0.62119  0.3362699999999999  0.9245500000000002  1.0000
  H   H8        1.0  0.76631  0.33336999999999994  0.8732400000000001  1.0000
  H   H9        1.0  0.89416  0.35719999999999996  0.10068000000000003  1.0000
  H   H10       1.0  0.86387  0.4222499999999999  0.95265  1.0000
  H   H11       1.0  0.53095  0.26269  0.09897  1.0000
  H   H12       1.0  0.4705100000000001  0.07963  0.2682  1.0000
  H   H13       1.0  0.22568  0.10882999999999998  0.5258100000000001  1.0000
  H   H14       1.0  0.5784800000000001  0.19175999999999993  0.5074500000000001  1.0000
  H   H15       1.0  0.7678900000000002  0.4931  0.07933  1.0000
  H   H16       1.0  0.42196  0.51941  0.22224000000000002  1.0000
  H   H17       1.0  0.7911400000000001  0.50746  0.48239  1.0000
  H   H18       1.0  0.13631  0.60856  0.3775800000000001  1.0000
  H   H19       1.0  0.70943  0.64633  0.30099000000000004  1.0000
  H   H20       1.0  0.03904000000000001  0.74293  0.19867000000000007  1.0000
  H   H21       1.0  0.70412  0.87027  0.22328  1.0000
  H   H22       1.0  0.6775  0.96338  0.07934  1.0000
  H   H23       1.0  0.77625  0.05571999999999997  0.7278900000000001  1.0000
  H   H24       1.0  0.63058  0.06614999999999999  0.6765700000000001  1.0000
  H   H25       1.0  0.89032  0.92223  0.5533500000000001  1.0000
  H   H26       1.0  0.86637  0.04828999999999996  0.5744400000000001  1.0000
  H   H27       1.0  0.38244  0.66052  0.07507  1.0000
  H   H28       1.0  0.23718999999999996  0.6656  0.12601  1.0000
  H   H29       1.0  0.10765000000000012  0.6395  0.90092  1.0000
  H   H30       1.0  0.1409  0.57296  0.04846000000000002  1.0000
  H   H31       1.0  0.4721600000000001  0.73386  0.8999800000000001  1.0000
  H   H32       1.0  0.5296500000000001  0.9164099999999998  0.7334900000000002  1.0000
  H   H33       1.0  0.7762300000000001  0.88865  0.4763900000000001  1.0000
  H   H34       1.0  0.424  0.80504  0.4927800000000001  1.0000
  H   H35       1.0  0.23447999999999997  0.50341  0.9211300000000001  1.0000
  H   H36       1.0  0.5795300000000001  0.4761000000000001  0.77759  1.0000
  H   H37       1.0  0.21047  0.48865999999999987  0.5203100000000002  1.0000
  H   H38       1.0  0.8642400000000002  0.39085  0.62655  1.0000
  H   H39       1.0  0.29225  0.34871000000000013  0.70116  1.0000
  H   H40       1.0  0.9617900000000003  0.25477  0.80452  1.0000
  C   C1        1.0  0.38376  0.15984999999999994  0.63579  1.0000
  C   C2        1.0  0.39902  0.15222  0.52557  1.0000
  C   C3        1.0  0.50972  0.16400999999999996  0.47471  1.0000
  C   C4        1.0  0.53499  0.13537  0.38312  1.0000
  C   C5        1.0  0.4469  0.10055000000000001  0.33992  1.0000
  C   C6        1.0  0.33243  0.09521999999999999  0.38605000000000006  1.0000
  C   C7        1.0  0.30891000000000013  0.11929000000000003  0.481  1.0000
  C   C8        1.0  0.65816  0.14125  0.33364000000000005  1.0000
  C   C9        1.0  0.12841000000000002  0.039679999999999965  0.38513000000000003  1.0000
  C   C10       1.0  0.024440000000000003  0.09616999999999998  0.29889000000000004  1.0000
  C   C11       1.0  0.29420000000000013  0.98818  0.27668  1.0000
  C   C12       1.0  0.32706  0.04596999999999999  0.15399000000000002  1.0000
  C   C13       1.0  0.34459999999999996  0.35495  0.18014  1.0000
  C   C14       1.0  0.6197  0.627  0.14557000000000003  1.0000
  C   C15       1.0  0.48929000000000006  0.47877  0.18288  1.0000
  C   C16       1.0  0.59781  0.51711  0.14919  1.0000
  C   C17       1.0  0.6863000000000002  0.45838  0.10537  1.0000
  C   C18       1.0  0.66545  0.36374000000000006  0.09115000000000002  1.0000
  C   C19       1.0  0.55244  0.33258  0.11413  1.0000
  C   C20       1.0  0.46511000000000013  0.38934  0.16034  1.0000
  C   C21       1.0  0.87033  0.3431699999999999  0.027330000000000007  1.0000
  C   C22       1.0  0.9711400000000002  0.25792  0.015380000000000001  1.0000
  C   C23       1.0  0.71273  0.29091000000000006  0.94523  1.0000
  C   C24       1.0  0.70689  0.17425  0.95273  1.0000
  C   C25       1.0  0.9736700000000001  0.54152  0.4478600000000001  1.0000
  C   C26       1.0  0.80416  0.63418  0.32019  1.0000
  C   C27       1.0  0.85137  0.5561799999999998  0.42307000000000006  1.0000
  C   C28       1.0  0.98778  0.6881799999999999  0.26378  1.0000
  C   C29       1.0  0.04148000000000001  0.6120900000000001  0.36519  1.0000
  C   C30       1.0  0.6185399999999999  0.83837  0.3649500000000001  1.0000
  C   C31       1.0  0.60316  0.84524  0.47547000000000006  1.0000
  C   C32       1.0  0.4923  0.83289  0.52596  1.0000
  C   C33       1.0  0.4661  0.8612  0.61759  1.0000
  C   C34       1.0  0.55378  0.8959800000000001  0.66153  1.0000
  C   C35       1.0  0.66858  0.90144  0.616  1.0000
  C   C36       1.0  0.69278  0.87793  0.5208  1.0000
  C   C37       1.0  0.34237  0.85532  0.66613  1.0000
  C   C38       1.0  0.87253  0.95726  0.61708  1.0000
  C   C39       1.0  0.9768900000000003  0.9021199999999999  0.7029700000000001  1.0000
  C   C40       1.0  0.7068200000000001  0.0076399999999999975  0.72652  1.0000
  C   C41       1.0  0.6742900000000002  0.9495100000000001  0.84941  1.0000
  C   C42       1.0  0.6584300000000002  0.64039  0.81911  1.0000
  C   C43       1.0  0.38347000000000003  0.36848999999999993  0.85617  1.0000
  C   C44       1.0  0.51278  0.5175  0.81674  1.0000
  C   C45       1.0  0.4044400000000001  0.47911  0.85115  1.0000
  C   C46       1.0  0.31609  0.53804  0.8948100000000001  1.0000
  C   C47       1.0  0.33720000000000006  0.6329  0.9084500000000001  1.0000
  C   C48       1.0  0.4501800000000001  0.66415  0.88483  1.0000
  C   C49       1.0  0.5372700000000002  0.6072  0.83869  1.0000
  C   C50       1.0  0.13306000000000007  0.6526499999999998  0.9743100000000002  1.0000
  C   C51       1.0  0.03331999999999999  0.7375  0.98857  1.0000
  C   C52       1.0  0.29123  0.70656  0.05381  1.0000
  C   C53       1.0  0.29835000000000006  0.8234699999999999  0.044510000000000015  1.0000
  C   C54       1.0  0.027440000000000003  0.45626  0.5555700000000001  1.0000
  C   C55       1.0  0.19728  0.36178  0.68247  1.0000
  C   C56       1.0  0.15003  0.44048  0.57986  1.0000
  C   C57       1.0  0.01327000000000001  0.30932999999999994  0.7394900000000001  1.0000
  C   C58       1.0  0.95938  0.38626000000000005  0.63848  1.0000
  N   N1        1.0  0.24279000000000003  0.06921000000000001  0.32806  1.0000
  N   N2        1.0  0.7560200000000002  0.2994599999999999  0.048240000000000005  1.0000
  N   N3        1.0  0.871  0.6983399999999998  0.23997  1.0000
  N   N4        1.0  0.75826  0.92725  0.67436  1.0000
  N   N5        1.0  0.24703000000000003  0.69699  0.9517600000000003  1.0000
  N   N6        1.0  0.13038000000000002  0.29790999999999995  0.7628600000000002  1.0000
  O   O1        1.0  0.4709900000000001  0.18201  0.6776  1.0000
  O   O2        1.0  0.28468  0.13906999999999994  0.6860100000000001  1.0000
  O   O3        1.0  0.73266  0.178  0.37057  1.0000
  O   O4        1.0  0.6729999999999999  0.10601999999999999  0.25283000000000005  1.0000
  O   O5        1.0  0.42273000000000005  0.01447999999999999  0.11440000000000003  1.0000
  O   O6        1.0  0.2448  0.12764  0.09628  1.0000
  O   O7        1.0  0.9409600000000002  0.04543000000000001  0.29696  1.0000
  O   O8        1.0  0.029230000000000003  0.19863999999999998  0.23317000000000004  1.0000
  O   O9        1.0  0.33254  0.28137  0.13997  1.0000
  O   O10       1.0  0.26249000000000017  0.39341999999999994  0.22892  1.0000
  O   O11       1.0  0.54138  0.6825  0.18554000000000007  1.0000
  O   O12       1.0  0.71653  0.65629  0.09944000000000001  1.0000
  O   O13       1.0  0.95748  0.15671000000000004  0.0466  1.0000
  O   O14       1.0  0.06524  0.29844  0.97389  1.0000
  O   O15       1.0  0.73151  0.09109  0.04684  1.0000
  O   O16       1.0  0.67299  0.1671999999999999  0.8646600000000001  1.0000
  O   O17       1.0  0.32907  0.11349999999999988  0.8752500000000002  1.0000
  O   O18       1.0  0.53052  0.81789  0.32259  1.0000
  O   O19       1.0  0.7184  0.85783  0.31529000000000007  1.0000
  O   O20       1.0  0.26811000000000007  0.8180399999999999  0.62937  1.0000
  O   O21       1.0  0.32687000000000005  0.8913  0.7462300000000001  1.0000
  O   O22       1.0  0.5791299999999999  0.98192  0.8893200000000001  1.0000
  O   O23       1.0  0.75583  0.86712  0.90693  1.0000
  O   O24       1.0  0.05943  0.9542499999999999  0.7036000000000002  1.0000
  O   O25       1.0  0.9736700000000001  0.79959  0.7700300000000002  1.0000
  O   O26       1.0  0.6720899999999999  0.7131799999999999  0.86002  1.0000
  O   O27       1.0  0.73894  0.6009100000000003  0.77014  1.0000
  O   O28       1.0  0.46389000000000014  0.3119100000000001  0.81918  1.0000
  O   O29       1.0  0.28581  0.33977999999999997  0.90054  1.0000
  O   O30       1.0  0.04773999999999998  0.8384600000000001  0.95807  1.0000
  O   O31       1.0  0.9397200000000001  0.69687  0.031230000000000004  1.0000
  O   O32       1.0  0.27376999999999996  0.90595  0.9500600000000001  1.0000
  O   O33       1.0  0.33298000000000005  0.8316500000000001  0.13165  1.0000
  O   O34       1.0  0.6731600000000002  0.8831999999999999  0.12568  1.0000
