data_image0
_chemical_formula_structural       Cu6H24C78N6O36
_chemical_formula_sum              "Cu6 H24 C78 N6 O36"
_cell_length_a       18.9829
_cell_length_b       18.99132
_cell_length_c       19.959359999999997
_cell_angle_alpha    61.796549999999996
_cell_angle_beta     61.84244
_cell_angle_gamma    59.695709999999984

_symmetry_space_group_name_H-M    'P 1'
_symmetry_Int_Tables_number       1

loop_
  _symmetry_equiv_pos_as_xyz
  'x,y,z'

loop_
  _atom_site_type_symbol
  _atom_site_label
  _atom_site_symmetry_multiplicity
  _atom_site_fract_x
  _atom_site_fract_y
  _atom_site_fract_z
  _atom_site_occupancy
  Cu  Cu1       1.0  0.5007299999999999  0.93856  0.06102  1.0000
  Cu  Cu2       1.0  0.5002900000000001  0.50017  0.06119000000000001  1.0000
  Cu  Cu3       1.0  0.9386  0.5006499999999998  0.06101  1.0000
  Cu  Cu4       1.0  0.49927000000000005  0.061439999999999995  0.93898  1.0000
  Cu  Cu5       1.0  0.06140000000000001  0.49935  0.93899  1.0000
  Cu  Cu6       1.0  0.49971  0.49983  0.93881  1.0000
  H   H1        1.0  0.53499  0.016319999999999994  0.20567  1.0000
  H   H2        1.0  0.24385000000000004  0.53477  0.20657  1.0000
  H   H3        1.0  0.014949999999999996  0.24389  0.20653  1.0000
  H   H4        1.0  0.7561000000000002  0.9851999999999999  0.79333  1.0000
  H   H5        1.0  0.9836700000000002  0.46502  0.79441  1.0000
  H   H6        1.0  0.4652200000000001  0.75623  0.79348  1.0000
  H   H7        1.0  0.4650199999999997  0.98368  0.79433  1.0000
  H   H8        1.0  0.75615  0.46523000000000003  0.79343  1.0000
  H   H9        1.0  0.9850599999999999  0.75611  0.79347  1.0000
  H   H10       1.0  0.24390000000000003  0.014799999999999983  0.20667  1.0000
  H   H11       1.0  0.016340000000000115  0.5349799999999998  0.20559  1.0000
  H   H12       1.0  0.53478  0.24376  0.20651  1.0000
  H   H13       1.0  0.5282300000000002  0.23821999999999993  0.99671  1.0000
  H   H14       1.0  0.23811000000000002  0.52823  0.99682  1.0000
  H   H15       1.0  0.23681000000000005  0.23692  0.998  1.0000
  H   H16       1.0  0.7632  0.76308  0.002  1.0000
  H   H17       1.0  0.76189  0.47176  0.00318  1.0000
  H   H18       1.0  0.47177  0.76178  0.00329  1.0000
  H   H19       1.0  0.5003499999999999  0.86657  0.49881  1.0000
  H   H20       1.0  0.13343000000000005  0.4996299999999999  0.5013300000000002  1.0000
  H   H21       1.0  0.86546  0.13465999999999997  0.49986  1.0000
  H   H22       1.0  0.49965000000000026  0.13343  0.50119  1.0000
  H   H23       1.0  0.86658  0.50037  0.49867  1.0000
  H   H24       1.0  0.13454999999999995  0.8653400000000001  0.50014  1.0000
  C   C1        1.0  0.5323899999999999  0.12211999999999999  0.09754  1.0000
  C   C2        1.0  0.53494  0.08104  0.17644  1.0000
  C   C3        1.0  0.52551  0.07604  0.05861  1.0000
  C   C4        1.0  0.5264700000000001  0.0018999999999999935  0.34715  1.0000
  C   C5        1.0  0.51308  0.99184  0.43027000000000004  1.0000
  C   C6        1.0  0.24868000000000015  0.5324299999999997  0.09806  1.0000
  C   C7        1.0  0.20849  0.53485  0.17696  1.0000
  C   C8        1.0  0.34025999999999995  0.52578  0.05923  1.0000
  C   C9        1.0  0.12526  0.52604  0.34805  1.0000
  C   C10       1.0  0.06522000000000001  0.51288  0.43086  1.0000
  C   C11       1.0  0.12086  0.24815999999999996  0.09865  1.0000
  C   C12       1.0  0.07991  0.20811  0.17729  1.0000
  C   C13       1.0  0.07477  0.34014999999999995  0.05978  1.0000
  C   C14       1.0  0.0010199999999999695  0.12523999999999996  0.34785000000000005  1.0000
  C   C15       1.0  0.9913000000000001  0.06525000000000002  0.43069  1.0000
  C   C16       1.0  0.75182  0.8792099999999999  0.90129  1.0000
  C   C17       1.0  0.7918500000000005  0.9201899999999995  0.82264  1.0000
  C   C18       1.0  0.6598699999999998  0.9253  0.94015  1.0000
  C   C19       1.0  0.8748199999999999  0.9990299999999999  0.65202  1.0000
  C   C20       1.0  0.9348000000000001  0.00871  0.56923  1.0000
  C   C21       1.0  0.8779100000000004  0.4675999999999998  0.90241  1.0000
  C   C22       1.0  0.9189500000000004  0.46506  0.82356  1.0000
  C   C23       1.0  0.9239800000000002  0.47452000000000005  0.94135  1.0000
  C   C24       1.0  0.9981100000000003  0.47352999999999995  0.65293  1.0000
  C   C25       1.0  0.008170000000000082  0.4869199999999999  0.56978  1.0000
  C   C26       1.0  0.46756000000000003  0.7513199999999999  0.90204  1.0000
  C   C27       1.0  0.46514  0.7915499999999996  0.82311  1.0000
  C   C28       1.0  0.47421  0.6597299999999999  0.94087  1.0000
  C   C29       1.0  0.4739300000000003  0.8747399999999996  0.65201  1.0000
  C   C30       1.0  0.48711000000000004  0.93478  0.56917  1.0000
  C   C31       1.0  0.4676200000000003  0.8778799999999999  0.90245  1.0000
  C   C32       1.0  0.4650700000000001  0.91896  0.82356  1.0000
  C   C33       1.0  0.4744999999999997  0.92396  0.94139  1.0000
  C   C34       1.0  0.47353  0.9980999999999999  0.65285  1.0000
  C   C35       1.0  0.4869200000000001  0.00815  0.56973  1.0000
  C   C36       1.0  0.7513300000000003  0.4675599999999999  0.9019400000000002  1.0000
  C   C37       1.0  0.7915100000000003  0.4651499999999998  0.82304  1.0000
  C   C38       1.0  0.6597500000000001  0.47422  0.94077  1.0000
  C   C39       1.0  0.8747400000000001  0.47395  0.65195  1.0000
  C   C40       1.0  0.9347800000000002  0.48712  0.56914  1.0000
  C   C41       1.0  0.8791499999999999  0.7518300000000001  0.90135  1.0000
  C   C42       1.0  0.9200899999999999  0.7918899999999999  0.82271  1.0000
  C   C43       1.0  0.9252400000000001  0.65985  0.94022  1.0000
  C   C44       1.0  0.9989800000000002  0.87475  0.65215  1.0000
  C   C45       1.0  0.008699999999999965  0.9347499999999999  0.56931  1.0000
  C   C46       1.0  0.24818  0.12078999999999994  0.09871  1.0000
  C   C47       1.0  0.20816  0.0798  0.17736  1.0000
  C   C48       1.0  0.34014000000000005  0.0747  0.05985  1.0000
  C   C49       1.0  0.12518000000000004  0.0009699999999999997  0.34798  1.0000
  C   C50       1.0  0.06521000000000002  0.99128  0.43077  1.0000
  C   C51       1.0  0.12210000000000001  0.53239  0.09758  1.0000
  C   C52       1.0  0.08105999999999997  0.53493  0.17644  1.0000
  C   C53       1.0  0.07602000000000003  0.52548  0.05865  1.0000
  C   C54       1.0  0.0019000000000000275  0.52647  0.34706  1.0000
  C   C55       1.0  0.99184  0.51307  0.43022  1.0000
  C   C56       1.0  0.53244  0.24867999999999998  0.09796  1.0000
  C   C57       1.0  0.53487  0.20845000000000002  0.17689  1.0000
  C   C58       1.0  0.5257900000000001  0.34025999999999995  0.05913  1.0000
  C   C59       1.0  0.5260800000000001  0.12525  0.34799  1.0000
  C   C60       1.0  0.5129000000000002  0.06522  0.43083  1.0000
  C   C61       1.0  0.53133  0.20604  0.05755  1.0000
  C   C62       1.0  0.53535  0.12442000000000002  0.2169  1.0000
  C   C63       1.0  0.20600000000000002  0.53134  0.05763  1.0000
  C   C64       1.0  0.12446000000000013  0.5353299999999998  0.21693  1.0000
  C   C65       1.0  0.20503000000000007  0.20501  0.0586  1.0000
  C   C66       1.0  0.12378000000000003  0.12370999999999996  0.21745  1.0000
  C   C67       1.0  0.79498  0.79499  0.9414  1.0000
  C   C68       1.0  0.8762200000000001  0.8762900000000001  0.78255  1.0000
  C   C69       1.0  0.7939999999999999  0.46866  0.94237  1.0000
  C   C70       1.0  0.8755500000000002  0.46466999999999997  0.78306  1.0000
  C   C71       1.0  0.4686700000000001  0.7939599999999999  0.94245  1.0000
  C   C72       1.0  0.46465000000000006  0.87557  0.7831  1.0000
  C   C73       1.0  0.50021  0.92371  0.49931  1.0000
  C   C74       1.0  0.07627999999999995  0.4997800000000001  0.50075  1.0000
  C   C75       1.0  0.92306  0.07699999999999996  0.49993000000000004  1.0000
  C   C76       1.0  0.49980000000000013  0.07627999999999999  0.50069  1.0000
  C   C77       1.0  0.9237200000000001  0.5002099999999999  0.49924  1.0000
  C   C78       1.0  0.07695000000000014  0.923  0.50007  1.0000
  N   N1        1.0  0.53225  0.08482000000000002  0.29922  1.0000
  N   N2        1.0  0.08484000000000007  0.5322099999999997  0.29923  1.0000
  N   N3        1.0  0.08431  0.08428000000000001  0.2996  1.0000
  N   N4        1.0  0.9157000000000002  0.9157099999999999  0.7004  1.0000
  N   N5        1.0  0.9151600000000001  0.46779  0.70077  1.0000
  N   N6        1.0  0.4677600000000001  0.9151799999999999  0.7007800000000001  1.0000
  O   O1        1.0  0.52232  0.0011999999999999969  0.10085  1.0000
  O   O2        1.0  0.52149  0.11559000000000001  0.9871  1.0000
  O   O3        1.0  0.5309100000000001  0.94963  0.32488  1.0000
  O   O4        1.0  0.3764  0.52256  0.10146000000000001  1.0000
  O   O5        1.0  0.37562000000000006  0.5219899999999997  0.9876900000000001  1.0000
  O   O6        1.0  0.19525999999999988  0.53  0.3266  1.0000
  O   O7        1.0  0.9998900000000001  0.37687  0.10186  1.0000
  O   O8        1.0  0.11450000000000009  0.3752599999999999  0.9884  1.0000
  O   O9        1.0  0.94838  0.19565  0.3261  1.0000
  O   O10       1.0  0.62309  0.00024000000000000887  0.89808  1.0000
  O   O11       1.0  0.6248199999999999  0.88552  0.01154  1.0000
  O   O12       1.0  0.8044599999999998  0.05174000000000002  0.67366  1.0000
  O   O13       1.0  0.9987900000000001  0.47775999999999996  0.89914  1.0000
  O   O14       1.0  0.88443  0.47853  0.01283  1.0000
  O   O15       1.0  0.05034000000000008  0.46904999999999986  0.67532  1.0000
  O   O16       1.0  0.47740000000000005  0.62369  0.8986  1.0000
  O   O17       1.0  0.47802000000000017  0.62427  0.012440000000000001  1.0000
  O   O18       1.0  0.46998  0.8047500000000001  0.6735  1.0000
  O   O19       1.0  0.47769  0.9988  0.89915  1.0000
  O   O20       1.0  0.47851000000000016  0.8844099999999998  0.0129  1.0000
  O   O21       1.0  0.4691  0.05036999999999998  0.67512  1.0000
  O   O22       1.0  0.62361  0.47744  0.89854  1.0000
  O   O23       1.0  0.6243800000000002  0.47801  0.01231  1.0000
  O   O24       1.0  0.80474  0.47  0.6734  1.0000
  O   O25       1.0  0.00011999999999993723  0.62312  0.89814  1.0000
  O   O26       1.0  0.8855  0.62474  0.0116  1.0000
  O   O27       1.0  0.05162  0.80435  0.6739  1.0000
  O   O28       1.0  0.37692000000000014  0.9997599999999999  0.10192  1.0000
  O   O29       1.0  0.3751800000000001  0.11448  0.98846  1.0000
  O   O30       1.0  0.19554000000000005  0.9482599999999999  0.32634  1.0000
  O   O31       1.0  0.0012199999999999778  0.52223  0.10086  1.0000
  O   O32       1.0  0.11556999999999995  0.5214699999999999  0.9871700000000001  1.0000
  O   O33       1.0  0.9496600000000001  0.53095  0.32468  1.0000
  O   O34       1.0  0.5226  0.3763  0.1014  1.0000
  O   O35       1.0  0.5219800000000001  0.3757199999999998  0.9875600000000001  1.0000
  O   O36       1.0  0.53002  0.19524999999999992  0.3265  1.0000
