data_image0
_chemical_formula_structural       Ni4H48C56N8O20
_chemical_formula_sum              "Ni4 H48 C56 N8 O20"
_cell_length_a       10.15758
_cell_length_b       16.28871
_cell_length_c       16.69735
_cell_angle_alpha    90.0
_cell_angle_beta     90.0
_cell_angle_gamma    90.0

_symmetry_space_group_name_H-M    'P 1'
_symmetry_Int_Tables_number       1

loop_
  _symmetry_equiv_pos_as_xyz
  'x,y,z'

loop_
  _atom_site_type_symbol
  _atom_site_label
  _atom_site_symmetry_multiplicity
  _atom_site_fract_x
  _atom_site_fract_y
  _atom_site_fract_z
  _atom_site_occupancy
  Ni  Ni1       1.0  0.30832  0.21211  0.54895  1.0000
  Ni  Ni2       1.0  0.19168  0.78789  0.04895  1.0000
  Ni  Ni3       1.0  0.6916800000000001  0.71211  0.95105  1.0000
  Ni  Ni4       1.0  0.8083200000000001  0.28789  0.45105  1.0000
  H   H1        1.0  0.42655  0.2500999999999999  0.29944  1.0000
  H   H2        1.0  0.39478  0.34605999999999987  0.34462  1.0000
  H   H3        1.0  0.19187  0.26481  0.33685  1.0000
  H   H4        1.0  0.13744  0.28005  0.47173  1.0000
  H   H5        1.0  0.77863  0.6244299999999998  0.80012  1.0000
  H   H6        1.0  0.6923900000000001  0.51354  0.70942  1.0000
  H   H7        1.0  0.35317  0.49861999999999995  0.86489  1.0000
  H   H8        1.0  0.45793000000000006  0.6038599999999997  0.95123  1.0000
  H   H9        1.0  0.36066  0.36474  0.81723  1.0000
  H   H10       1.0  0.27901  0.2582  0.72285  1.0000
  H   H11       1.0  0.45213000000000003  0.37434  0.52894  1.0000
  H   H12       1.0  0.53967  0.48578  0.61404  1.0000
  H   H13       1.0  0.07345000000000002  0.7498999999999998  0.79944  1.0000
  H   H14       1.0  0.10523  0.65394  0.84462  1.0000
  H   H15       1.0  0.3081400000000001  0.7351899999999998  0.83685  1.0000
  H   H16       1.0  0.36256  0.71995  0.9717300000000001  1.0000
  H   H17       1.0  0.72138  0.37557  0.30012  1.0000
  H   H18       1.0  0.80762  0.48646  0.20942  1.0000
  H   H19       1.0  0.14684  0.50138  0.36489  1.0000
  H   H20       1.0  0.04208  0.3961399999999999  0.45123  1.0000
  H   H21       1.0  0.13934  0.63526  0.31723  1.0000
  H   H22       1.0  0.221  0.7418  0.22285  1.0000
  H   H23       1.0  0.047880000000000006  0.62566  0.02894  1.0000
  H   H24       1.0  0.96033  0.51422  0.11404  1.0000
  H   H25       1.0  0.5734500000000001  0.7501  0.20056  1.0000
  H   H26       1.0  0.60523  0.84605  0.15538  1.0000
  H   H27       1.0  0.80814  0.7648  0.16315  1.0000
  H   H28       1.0  0.86256  0.78004  0.02827  1.0000
  H   H29       1.0  0.22137000000000004  0.12442999999999999  0.69988  1.0000
  H   H30       1.0  0.30761000000000005  0.01354  0.79059  1.0000
  H   H31       1.0  0.64684  0.9986199999999998  0.63511  1.0000
  H   H32       1.0  0.54208  0.10386  0.54877  1.0000
  H   H33       1.0  0.63935  0.8647399999999997  0.68277  1.0000
  H   H34       1.0  0.721  0.7582  0.77715  1.0000
  H   H35       1.0  0.54788  0.8743399999999998  0.9710599999999999  1.0000
  H   H36       1.0  0.4603300000000001  0.9857699999999999  0.88596  1.0000
  H   H37       1.0  0.9265500000000001  0.2499  0.70056  1.0000
  H   H38       1.0  0.8947700000000001  0.15394999999999995  0.65538  1.0000
  H   H39       1.0  0.69187  0.2352  0.66315  1.0000
  H   H40       1.0  0.63744  0.21996  0.52827  1.0000
  H   H41       1.0  0.27863  0.87557  0.19988  1.0000
  H   H42       1.0  0.19239  0.98646  0.29058  1.0000
  H   H43       1.0  0.85316  0.00138  0.13511  1.0000
  H   H44       1.0  0.95793  0.89614  0.04877  1.0000
  H   H45       1.0  0.86066  0.13526  0.18277  1.0000
  H   H46       1.0  0.7790100000000001  0.2418  0.27715  1.0000
  H   H47       1.0  0.9521200000000001  0.12566  0.47106  1.0000
  H   H48       1.0  0.03967  0.01423  0.38596  1.0000
  C   C1        1.0  0.51471  0.26646  0.41385  1.0000
  C   C2        1.0  0.39973  0.2796399999999999  0.35635  1.0000
  C   C3        1.0  0.26483  0.24872999999999998  0.383  1.0000
  C   C4        1.0  0.26214  0.15416999999999995  0.39215  1.0000
  C   C5        1.0  0.68339  0.59576  0.81056  1.0000
  C   C6        1.0  0.6341100000000001  0.53554  0.75988  1.0000
  C   C7        1.0  0.51199  0.49922999999999995  0.77728  1.0000
  C   C8        1.0  0.44774  0.52433  0.84759  1.0000
  C   C9        1.0  0.5044700000000001  0.58414  0.89588  1.0000
  C   C10       1.0  0.45692000000000005  0.43577  0.72387  1.0000
  C   C11       1.0  0.38131  0.3703499999999999  0.75356  1.0000
  C   C12       1.0  0.33682  0.30991  0.70148  1.0000
  C   C13       1.0  0.43265  0.37487  0.59287  1.0000
  C   C14       1.0  0.48108  0.43736  0.64116  1.0000
  C   C15       1.0  0.98529  0.73354  0.91385  1.0000
  C   C16       1.0  0.10027  0.7203599999999998  0.85635  1.0000
  C   C17       1.0  0.23517000000000002  0.75127  0.883  1.0000
  C   C18       1.0  0.23787000000000005  0.84583  0.89215  1.0000
  C   C19       1.0  0.81661  0.40424  0.31056  1.0000
  C   C20       1.0  0.8659  0.46446  0.25987  1.0000
  C   C21       1.0  0.9880200000000001  0.50077  0.27728  1.0000
  C   C22       1.0  0.05227  0.47567  0.34759  1.0000
  C   C23       1.0  0.99554  0.41586  0.39588  1.0000
  C   C24       1.0  0.04309000000000001  0.56423  0.22387  1.0000
  C   C25       1.0  0.1187  0.6296499999999998  0.25356  1.0000
  C   C26       1.0  0.16318  0.6900899999999998  0.20148  1.0000
  C   C27       1.0  0.06736  0.62513  0.09287  1.0000
  C   C28       1.0  0.01893  0.56264  0.14116  1.0000
  C   C29       1.0  0.48530000000000006  0.76646  0.08616  1.0000
  C   C30       1.0  0.60027  0.77964  0.14365  1.0000
  C   C31       1.0  0.73517  0.74873  0.11699  1.0000
  C   C32       1.0  0.73787  0.6541599999999997  0.10785  1.0000
  C   C33       1.0  0.31661  0.09576  0.68944  1.0000
  C   C34       1.0  0.3659  0.03554  0.74013  1.0000
  C   C35       1.0  0.48802  0.9992299999999998  0.72272  1.0000
  C   C36       1.0  0.55226  0.024329999999999994  0.65241  1.0000
  C   C37       1.0  0.49554  0.08413999999999998  0.60412  1.0000
  C   C38       1.0  0.54309  0.93577  0.77613  1.0000
  C   C39       1.0  0.6187  0.87035  0.74644  1.0000
  C   C40       1.0  0.66318  0.80991  0.79852  1.0000
  C   C41       1.0  0.56736  0.8748599999999997  0.90713  1.0000
  C   C42       1.0  0.51893  0.93736  0.85884  1.0000
  C   C43       1.0  0.014710000000000003  0.23354  0.58616  1.0000
  C   C44       1.0  0.89973  0.22035999999999994  0.64365  1.0000
  C   C45       1.0  0.7648300000000001  0.25127  0.617  1.0000
  C   C46       1.0  0.76214  0.34583999999999987  0.60786  1.0000
  C   C47       1.0  0.18339  0.90424  0.18944  1.0000
  C   C48       1.0  0.13411  0.9644599999999998  0.24013000000000004  1.0000
  C   C49       1.0  0.011990000000000002  0.00077  0.22272  1.0000
  C   C50       1.0  0.94774  0.9756699999999998  0.15241  1.0000
  C   C51       1.0  0.00447  0.9158599999999998  0.10412  1.0000
  C   C52       1.0  0.95692  0.06422999999999997  0.27613  1.0000
  C   C53       1.0  0.88131  0.12965  0.24643999999999996  1.0000
  C   C54       1.0  0.83682  0.19009  0.29852  1.0000
  C   C55       1.0  0.93264  0.12514  0.40713  1.0000
  C   C56       1.0  0.98107  0.06264  0.35884  1.0000
  N   N1        1.0  0.6191  0.6213  0.877  1.0000
  N   N2        1.0  0.36314  0.31086  0.6222  1.0000
  N   N3        1.0  0.8809  0.37869999999999987  0.377  1.0000
  N   N4        1.0  0.13686  0.68914  0.12219999999999999  1.0000
  N   N5        1.0  0.3809  0.1213  0.623  1.0000
  N   N6        1.0  0.63686  0.8108599999999998  0.8778  1.0000
  N   N7        1.0  0.1191  0.8787  0.123  1.0000
  N   N8        1.0  0.86314  0.18913999999999995  0.3778  1.0000
  O   O1        1.0  0.49829000000000007  0.23271999999999995  0.48264  1.0000
  O   O2        1.0  0.62565  0.2917899999999999  0.3887  1.0000
  O   O3        1.0  0.23238  0.29152  0.45663  1.0000
  O   O4        1.0  0.26262  0.11266999999999998  0.32947  1.0000
  O   O5        1.0  0.25886  0.12592999999999993  0.46456  1.0000
  O   O6        1.0  0.0017200000000000002  0.76728  0.98265  1.0000
  O   O7        1.0  0.87436  0.7082099999999998  0.8887  1.0000
  O   O8        1.0  0.26762  0.7084799999999998  0.95663  1.0000
  O   O9        1.0  0.23738000000000004  0.8873299999999997  0.82948  1.0000
  O   O10       1.0  0.24114000000000005  0.8740699999999999  0.9645599999999999  1.0000
  O   O11       1.0  0.5017200000000002  0.73271  0.01736  1.0000
  O   O12       1.0  0.37436  0.79179  0.1113  1.0000
  O   O13       1.0  0.76762  0.79151  0.04337  1.0000
  O   O14       1.0  0.7373800000000001  0.61267  0.17053  1.0000
  O   O15       1.0  0.74114  0.6259199999999998  0.03544  1.0000
  O   O16       1.0  0.9982900000000001  0.2672899999999999  0.51736  1.0000
  O   O17       1.0  0.12564  0.20820999999999995  0.6113  1.0000
  O   O18       1.0  0.73238  0.20849  0.54337  1.0000
  O   O19       1.0  0.7626300000000001  0.3873299999999999  0.67053  1.0000
  O   O20       1.0  0.75887  0.3740799999999999  0.53544  1.0000
