data_image0
_chemical_formula_structural       Zn6H36C56O20
_chemical_formula_sum              "Zn6 H36 C56 O20"
_cell_length_a       12.09718
_cell_length_b       15.72182
_cell_length_c       15.71978
_cell_angle_alpha    84.06465
_cell_angle_beta     74.22575
_cell_angle_gamma    74.22276

_space_group_name_H-M_alt    "P 1"
_space_group_IT_number       1

loop_
  _space_group_symop_operation_xyz
  'x, y, z'

loop_
  _atom_site_type_symbol
  _atom_site_label
  _atom_site_symmetry_multiplicity
  _atom_site_fract_x
  _atom_site_fract_y
  _atom_site_fract_z
  _atom_site_occupancy
  Zn  Zn1       1.0  0.0  0.0  0.0  1.0000
  Zn  Zn2       1.0  0.5  0.0  0.0  1.0000
  Zn  Zn3       1.0  0.24979999999999994  0.07515000000000002  0.92497  1.0000
  Zn  Zn4       1.0  0.24921000000000001  0.92967  0.07053  1.0000
  Zn  Zn5       1.0  0.7502  0.9248500000000002  0.07504  1.0000
  Zn  Zn6       1.0  0.75078  0.07033  0.92948  1.0000
  H   H1        1.0  0.09030999999999995  0.35383  0.92269  1.0000
  H   H2        1.0  0.95524  0.50547  0.93414  1.0000
  H   H3        1.0  0.6535200000000001  0.39305  0.00207  1.0000
  H   H4        1.0  0.78911  0.24282000000000004  0.98806  1.0000
  H   H5        1.0  0.82817  0.61183  0.87771  1.0000
  H   H6        1.0  0.6887899999999999  0.76154  0.89431  1.0000
  H   H7        1.0  0.4379399999999999  0.66058  0.09959  1.0000
  H   H8        1.0  0.5765799999999999  0.51059  0.08444  1.0000
  H   H9        1.0  0.2075799999999998  0.9226700000000002  0.91492  1.0000
  H   H10       1.0  0.40947  0.07726000000000001  0.64637  1.0000
  H   H11       1.0  0.5446099999999999  0.06592  0.49466  1.0000
  H   H12       1.0  0.84625  0.9980200000000001  0.607  1.0000
  H   H13       1.0  0.71064  0.011910000000000002  0.75736  1.0000
  H   H14       1.0  0.67159  0.12236  0.3882  1.0000
  H   H15       1.0  0.81148  0.10561000000000001  0.23843000000000003  1.0000
  H   H16       1.0  0.06186  0.9004  0.33967  1.0000
  H   H17       1.0  0.9229399999999999  0.9156300000000003  0.4898  1.0000
  H   H18       1.0  0.29137  0.08503000000000002  0.07775  1.0000
  H   H19       1.0  0.90969  0.64616  0.07731  1.0000
  H   H20       1.0  0.04475999999999993  0.49453000000000014  0.06587  1.0000
  H   H21       1.0  0.3464700000000001  0.60695  0.99794  1.0000
  H   H22       1.0  0.21089  0.75718  0.01194  1.0000
  H   H23       1.0  0.1718299999999999  0.38817  0.1223  1.0000
  H   H24       1.0  0.3112  0.23846  0.10569  1.0000
  H   H25       1.0  0.56206  0.33942  0.90041  1.0000
  H   H26       1.0  0.4234199999999998  0.48941  0.91556  1.0000
  H   H27       1.0  0.7924099999999998  0.07733000000000002  0.08508  1.0000
  H   H28       1.0  0.5905299999999998  0.92273  0.35363  1.0000
  H   H29       1.0  0.45538  0.93408  0.50534  1.0000
  H   H30       1.0  0.15374  0.0019799999999999996  0.393  1.0000
  H   H31       1.0  0.28934999999999994  0.98809  0.24265  1.0000
  H   H32       1.0  0.32841  0.87764  0.6118  1.0000
  H   H33       1.0  0.18851000000000007  0.8943900000000001  0.76157  1.0000
  H   H34       1.0  0.9381399999999999  0.09960000000000005  0.66034  1.0000
  H   H35       1.0  0.07706  0.08437  0.51021  1.0000
  H   H36       1.0  0.7086199999999998  0.91496  0.92226  1.0000
  C   C1        1.0  0.02772  0.1975  0.95013  1.0000
  C   C2        1.0  0.94818  0.28887  0.95591  1.0000
  C   C3        1.0  0.9944800000000006  0.36345  0.93989  1.0000
  C   C4        1.0  0.9183700000000001  0.44815  0.94606  1.0000
  C   C5        1.0  0.7941899999999998  0.46051  0.97016  1.0000
  C   C6        1.0  0.7489800000000001  0.38514000000000004  0.9855  1.0000
  C   C7        1.0  0.82476  0.30059  0.97782  1.0000
  C   C8        1.0  0.71257  0.55  0.97968  1.0000
  C   C9        1.0  0.7433499999999997  0.6223400000000002  0.92712  1.0000
  C   C10       1.0  0.6654299999999997  0.7062200000000001  0.936  1.0000
  C   C11       1.0  0.55419  0.72062  0.99766  1.0000
  C   C12       1.0  0.52334  0.64907  0.05098  1.0000
  C   C13       1.0  0.6012  0.56517  0.04198  1.0000
  C   C14       1.0  0.4709499999999999  0.81069  0.00624  1.0000
  C   C15       1.0  0.47201999999999994  0.04968000000000001  0.80274  1.0000
  C   C16       1.0  0.55156  0.044070000000000005  0.71135  1.0000
  C   C17       1.0  0.50529  0.0601  0.63674  1.0000
  C   C18       1.0  0.58138  0.05398000000000001  0.55203  1.0000
  C   C19       1.0  0.70555  0.029920000000000002  0.53966  1.0000
  C   C20       1.0  0.7507599999999999  0.014559999999999998  0.61503  1.0000
  C   C21       1.0  0.6749899999999999  0.022180000000000002  0.6996  1.0000
  C   C22       1.0  0.78715  0.02038  0.45016  1.0000
  C   C23       1.0  0.75638  0.07294  0.3778  1.0000
  C   C24       1.0  0.8343899999999999  0.06404999999999998  0.29398  1.0000
  C   C25       1.0  0.9455699999999999  0.002440000000000001  0.27979  1.0000
  C   C26       1.0  0.9764300000000001  0.9490100000000002  0.35128  1.0000
  C   C27       1.0  0.8984899999999997  0.95803  0.43512  1.0000
  C   C28       1.0  0.028759999999999914  0.9939200000000002  0.18985  1.0000
  C   C29       1.0  0.9722699999999999  0.8025  0.04987  1.0000
  C   C30       1.0  0.05181999999999988  0.7111300000000003  0.04409  1.0000
  C   C31       1.0  0.00550999999999992  0.6365500000000002  0.06011  1.0000
  C   C32       1.0  0.08162  0.55185  0.05394  1.0000
  C   C33       1.0  0.20581000000000005  0.53949  0.02985  1.0000
  C   C34       1.0  0.25101  0.61486  0.01451  1.0000
  C   C35       1.0  0.17522999999999994  0.6994100000000002  0.02218  1.0000
  C   C36       1.0  0.28743  0.44999  0.02032  1.0000
  C   C37       1.0  0.25665  0.37766  0.07289  1.0000
  C   C38       1.0  0.33456  0.29378  0.064  1.0000
  C   C39       1.0  0.44581  0.27938  0.0023500000000000005  1.0000
  C   C40       1.0  0.4766499999999999  0.35093  0.94902  1.0000
  C   C41       1.0  0.39880000000000004  0.43483000000000005  0.95802  1.0000
  C   C42       1.0  0.5290400000000001  0.18930999999999998  0.99377  1.0000
  C   C43       1.0  0.52798  0.9503200000000002  0.19727  1.0000
  C   C44       1.0  0.4484299999999999  0.9559300000000001  0.28865  1.0000
  C   C45       1.0  0.4946999999999999  0.9399000000000001  0.36326  1.0000
  C   C46       1.0  0.41860999999999987  0.9460200000000002  0.44797  1.0000
  C   C47       1.0  0.29444  0.97008  0.46034  1.0000
  C   C48       1.0  0.24924  0.98544  0.38497  1.0000
  C   C49       1.0  0.32500999999999997  0.97782  0.30041  1.0000
  C   C50       1.0  0.21285  0.9796200000000003  0.54985  1.0000
  C   C51       1.0  0.24361999999999998  0.9270600000000002  0.6222  1.0000
  C   C52       1.0  0.16561000000000003  0.93594  0.70603  1.0000
  C   C53       1.0  0.054429999999999874  0.9975600000000002  0.72022  1.0000
  C   C54       1.0  0.023570000000000004  0.05099000000000001  0.64872  1.0000
  C   C55       1.0  0.10149999999999999  0.04197  0.56488  1.0000
  C   C56       1.0  0.9712399999999999  0.006080000000000001  0.81016  1.0000
  O   O1        1.0  0.18521999999999986  0.9658100000000002  0.96074  1.0000
  O   O2        1.0  0.13872000000000012  0.19071  0.94327  1.0000
  O   O3        1.0  0.9826199999999999  0.13338  0.9518  1.0000
  O   O4        1.0  0.36707  0.81715  0.05982  1.0000
  O   O5        1.0  0.50527  0.87446  0.96046  1.0000
  O   O6        1.0  0.31351  0.039370000000000016  0.03448  1.0000
  O   O7        1.0  0.36110000000000003  0.056260000000000004  0.80946  1.0000
  O   O8        1.0  0.51702  0.04828999999999999  0.86687  1.0000
  O   O9        1.0  0.13277999999999995  0.9406200000000002  0.18376  1.0000
  O   O10       1.0  0.99455  0.03935  0.12584  1.0000
  O   O11       1.0  0.8147699999999998  0.03419000000000001  0.03927  1.0000
  O   O12       1.0  0.86128  0.8092900000000002  0.05673  1.0000
  O   O13       1.0  0.017369999999999976  0.86662  0.0482  1.0000
  O   O14       1.0  0.6329299999999998  0.18285  0.94018  1.0000
  O   O15       1.0  0.49473  0.12554  0.03955  1.0000
  O   O16       1.0  0.68648  0.96062  0.96552  1.0000
  O   O17       1.0  0.6388999999999998  0.94374  0.19055  1.0000
  O   O18       1.0  0.48297999999999996  0.95171  0.13313000000000003  1.0000
  O   O19       1.0  0.86721  0.05938  0.81624  1.0000
  O   O20       1.0  0.0054399999999999275  0.9606500000000001  0.87416  1.0000
