data_image0
_chemical_formula_structural       Ag8H32C48N32
_chemical_formula_sum              "Ag8 H32 C48 N32"
_cell_length_a       7.37864
_cell_length_b       8.73995
_cell_length_c       26.113100000000003
_cell_angle_alpha    90.01876999999999
_cell_angle_beta     89.99910999999999
_cell_angle_gamma    89.98122

_space_group_name_H-M_alt    "P 1"
_space_group_IT_number       1

loop_
  _space_group_symop_operation_xyz
  'x, y, z'

loop_
  _atom_site_type_symbol
  _atom_site_label
  _atom_site_symmetry_multiplicity
  _atom_site_fract_x
  _atom_site_fract_y
  _atom_site_fract_z
  _atom_site_occupancy
  Ag  Ag1       1.0  0.02116  0.24179  0.25795  1.0000
  Ag  Ag2       1.0  0.55082  0.15717  0.50693  1.0000
  Ag  Ag3       1.0  0.4795299999999999  0.75757  0.7580800000000001  1.0000
  Ag  Ag4       1.0  0.9512399999999998  0.84236  0.00705  1.0000
  Ag  Ag5       1.0  0.9794599999999998  0.74088  0.24167  1.0000
  Ag  Ag6       1.0  0.44837  0.65862  0.99244  1.0000
  Ag  Ag7       1.0  0.52022  0.25804  0.74139  1.0000
  Ag  Ag8       1.0  0.04996999999999999  0.3413  0.49274  1.0000
  H   H1        1.0  0.54301  0.96183  0.13752  1.0000
  H   H2        1.0  0.73802  0.83844  0.15021  1.0000
  H   H3        1.0  0.79187  0.51529  0.57515  1.0000
  H   H4        1.0  0.67776  0.63537  0.38221  1.0000
  H   H5        1.0  0.30984  0.49802  0.07941  1.0000
  H   H6        1.0  0.01987999999999999  0.34861  0.06378  1.0000
  H   H7        1.0  0.38782  0.79857  0.35292  1.0000
  H   H8        1.0  0.5800999999999997  0.9147  0.33893  1.0000
  H   H9        1.0  0.9576099999999997  0.03686  0.63743  1.0000
  H   H10       1.0  0.76269  0.16052  0.6500400000000001  1.0000
  H   H11       1.0  0.7082899999999999  0.48503  0.07464  1.0000
  H   H12       1.0  0.82262  0.36461  0.8825700000000001  1.0000
  H   H13       1.0  0.1904  0.50117  0.57976  1.0000
  H   H14       1.0  0.4795299999999999  0.65056  0.56384  1.0000
  H   H15       1.0  0.11111999999999997  0.20113  0.8525900000000001  1.0000
  H   H16       1.0  0.91918  0.08431  0.83901  1.0000
  H   H17       1.0  0.4577999999999999  0.46181  0.36236  1.0000
  H   H18       1.0  0.2628499999999999  0.33829  0.34977  1.0000
  H   H19       1.0  0.20899999999999994  0.01756  0.9245199999999999  1.0000
  H   H20       1.0  0.3230399999999999  0.13487  0.11798  1.0000
  H   H21       1.0  0.69027  0.9978899999999999  0.4198  1.0000
  H   H22       1.0  0.97924  0.84908  0.43598000000000003  1.0000
  H   H23       1.0  0.61248  0.29916  0.14617  1.0000
  H   H24       1.0  0.41992999999999997  0.41488  0.16023  1.0000
  H   H25       1.0  0.042349999999999985  0.5374  0.8624200000000001  1.0000
  H   H26       1.0  0.23697999999999994  0.66114  0.84985  1.0000
  H   H27       1.0  0.29171  0.98353  0.42458  1.0000
  H   H28       1.0  0.17761999999999994  0.86382  0.6175299999999999  1.0000
  H   H29       1.0  0.8107099999999998  0.00149  0.91998  1.0000
  H   H30       1.0  0.52162  0.15115  0.93556  1.0000
  H   H31       1.0  0.8880599999999997  0.70071  0.6466499999999998  1.0000
  H   H32       1.0  0.08054  0.58461  0.66067  1.0000
  C   C1        1.0  0.6938599999999999  0.9587900000000001  0.14753  1.0000
  C   C2        1.0  0.7083699999999998  0.51376  0.38509  1.0000
  C   C3        1.0  0.7022099999999998  0.44457  0.43297  1.0000
  C   C4        1.0  0.82065  0.45047  0.3482  1.0000
  C   C5        1.0  0.04062  0.42915  0.09522  1.0000
  C   C6        1.0  0.7932  0.03355  0.10675  1.0000
  C   C7        1.0  0.44036  0.9167799999999999  0.35396  1.0000
  C   C8        1.0  0.08110999999999997  0.37045  0.14304  1.0000
  C   C9        1.0  0.4287399999999999  0.9755199999999999  0.40875  1.0000
  C   C10       1.0  0.3261  0.00655  0.32008  1.0000
  C   C11       1.0  0.7194799999999998  0.03737  0.19602  1.0000
  C   C12       1.0  0.9925399999999998  0.58092  0.08841  1.0000
  C   C13       1.0  0.80666  0.0401  0.64738  1.0000
  C   C14       1.0  0.7917099999999998  0.48612  0.8854899999999999  1.0000
  C   C15       1.0  0.7979199999999997  0.55515  0.9334  1.0000
  C   C16       1.0  0.6793299999999998  0.54938  0.84865  1.0000
  C   C17       1.0  0.4596099999999999  0.57009  0.59531  1.0000
  C   C18       1.0  0.70769  0.9656200000000001  0.60644  1.0000
  C   C19       1.0  0.05906999999999999  0.08279  0.85393  1.0000
  C   C20       1.0  0.4193599999999999  0.6287  0.64316  1.0000
  C   C21       1.0  0.07173  0.02485  0.90881  1.0000
  C   C22       1.0  0.17327  0.9925500000000002  0.8201899999999999  1.0000
  C   C23       1.0  0.7806399999999998  0.9615899999999998  0.69584  1.0000
  C   C24       1.0  0.5076499999999998  0.41837  0.58834  1.0000
  C   C25       1.0  0.3068299999999999  0.4586799999999999  0.35246999999999995  1.0000
  C   C26       1.0  0.2922799999999999  0.01344  0.11472  1.0000
  C   C27       1.0  0.29817  0.9458599999999999  0.06658  1.0000
  C   C28       1.0  0.17964  0.9498500000000001  0.15142  1.0000
  C   C29       1.0  0.95959  0.92927  0.40441  1.0000
  C   C30       1.0  0.20789999999999997  0.5332  0.39343  1.0000
  C   C31       1.0  0.55968  0.41733  0.1452  1.0000
  C   C32       1.0  0.91936  0.87032  0.3566  1.0000
  C   C33       1.0  0.57129  0.47642  0.09045  1.0000
  C   C34       1.0  0.6737799999999998  0.50697  0.17916  1.0000
  C   C35       1.0  0.2808699999999999  0.53745  0.30407  1.0000
  C   C36       1.0  0.00785  0.08099  0.41119  1.0000
  C   C37       1.0  0.19315  0.54069  0.85236  1.0000
  C   C38       1.0  0.20793999999999996  0.9853800000000001  0.61446  1.0000
  C   C39       1.0  0.20127999999999993  0.05396  0.56648  1.0000
  C   C40       1.0  0.3206299999999999  0.04897  0.65115  1.0000
  C   C41       1.0  0.5415599999999998  0.07049  0.90414  1.0000
  C   C42       1.0  0.2927  0.46571  0.89305  1.0000
  C   C43       1.0  0.9407699999999998  0.5825  0.6456599999999999  1.0000
  C   C44       1.0  0.58121  0.12897  0.85624  1.0000
  C   C45       1.0  0.9289799999999998  0.52351  0.59091  1.0000
  C   C46       1.0  0.8266399999999999  0.49272000000000005  0.67955  1.0000
  C   C47       1.0  0.21902999999999995  0.46262000000000003  0.80379  1.0000
  C   C48       1.0  0.49286999999999986  0.9189900000000001  0.9110800000000001  1.0000
  N   N1        1.0  0.69905  0.38226  0.47318  1.0000
  N   N2        1.0  0.23167  0.07964  0.29403  1.0000
  N   N3        1.0  0.56324  0.01369  0.43667  1.0000
  N   N4        1.0  0.12585  0.31866  0.18287999999999996  1.0000
  N   N5        1.0  0.9165899999999998  0.39537  0.31725  1.0000
  N   N6        1.0  0.7342  0.1083  0.2337  1.0000
  N   N7        1.0  0.8659  0.09318  0.07245  1.0000
  N   N8        1.0  0.9454599999999997  0.70779  0.08009  1.0000
  N   N9        1.0  0.80113  0.61721  0.9736699999999999  1.0000
  N   N10       1.0  0.26786999999999994  0.91872  0.79439  1.0000
  N   N11       1.0  0.9377599999999998  0.9864200000000001  0.93689  1.0000
  N   N12       1.0  0.37473  0.68028  0.68307  1.0000
  N   N13       1.0  0.58323  0.60471  0.8178  1.0000
  N   N14       1.0  0.7658799999999998  0.89064  0.73351  1.0000
  N   N15       1.0  0.6355  0.90647  0.57193  1.0000
  N   N16       1.0  0.5547999999999997  0.29157  0.57992  1.0000
  N   N17       1.0  0.30122999999999994  0.88519  0.02607  1.0000
  N   N18       1.0  0.76833  0.57985  0.20525  1.0000
  N   N19       1.0  0.4366899999999999  0.51435  0.06251  1.0000
  N   N20       1.0  0.8747799999999998  0.81852  0.3167400000000001  1.0000
  N   N21       1.0  0.08319999999999997  0.89478  0.18222000000000002  1.0000
  N   N22       1.0  0.2664  0.60854  0.26642  1.0000
  N   N23       1.0  0.13545999999999997  0.59255  0.42787  1.0000
  N   N24       1.0  0.05516  0.20782  0.41942999999999997  1.0000
  N   N25       1.0  0.19782999999999995  0.11579  0.5262  1.0000
  N   N26       1.0  0.73224  0.41941  0.7055199999999999  1.0000
  N   N27       1.0  0.06334  0.48524999999999996  0.56294  1.0000
  N   N28       1.0  0.62532  0.18039  0.8163  1.0000
  N   N29       1.0  0.41704999999999987  0.10428  0.68192  1.0000
  N   N30       1.0  0.23426  0.39188  0.76608  1.0000
  N   N31       1.0  0.36551  0.40596  0.92733  1.0000
  N   N32       1.0  0.4450099999999999  0.79237  0.91941  1.0000
