data_image0
_chemical_formula_structural       Cd8H24C64N8O32
_chemical_formula_sum              "Cd8 H24 C64 N8 O32"
_cell_length_a       17.77704
_cell_length_b       8.222030000000002
_cell_length_c       23.50322
_cell_angle_alpha    112.86002
_cell_angle_beta     90.14493
_cell_angle_gamma    90.16634

_space_group_name_H-M_alt    "P 1"
_space_group_IT_number       1

loop_
  _space_group_symop_operation_xyz
  'x, y, z'

loop_
  _atom_site_type_symbol
  _atom_site_label
  _atom_site_symmetry_multiplicity
  _atom_site_fract_x
  _atom_site_fract_y
  _atom_site_fract_z
  _atom_site_occupancy
  Cd  Cd1       1.0  0.27987  0.72237  0.78294  1.0000
  Cd  Cd2       1.0  0.35024  0.8978299999999997  0.6819899999999999  1.0000
  Cd  Cd3       1.0  0.77999  0.27043  0.71457  1.0000
  Cd  Cd4       1.0  0.8504  0.10249999999999995  0.8196699999999999  1.0000
  Cd  Cd5       1.0  0.72013  0.2775899999999999  0.21704999999999997  1.0000
  Cd  Cd6       1.0  0.64976  0.10215999999999997  0.31801  1.0000
  Cd  Cd7       1.0  0.22  0.7295499999999998  0.28543  1.0000
  Cd  Cd8       1.0  0.14959  0.89756  0.18034  1.0000
  H   H1        1.0  0.52098  0.43378  0.7287  1.0000
  H   H2        1.0  0.63452  0.3575899999999998  0.55826  1.0000
  H   H3        1.0  0.40359  0.5313899999999998  0.5842  1.0000
  H   H4        1.0  0.663  0.06113999999999995  0.95247  1.0000
  H   H5        1.0  0.5864  0.008999999999999932  0.7716099999999999  1.0000
  H   H6        1.0  0.42839  0.9672499999999997  0.9054399999999999  1.0000
  H   H7        1.0  0.02056  0.56038  0.76998  1.0000
  H   H8        1.0  0.13583  0.6338199999999997  0.9410099999999999  1.0000
  H   H9        1.0  0.90468  0.46973000000000015  0.91685  1.0000
  H   H10       1.0  0.16159  0.93505  0.54948  1.0000
  H   H11       1.0  0.08216  0.9877099999999996  0.7290799999999998  1.0000
  H   H12       1.0  0.92651  0.03336000000000004  0.59433  1.0000
  H   H13       1.0  0.47901  0.56621  0.2713  1.0000
  H   H14       1.0  0.36548  0.6423999999999997  0.4417499999999999  1.0000
  H   H15       1.0  0.59641  0.4685999999999999  0.4158  1.0000
  H   H16       1.0  0.33699  0.93886  0.04753  1.0000
  H   H17       1.0  0.4136  0.9909899999999999  0.22839  1.0000
  H   H18       1.0  0.5716  0.032739999999999964  0.09456999999999997  1.0000
  H   H19       1.0  0.9794400000000001  0.43961  0.23001  1.0000
  H   H20       1.0  0.86415  0.3661599999999999  0.05899999999999999  1.0000
  H   H21       1.0  0.09531  0.53026  0.08314  1.0000
  H   H22       1.0  0.8384  0.06494000000000011  0.45052  1.0000
  H   H23       1.0  0.91783  0.012320000000000006  0.27092  1.0000
  H   H24       1.0  0.07349  0.9666499999999998  0.40567  1.0000
  C   C1        1.0  0.65398  0.3368599999999999  0.66958  1.0000
  C   C2        1.0  0.49972  0.9846999999999999  0.83348  1.0000
  C   C3        1.0  0.45507000000000003  0.4870499999999999  0.66046  1.0000
  C   C4        1.0  0.51962  0.4499199999999998  0.56527  1.0000
  C   C5        1.0  0.52007  0.4356399999999998  0.68258  1.0000
  C   C6        1.0  0.58392  0.39376  0.58668  1.0000
  C   C7        1.0  0.4541200000000001  0.4938499999999999  0.6018899999999999  1.0000
  C   C8        1.0  0.54369  0.013479999999999728  0.9346599999999999  1.0000
  C   C9        1.0  0.61732  0.04142000000000002  0.91932  1.0000
  C   C10       1.0  0.58435  0.38838  0.64546  1.0000
  C   C11       1.0  0.57357  0.010939999999999978  0.81717  1.0000
  C   C12       1.0  0.48499  0.9866  0.89192  1.0000
  C   C13       1.0  0.43593  0.95647  0.78917  1.0000
  C   C14       1.0  0.63139  0.03942999999999985  0.8605299999999999  1.0000
  C   C15       1.0  0.3884  0.54745  0.70077  1.0000
  C   C16       1.0  0.70933  0.06094999999999966  0.8420599999999998  1.0000
  C   C17       1.0  0.1552  0.6545699999999995  0.82847  1.0000
  C   C18       1.0  0.99685  0.012789999999999984  0.66612  1.0000
  C   C19       1.0  0.95457  0.5100399999999998  0.8391299999999999  1.0000
  C   C20       1.0  0.02055  0.54696  0.93412  1.0000
  C   C21       1.0  0.02011  0.55881  0.81634  1.0000
  C   C22       1.0  0.08547  0.6000899999999998  0.9121799999999999  1.0000
  C   C23       1.0  0.9548  0.5044699999999996  0.8978699999999998  1.0000
  C   C24       1.0  0.04262  0.9851199999999999  0.5658499999999999  1.0000
  C   C25       1.0  0.11597  0.9572799999999997  0.5825999999999999  1.0000
  C   C26       1.0  0.08549  0.60417  0.85306  1.0000
  C   C27       1.0  0.07017  0.9867999999999997  0.6835599999999998  1.0000
  C   C28       1.0  0.9830099999999999  0.01189999999999994  0.60765  1.0000
  C   C29       1.0  0.93315  0.041779999999999845  0.7102799999999999  1.0000
  C   C30       1.0  0.12917  0.95955  0.64175  1.0000
  C   C31       1.0  0.88621  0.45125999999999966  0.7994899999999999  1.0000
  C   C32       1.0  0.2062  0.93659  0.66223  1.0000
  C   C33       1.0  0.34601  0.6631299999999999  0.33041999999999994  1.0000
  C   C34       1.0  0.50028  0.015280000000000012  0.16653  1.0000
  C   C35       1.0  0.54493  0.51295  0.33954  1.0000
  C   C36       1.0  0.48038  0.55008  0.4347299999999999  1.0000
  C   C37       1.0  0.47992000000000007  0.56436  0.31742  1.0000
  C   C38       1.0  0.41607  0.6062399999999999  0.41331999999999997  1.0000
  C   C39       1.0  0.54588  0.5061499999999997  0.39810999999999996  1.0000
  C   C40       1.0  0.45629999999999993  0.98652  0.06534  1.0000
  C   C41       1.0  0.38268  0.9585799999999998  0.08067999999999999  1.0000
  C   C42       1.0  0.41564  0.61161  0.35453999999999997  1.0000
  C   C43       1.0  0.42643  0.98905  0.18282999999999996  1.0000
  C   C44       1.0  0.51501  0.013389999999999961  0.10807999999999997  1.0000
  C   C45       1.0  0.56407  0.043509999999999965  0.21082999999999996  1.0000
  C   C46       1.0  0.36861  0.96057  0.13947  1.0000
  C   C47       1.0  0.6116  0.45253999999999994  0.29921999999999993  1.0000
  C   C48       1.0  0.29067  0.9390399999999999  0.15793999999999997  1.0000
  C   C49       1.0  0.84479  0.34542999999999996  0.17154  1.0000
  C   C50       1.0  0.00314  0.9872399999999999  0.33389  1.0000
  C   C51       1.0  0.04542  0.48995999999999995  0.16087  1.0000
  C   C52       1.0  0.9794400000000001  0.45302  0.06587999999999998  1.0000
  C   C53       1.0  0.97988  0.44118  0.18366  1.0000
  C   C54       1.0  0.9145199999999999  0.39989999999999987  0.08783  1.0000
  C   C55       1.0  0.04519  0.49551999999999996  0.10212  1.0000
  C   C56       1.0  0.95738  0.014869999999999979  0.43415  1.0000
  C   C57       1.0  0.88403  0.04271000000000001  0.41741  1.0000
  C   C58       1.0  0.9145  0.39581  0.14695  1.0000
  C   C59       1.0  0.92983  0.01320999999999994  0.31644999999999995  1.0000
  C   C60       1.0  0.01698  0.98811  0.39235999999999993  1.0000
  C   C61       1.0  0.06685  0.9583299999999996  0.28973  1.0000
  C   C62       1.0  0.87082  0.04045  0.35825  1.0000
  C   C63       1.0  0.11378000000000002  0.5487499999999997  0.20051  1.0000
  C   C64       1.0  0.79379  0.06340999999999997  0.33777  1.0000
  N   N1        1.0  0.52594  0.45728  0.50632  1.0000
  N   N2        1.0  0.53389  0.012979999999999955  0.9941399999999999  1.0000
  N   N3        1.0  0.0263  0.5418  0.99362  1.0000
  N   N4        1.0  0.03361  0.9844699999999998  0.50598  1.0000
  N   N5        1.0  0.47406  0.54271  0.49368  1.0000
  N   N6        1.0  0.4661  0.98703  0.005859999999999999  1.0000
  N   N7        1.0  0.9736800000000001  0.4581899999999999  0.00638  1.0000
  N   N8        1.0  0.9663800000000001  0.015519999999999813  0.4940199999999999  1.0000
  O   O1        1.0  0.45372  0.9506799999999996  0.7349699999999999  1.0000
  O   O2        1.0  0.33473  0.6264500000000001  0.68392  1.0000
  O   O3        1.0  0.65626  0.35537999999999986  0.72618  1.0000
  O   O4        1.0  0.72321  0.05067999999999984  0.7879099999999998  1.0000
  O   O5        1.0  0.7102  0.2786599999999999  0.63332  1.0000
  O   O6        1.0  0.38408  0.52942  0.75191  1.0000
  O   O7        1.0  0.76247  0.08711999999999998  0.88282  1.0000
  O   O8        1.0  0.36906  0.9437999999999995  0.8054399999999999  1.0000
  O   O9        1.0  0.9521599999999999  0.060049999999999826  0.7657499999999999  1.0000
  O   O10       1.0  0.83331  0.3707699999999998  0.8167399999999999  1.0000
  O   O11       1.0  0.156  0.63421  0.77164  1.0000
  O   O12       1.0  0.2167  0.9253199999999999  0.7135099999999999  1.0000
  O   O13       1.0  0.21253  0.7157499999999998  0.8638699999999999  1.0000
  O   O14       1.0  0.88053  0.47049999999999986  0.74904  1.0000
  O   O15       1.0  0.26092  0.9335199999999998  0.62515  1.0000
  O   O16       1.0  0.86535  0.04386000000000006  0.69331  1.0000
  O   O17       1.0  0.54627  0.049349999999999894  0.26504  1.0000
  O   O18       1.0  0.66526  0.37353  0.31608  1.0000
  O   O19       1.0  0.34374  0.6446299999999999  0.27381999999999995  1.0000
  O   O20       1.0  0.27678  0.9493199999999998  0.21208999999999997  1.0000
  O   O21       1.0  0.2898  0.72131  0.36668  1.0000
  O   O22       1.0  0.61592  0.47056  0.24809  1.0000
  O   O23       1.0  0.23753  0.9128799999999999  0.11718  1.0000
  O   O24       1.0  0.63094  0.05616999999999998  0.19455999999999998  1.0000
  O   O25       1.0  0.04785  0.9402  0.23427  1.0000
  O   O26       1.0  0.16668  0.6292599999999999  0.18325999999999998  1.0000
  O   O27       1.0  0.84399  0.3657699999999999  0.22837  1.0000
  O   O28       1.0  0.78329  0.07466999999999992  0.2864999999999999  1.0000
  O   O29       1.0  0.78746  0.28427  0.13613  1.0000
  O   O30       1.0  0.11945999999999998  0.5294899999999998  0.25096  1.0000
  O   O31       1.0  0.73907  0.06646999999999993  0.37484999999999996  1.0000
  O   O32       1.0  0.13464  0.95614  0.30669  1.0000
