data_image0
_chemical_formula_structural       Mn8H32C64O32
_chemical_formula_sum              "Mn8 H32 C64 O32"
_cell_length_a       11.26633
_cell_length_b       13.51096
_cell_length_c       16.984200000000005
_cell_angle_alpha    88.28535
_cell_angle_beta     90.03599
_cell_angle_gamma    89.95915999999998

_symmetry_space_group_name_H-M    'P 1'
_symmetry_Int_Tables_number       1

loop_
  _symmetry_equiv_pos_as_xyz
  'x,y,z'

loop_
  _atom_site_type_symbol
  _atom_site_label
  _atom_site_symmetry_multiplicity
  _atom_site_fract_x
  _atom_site_fract_y
  _atom_site_fract_z
  _atom_site_occupancy
  Mn  Mn1       1.0  0.07122  0.3827  0.45857  1.0000
  Mn  Mn2       1.0  0.94881  0.14129  0.47012  1.0000
  Mn  Mn3       1.0  0.5723  0.6165299999999998  0.041430000000000015  1.0000
  Mn  Mn4       1.0  0.45123  0.8578899999999998  0.030160000000000003  1.0000
  Mn  Mn5       1.0  0.9287900000000001  0.6173  0.54143  1.0000
  Mn  Mn6       1.0  0.051190000000000006  0.8587099999999998  0.52988  1.0000
  Mn  Mn7       1.0  0.4277  0.38347  0.95857  1.0000
  Mn  Mn8       1.0  0.54877  0.14210999999999996  0.96984  1.0000
  H   H1        1.0  0.90175  0.22073999999999994  0.66961  1.0000
  H   H2        1.0  0.77659  0.5224  0.66506  1.0000
  H   H3        1.0  0.79481  0.18902999999999995  0.7971800000000002  1.0000
  H   H4        1.0  0.66636  0.4883899999999999  0.79017  1.0000
  H   H5        1.0  0.30544  0.32113  0.26884  1.0000
  H   H6        1.0  0.18807000000000001  0.029679999999999988  0.34072  1.0000
  H   H7        1.0  0.40626  0.25152  0.1517  1.0000
  H   H8        1.0  0.29044  0.9596  0.22399  1.0000
  H   H9        1.0  0.40322  0.7795699999999998  0.83015  1.0000
  H   H10       1.0  0.27778  0.47799999999999987  0.83445  1.0000
  H   H11       1.0  0.29541  0.8116599999999998  0.70277  1.0000
  H   H12       1.0  0.16557  0.51288  0.7102600000000002  1.0000
  H   H13       1.0  0.8054  0.67902  0.23174  1.0000
  H   H14       1.0  0.68839  0.97076  0.15941  1.0000
  H   H15       1.0  0.90616  0.7484599999999998  0.34902  1.0000
  H   H16       1.0  0.79018  0.04045999999999998  0.2768400000000001  1.0000
  H   H17       1.0  0.09826000000000001  0.77927  0.33039  1.0000
  H   H18       1.0  0.22341000000000003  0.47759999999999997  0.33494000000000007  1.0000
  H   H19       1.0  0.20519  0.81097  0.20282  1.0000
  H   H20       1.0  0.33364  0.51161  0.20983  1.0000
  H   H21       1.0  0.69456  0.67888  0.73116  1.0000
  H   H22       1.0  0.81193  0.9703199999999997  0.65928  1.0000
  H   H23       1.0  0.59374  0.74848  0.8483000000000003  1.0000
  H   H24       1.0  0.70956  0.0404  0.77601  1.0000
  H   H25       1.0  0.59678  0.22043999999999994  0.16985  1.0000
  H   H26       1.0  0.72222  0.52201  0.16555000000000006  1.0000
  H   H27       1.0  0.70459  0.18833999999999995  0.29723  1.0000
  H   H28       1.0  0.83443  0.4871199999999999  0.28974  1.0000
  H   H29       1.0  0.19460000000000002  0.32099  0.7682600000000003  1.0000
  H   H30       1.0  0.31161  0.029239999999999985  0.84059  1.0000
  H   H31       1.0  0.09384  0.25153999999999993  0.65098  1.0000
  H   H32       1.0  0.20982  0.95954  0.7231600000000001  1.0000
  C   C1        1.0  0.90786  0.39588999999999985  0.5839700000000002  1.0000
  C   C2        1.0  0.846  0.3737099999999999  0.65965  1.0000
  C   C3        1.0  0.8518300000000001  0.2795  0.697  1.0000
  C   C4        1.0  0.78039  0.44962999999999986  0.69404  1.0000
  C   C5        1.0  0.7915  0.26156999999999997  0.7677200000000002  1.0000
  C   C6        1.0  0.71936  0.4310199999999999  0.76379  1.0000
  C   C7        1.0  0.72298  0.33664  0.80064  1.0000
  C   C8        1.0  0.64445  0.3170799999999999  0.8701000000000002  1.0000
  C   C9        1.0  0.1813  0.22108  0.38138  1.0000
  C   C10       1.0  0.24277  0.17941  0.31234  1.0000
  C   C11       1.0  0.30365  0.2420499999999999  0.2587  1.0000
  C   C12       1.0  0.23693  0.07733  0.29936  1.0000
  C   C13       1.0  0.36019  0.20296  0.19369  1.0000
  C   C14       1.0  0.29354  0.03846999999999998  0.23437  1.0000
  C   C15       1.0  0.35692  0.10060999999999998  0.18151000000000006  1.0000
  C   C16       1.0  0.41994  0.05760999999999999  0.11282000000000003  1.0000
  C   C17       1.0  0.41013  0.6047799999999998  0.9158  1.0000
  C   C18       1.0  0.34712  0.6269  0.84048  1.0000
  C   C19       1.0  0.35284  0.721  0.80298  1.0000
  C   C20       1.0  0.28117  0.55112  0.8061400000000002  1.0000
  C   C21       1.0  0.29218  0.73916  0.7323900000000002  1.0000
  C   C22       1.0  0.21933  0.56988  0.73662  1.0000
  C   C23       1.0  0.22325  0.66425  0.69974  1.0000
  C   C24       1.0  0.14591  0.6843999999999998  0.62979  1.0000
  C   C25       1.0  0.68149  0.7780299999999998  0.11914  1.0000
  C   C26       1.0  0.7424199999999999  0.8206099999999998  0.18809  1.0000
  C   C27       1.0  0.8032800000000001  0.7580299999999998  0.24194  1.0000
  C   C28       1.0  0.7366799999999999  0.9227899999999998  0.20087  1.0000
  C   C29       1.0  0.85977  0.7969899999999998  0.3069800000000001  1.0000
  C   C30       1.0  0.7928999999999999  0.9616299999999999  0.2660700000000001  1.0000
  C   C31       1.0  0.85583  0.8993199999999998  0.31905  1.0000
  C   C32       1.0  0.9178400000000001  0.94236  0.38792  1.0000
  C   C33       1.0  0.09215  0.6041199999999999  0.41603  1.0000
  C   C34       1.0  0.154  0.6262999999999999  0.3403400000000001  1.0000
  C   C35       1.0  0.14817  0.7205  0.303  1.0000
  C   C36       1.0  0.21961  0.55038  0.30596  1.0000
  C   C37       1.0  0.2085  0.7384399999999998  0.23227000000000006  1.0000
  C   C38       1.0  0.28064  0.56898  0.23621  1.0000
  C   C39       1.0  0.27702  0.6633599999999997  0.19936  1.0000
  C   C40       1.0  0.35555  0.68293  0.1299  1.0000
  C   C41       1.0  0.8187000000000001  0.7789199999999997  0.6186200000000002  1.0000
  C   C42       1.0  0.75723  0.82059  0.68766  1.0000
  C   C43       1.0  0.69635  0.7579499999999999  0.7412900000000002  1.0000
  C   C44       1.0  0.76307  0.92267  0.70064  1.0000
  C   C45       1.0  0.63981  0.79704  0.80631  1.0000
  C   C46       1.0  0.70646  0.96153  0.76562  1.0000
  C   C47       1.0  0.64308  0.8993899999999999  0.81849  1.0000
  C   C48       1.0  0.58006  0.94239  0.88718  1.0000
  C   C49       1.0  0.58987  0.39523  0.0842  1.0000
  C   C50       1.0  0.65288  0.37309999999999993  0.15952000000000005  1.0000
  C   C51       1.0  0.64716  0.279  0.19701000000000002  1.0000
  C   C52       1.0  0.71883  0.4488899999999999  0.19386  1.0000
  C   C53       1.0  0.70782  0.26084999999999997  0.26761  1.0000
  C   C54       1.0  0.7806700000000001  0.4301199999999999  0.26338  1.0000
  C   C55       1.0  0.77675  0.33576  0.3002600000000001  1.0000
  C   C56       1.0  0.8540900000000001  0.3156  0.37021  1.0000
  C   C57       1.0  0.31851  0.22196999999999995  0.88086  1.0000
  C   C58       1.0  0.25758  0.17939  0.81191  1.0000
  C   C59       1.0  0.19672  0.24196999999999994  0.7580500000000002  1.0000
  C   C60       1.0  0.26333  0.07720999999999999  0.79913  1.0000
  C   C61       1.0  0.14023  0.20300999999999994  0.69301  1.0000
  C   C62       1.0  0.2071  0.03836999999999998  0.7339300000000002  1.0000
  C   C63       1.0  0.14417  0.10067999999999996  0.6809500000000003  1.0000
  C   C64       1.0  0.08216  0.05764999999999998  0.61207  1.0000
  O   O1        1.0  0.98879  0.33614  0.56063  1.0000
  O   O2        1.0  0.87925  0.47409  0.54385  1.0000
  O   O3        1.0  0.56279  0.38081999999999994  0.88059  1.0000
  O   O4        1.0  0.6604  0.23845  0.91275  1.0000
  O   O5        1.0  0.19981000000000002  0.3119999999999999  0.39712000000000003  1.0000
  O   O6        1.0  0.11124000000000002  0.16481999999999994  0.42169  1.0000
  O   O7        1.0  0.38252  0.9750799999999997  0.08833000000000003  1.0000
  O   O8        1.0  0.50862  0.10574999999999997  0.0832  1.0000
  O   O9        1.0  0.49128  0.66441  0.9389000000000002  1.0000
  O   O10       1.0  0.3815  0.52701  0.95641  1.0000
  O   O11       1.0  0.06404  0.6208399999999997  0.61887  1.0000
  O   O12       1.0  0.1629  0.7632299999999997  0.5875300000000002  1.0000
  O   O13       1.0  0.69664  0.68581  0.10643000000000002  1.0000
  O   O14       1.0  0.61595  0.83477  0.07566  1.0000
  O   O15       1.0  0.87943  0.024469999999999992  0.41273  1.0000
  O   O16       1.0  0.00687  0.8944799999999998  0.4171  1.0000
  O   O17       1.0  0.01121  0.66386  0.43937  1.0000
  O   O18       1.0  0.12075  0.5259099999999999  0.45615  1.0000
  O   O19       1.0  0.43721000000000004  0.61918  0.11941  1.0000
  O   O20       1.0  0.3396  0.7615499999999997  0.08725  1.0000
  O   O21       1.0  0.80019  0.6879999999999997  0.60288  1.0000
  O   O22       1.0  0.8887600000000001  0.8351799999999998  0.57831  1.0000
  O   O23       1.0  0.61748  0.024919999999999987  0.91167  1.0000
  O   O24       1.0  0.49138000000000004  0.8942599999999998  0.9168  1.0000
  O   O25       1.0  0.50872  0.33559  0.06110000000000001  1.0000
  O   O26       1.0  0.6185  0.473  0.04358  1.0000
  O   O27       1.0  0.9359600000000001  0.37916999999999995  0.3811300000000001  1.0000
  O   O28       1.0  0.8371  0.23678  0.41247  1.0000
  O   O29       1.0  0.30336  0.31419  0.8935700000000002  1.0000
  O   O30       1.0  0.38405  0.1652299999999999  0.9243300000000002  1.0000
  O   O31       1.0  0.12057  0.9755299999999998  0.58727  1.0000
  O   O32       1.0  0.9931300000000001  0.10551999999999996  0.5829000000000002  1.0000
