data_image0
_chemical_formula_structural       Cu6H48C30N18O6
_chemical_formula_sum              "Cu6 H48 C30 N18 O6"
_cell_length_a       12.61313
_cell_length_b       13.25592
_cell_length_c       13.16908
_cell_angle_alpha    113.86009
_cell_angle_beta     108.91634
_cell_angle_gamma    108.44225

_space_group_name_H-M_alt    "P 1"
_space_group_IT_number       1

loop_
  _space_group_symop_operation_xyz
  'x, y, z'

loop_
  _atom_site_type_symbol
  _atom_site_label
  _atom_site_symmetry_multiplicity
  _atom_site_fract_x
  _atom_site_fract_y
  _atom_site_fract_z
  _atom_site_occupancy
  Cu  Cu1       1.0  0.93615  0.45636  0.57646  1.0000
  Cu  Cu2       1.0  0.45737999999999995  0.10679999999999999  0.52187  1.0000
  Cu  Cu3       1.0  0.3600499999999999  0.42660999999999993  0.8793499999999999  1.0000
  Cu  Cu4       1.0  0.06384999999999993  0.54364  0.42354  1.0000
  Cu  Cu5       1.0  0.5426199999999999  0.89319  0.47812999999999994  1.0000
  Cu  Cu6       1.0  0.6399499999999998  0.57338  0.12065  1.0000
  H   H1        1.0  0.10381999999999994  0.3405099999999999  0.65578  1.0000
  H   H2        1.0  0.13159  0.64516  0.04074  1.0000
  H   H3        1.0  0.9362299999999999  0.5282199999999999  0.8184899999999999  1.0000
  H   H4        1.0  0.36806  0.69931  0.15797  1.0000
  H   H5        1.0  0.4300599999999999  0.62158  0.06637  1.0000
  H   H6        1.0  0.87905  0.2045  0.31015  1.0000
  H   H7        1.0  0.75058  0.21175  0.20896999999999996  1.0000
  H   H8        1.0  0.90116  0.25747000000000003  0.20893000000000003  1.0000
  H   H9        1.0  0.7566399999999999  0.33236  0.64761  1.0000
  H   H10       1.0  0.48708  0.3991000000000001  0.35356  1.0000
  H   H11       1.0  0.41619  0.33132  0.48442999999999997  1.0000
  H   H12       1.0  0.67445  0.4497  0.30415  1.0000
  H   H13       1.0  0.80795  0.43407  0.37858  1.0000
  H   H14       1.0  0.6434199999999999  0.1112899999999999  0.7849999999999999  1.0000
  H   H15       1.0  0.51871  0.9940000000000001  0.77822  1.0000
  H   H16       1.0  0.63612  0.9593300000000002  0.74189  1.0000
  H   H17       1.0  0.44103000000000003  0.32569000000000004  0.67215  1.0000
  H   H18       1.0  0.09209999999999997  0.96507  0.60256  1.0000
  H   H19       1.0  0.11939  0.18558  0.70603  1.0000
  H   H20       1.0  0.19556  0.84619  0.53093  1.0000
  H   H21       1.0  0.35735999999999996  0.92529  0.55686  1.0000
  H   H22       1.0  0.55349  0.66109  0.88504  1.0000
  H   H23       1.0  0.52129  0.76192  0.9968499999999999  1.0000
  H   H24       1.0  0.6823  0.78055  0.05097999999999999  1.0000
  H   H25       1.0  0.8961799999999998  0.6594900000000001  0.34422  1.0000
  H   H26       1.0  0.86841  0.35483999999999993  0.95926  1.0000
  H   H27       1.0  0.06376999999999994  0.47178  0.18151  1.0000
  H   H28       1.0  0.6319399999999998  0.30068999999999996  0.8420299999999998  1.0000
  H   H29       1.0  0.5699400000000001  0.3784200000000001  0.93363  1.0000
  H   H30       1.0  0.12095000000000003  0.7955000000000001  0.68985  1.0000
  H   H31       1.0  0.24941999999999995  0.78824  0.79103  1.0000
  H   H32       1.0  0.09883999999999998  0.74253  0.79107  1.0000
  H   H33       1.0  0.24336  0.66763  0.35239  1.0000
  H   H34       1.0  0.5129200000000002  0.6009000000000002  0.64644  1.0000
  H   H35       1.0  0.58381  0.66868  0.51557  1.0000
  H   H36       1.0  0.32555  0.5503  0.69585  1.0000
  H   H37       1.0  0.19204999999999994  0.56593  0.62142  1.0000
  H   H38       1.0  0.35658  0.88871  0.215  1.0000
  H   H39       1.0  0.48129  0.005990000000000009  0.22178  1.0000
  H   H40       1.0  0.3638700000000001  0.040660000000000016  0.25811  1.0000
  H   H41       1.0  0.55897  0.67431  0.32785  1.0000
  H   H42       1.0  0.9079  0.03492999999999999  0.39744  1.0000
  H   H43       1.0  0.88061  0.81442  0.29397  1.0000
  H   H44       1.0  0.8044399999999998  0.15381000000000006  0.46907000000000004  1.0000
  H   H45       1.0  0.64263  0.07470999999999998  0.44314  1.0000
  H   H46       1.0  0.4465099999999999  0.3389  0.11496999999999999  1.0000
  H   H47       1.0  0.47871  0.23808  0.00315  1.0000
  H   H48       1.0  0.3177  0.21943999999999994  0.94902  1.0000
  C   C1        1.0  0.12799000000000002  0.57872  0.95556  1.0000
  C   C2        1.0  0.11042000000000002  0.40997  0.74168  1.0000
  C   C3        1.0  0.02014999999999995  0.5152699999999999  0.8335599999999999  1.0000
  C   C4        1.0  0.23477  0.55973  0.96655  1.0000
  C   C5        1.0  0.8587299999999999  0.26101  0.27191  1.0000
  C   C6        1.0  0.55145  0.39032  0.42359  1.0000
  C   C7        1.0  0.6980700000000003  0.35240000000000005  0.58625  1.0000
  C   C8        1.0  0.5099  0.34856  0.49194  1.0000
  C   C9        1.0  0.6763199999999999  0.41428000000000004  0.44183  1.0000
  C   C10       1.0  0.57691  0.006080000000000039  0.73195  1.0000
  C   C11       1.0  0.16863  0.04519999999999995  0.61616  1.0000
  C   C12       1.0  0.36106  0.24538000000000001  0.65515  1.0000
  C   C13       1.0  0.18323999999999993  0.16539  0.67267  1.0000
  C   C14       1.0  0.26212  0.029269999999999987  0.58454  1.0000
  C   C15       1.0  0.57486  0.70931  0.98626  1.0000
  C   C16       1.0  0.872  0.42127  0.04444  1.0000
  C   C17       1.0  0.88958  0.59002  0.25832  1.0000
  C   C18       1.0  0.9798499999999999  0.48473000000000005  0.16644  1.0000
  C   C19       1.0  0.76523  0.44026  0.03345  1.0000
  C   C20       1.0  0.14126999999999998  0.73898  0.72809  1.0000
  C   C21       1.0  0.44855  0.60968  0.57641  1.0000
  C   C22       1.0  0.30193  0.6476  0.41374999999999995  1.0000
  C   C23       1.0  0.4901  0.65144  0.50806  1.0000
  C   C24       1.0  0.32368  0.58571  0.55817  1.0000
  C   C25       1.0  0.42309  0.99392  0.26805  1.0000
  C   C26       1.0  0.8313699999999998  0.9547999999999999  0.38384  1.0000
  C   C27       1.0  0.63894  0.75461  0.34485  1.0000
  C   C28       1.0  0.81676  0.8346  0.32733  1.0000
  C   C29       1.0  0.73788  0.97072  0.41545999999999994  1.0000
  C   C30       1.0  0.42512999999999995  0.29069  0.01374  1.0000
  N   N1        1.0  0.011069999999999962  0.43194  0.72275  1.0000
  N   N2        1.0  0.21972000000000005  0.46731000000000006  0.8560300000000001  1.0000
  N   N3        1.0  0.34961  0.62127  0.07786  1.0000
  N   N4        1.0  0.5816299999999999  0.32655  0.57359  1.0000
  N   N5        1.0  0.75175  0.39959000000000006  0.53074  1.0000
  N   N6        1.0  0.73176  0.45369  0.38223  1.0000
  N   N7        1.0  0.28135  0.269  0.69479  1.0000
  N   N8        1.0  0.35644  0.1316400000000001  0.60039  1.0000
  N   N9        1.0  0.26222  0.91807  0.53611  1.0000
  N   N10       1.0  0.9889300000000001  0.56805  0.27725  1.0000
  N   N11       1.0  0.7802799999999999  0.53269  0.14397  1.0000
  N   N12       1.0  0.6503899999999999  0.37872000000000006  0.92214  1.0000
  N   N13       1.0  0.41837  0.67344  0.42641  1.0000
  N   N14       1.0  0.24824999999999997  0.60041  0.46926  1.0000
  N   N15       1.0  0.26824  0.54631  0.61777  1.0000
  N   N16       1.0  0.7186499999999999  0.731  0.30521  1.0000
  N   N17       1.0  0.6435599999999998  0.86836  0.39960999999999997  1.0000
  N   N18       1.0  0.73778  0.08192000000000002  0.46389  1.0000
  O   O1        1.0  0.9093699999999999  0.3885  0.37714  1.0000
  O   O2        1.0  0.49228  0.95364  0.59923  1.0000
  O   O3        1.0  0.5331099999999998  0.61732  0.015500000000000002  1.0000
  O   O4        1.0  0.09063000000000002  0.61149  0.62286  1.0000
  O   O5        1.0  0.50772  0.04635999999999996  0.40076999999999996  1.0000
  O   O6        1.0  0.46688  0.38267  0.9845  1.0000
