data_image0
_chemical_formula_structural       Y4H24C48O24
_chemical_formula_sum              "Y4 H24 C48 O24"
_cell_length_a       10.88686
_cell_length_b       10.877880000000001
_cell_length_c       18.304430000000004
_cell_angle_alpha    73.94031
_cell_angle_beta     73.75585
_cell_angle_gamma    66.45605

_space_group_name_H-M_alt    "P 1"
_space_group_IT_number       1

loop_
  _space_group_symop_operation_xyz
  'x, y, z'

loop_
  _atom_site_type_symbol
  _atom_site_label
  _atom_site_symmetry_multiplicity
  _atom_site_fract_x
  _atom_site_fract_y
  _atom_site_fract_z
  _atom_site_occupancy
  Y   Y1        1.0  0.54405  0.4421999999999999  0.60114  1.0000
  Y   Y2        1.0  0.5579800000000003  0.45559999999999995  0.8987  1.0000
  Y   Y3        1.0  0.4559500000000003  0.5578  0.39887  1.0000
  Y   Y4        1.0  0.44201999999999997  0.54441  0.1013  1.0000
  H   H1        1.0  0.5481900000000001  0.78275  0.59666  1.0000
  H   H2        1.0  0.5040699999999998  0.10182  0.72198  1.0000
  H   H3        1.0  0.42169  0.014139999999999984  0.3819100000000001  1.0000
  H   H4        1.0  0.3851100000000001  0.20882999999999993  0.947  1.0000
  H   H5        1.0  0.36405000000000004  0.9795999999999999  0.007960000000000004  1.0000
  H   H6        1.0  0.4893400000000001  0.8685699999999998  0.78384  1.0000
  H   H7        1.0  0.21772999999999998  0.45172999999999996  0.9032  1.0000
  H   H8        1.0  0.8970499999999999  0.49598999999999976  0.7778200000000002  1.0000
  H   H9        1.0  0.98516  0.57801  0.11856  1.0000
  H   H10       1.0  0.7919  0.6150899999999998  0.55265  1.0000
  H   H11       1.0  0.02142000000000007  0.63632  0.49208  1.0000
  H   H12       1.0  0.13045999999999994  0.5109499999999998  0.7161800000000003  1.0000
  H   H13       1.0  0.4518099999999999  0.21726000000000004  0.40334  1.0000
  H   H14       1.0  0.49593  0.89818  0.27802  1.0000
  H   H15       1.0  0.5783099999999999  0.98587  0.61809  1.0000
  H   H16       1.0  0.6148900000000002  0.7911699999999997  0.05300000000000001  1.0000
  H   H17       1.0  0.63595  0.02041000000000003  0.99204  1.0000
  H   H18       1.0  0.51066  0.13142999999999996  0.21616000000000005  1.0000
  H   H19       1.0  0.7822700000000001  0.5482699999999999  0.09680000000000002  1.0000
  H   H20       1.0  0.10294999999999999  0.50401  0.22218000000000004  1.0000
  H   H21       1.0  0.01483000000000001  0.42199999999999993  0.88144  1.0000
  H   H22       1.0  0.20810000000000003  0.3849099999999999  0.4473500000000001  1.0000
  H   H23       1.0  0.9785800000000001  0.36369  0.50792  1.0000
  H   H24       1.0  0.86954  0.48905  0.28382  1.0000
  C   C1        1.0  0.47174999999999995  0.29846999999999996  0.7955400000000002  1.0000
  C   C2        1.0  0.48346999999999984  0.8857299999999999  0.48767000000000005  1.0000
  C   C3        1.0  0.4285800000000003  0.9104199999999999  0.89951  1.0000
  C   C4        1.0  0.43870999999999993  0.7673099999999999  0.93701  1.0000
  C   C5        1.0  0.4481099999999998  0.16679000000000002  0.83119  1.0000
  C   C6        1.0  0.46854  0.7646399999999999  0.4723300000000001  1.0000
  C   C7        1.0  0.5273900000000002  0.8779099999999999  0.55462  1.0000
  C   C8        1.0  0.4738999999999998  0.07295999999999991  0.7843900000000003  1.0000
  C   C9        1.0  0.4561699999999999  0.008879999999999987  0.4333600000000001  1.0000
  C   C10       1.0  0.4054199999999999  0.1347599999999999  0.9116900000000002  1.0000
  C   C11       1.0  0.39419000000000004  0.007439999999999947  0.9456200000000001  1.0000
  C   C12       1.0  0.4652800000000002  0.9447199999999998  0.8185400000000003  1.0000
  C   C13       1.0  0.70143  0.52815  0.70424  1.0000
  C   C14       1.0  0.11416999999999998  0.51627  0.01242  1.0000
  C   C15       1.0  0.08944000000000002  0.57185  0.60054  1.0000
  C   C16       1.0  0.23262999999999998  0.5617499999999999  0.5631400000000002  1.0000
  C   C17       1.0  0.83308  0.55195  0.66855  1.0000
  C   C18       1.0  0.23539000000000007  0.5308099999999999  0.02763  1.0000
  C   C19       1.0  0.12225999999999988  0.47257999999999994  0.9452400000000001  1.0000
  C   C20       1.0  0.92639  0.52622  0.71546  1.0000
  C   C21       1.0  0.9908199999999999  0.54368  0.0669  1.0000
  C   C22       1.0  0.8655400000000002  0.5947599999999998  0.5881  1.0000
  C   C23       1.0  0.9929300000000002  0.6061599999999998  0.5543600000000002  1.0000
  C   C24       1.0  0.05465999999999996  0.5350199999999999  0.6814400000000003  1.0000
  C   C25       1.0  0.5282499999999999  0.7015299999999998  0.20446000000000006  1.0000
  C   C26       1.0  0.51653  0.11426999999999993  0.51233  1.0000
  C   C27       1.0  0.57142  0.08958  0.10049000000000001  1.0000
  C   C28       1.0  0.56129  0.23268999999999998  0.06299000000000003  1.0000
  C   C29       1.0  0.55189  0.8332099999999999  0.16881  1.0000
  C   C30       1.0  0.53146  0.23536  0.52767  1.0000
  C   C31       1.0  0.47261  0.12208999999999999  0.44538  1.0000
  C   C32       1.0  0.5260999999999999  0.92704  0.21561000000000002  1.0000
  C   C33       1.0  0.5438299999999998  0.9911199999999999  0.5666400000000003  1.0000
  C   C34       1.0  0.5945800000000001  0.8652399999999999  0.08831  1.0000
  C   C35       1.0  0.60581  0.99256  0.05438000000000001  1.0000
  C   C36       1.0  0.53472  0.05527999999999996  0.18146  1.0000
  C   C37       1.0  0.29855999999999994  0.47186  0.29576000000000013  1.0000
  C   C38       1.0  0.8858299999999997  0.4837299999999999  0.9875800000000001  1.0000
  C   C39       1.0  0.91056  0.42815999999999993  0.39946  1.0000
  C   C40       1.0  0.7673699999999999  0.43824999999999986  0.43686000000000014  1.0000
  C   C41       1.0  0.16691999999999987  0.44804999999999995  0.33146  1.0000
  C   C42       1.0  0.7646100000000001  0.46919  0.97238  1.0000
  C   C43       1.0  0.87774  0.52742  0.05476  1.0000
  C   C44       1.0  0.07361000000000002  0.4737799999999999  0.28454  1.0000
  C   C45       1.0  0.009180000000000018  0.45632999999999996  0.9331000000000002  1.0000
  C   C46       1.0  0.13446  0.40524  0.4119  1.0000
  C   C47       1.0  0.007070000000000005  0.3938499999999999  0.4456400000000001  1.0000
  C   C48       1.0  0.9453399999999998  0.46498999999999996  0.31856  1.0000
  O   O1        1.0  0.5031300000000001  0.32775  0.72238  1.0000
  O   O2        1.0  0.4595399999999997  0.37474  0.8412  1.0000
  O   O3        1.0  0.50281  0.6487099999999999  0.5187  1.0000
  O   O4        1.0  0.49042  0.6791499999999998  0.8926500000000003  1.0000
  O   O5        1.0  0.4257100000000001  0.7772299999999996  0.4117600000000001  1.0000
  O   O6        1.0  0.40163  0.7395599999999999  0.01044  1.0000
  O   O7        1.0  0.6722699999999998  0.49639  0.77737  1.0000
  O   O8        1.0  0.6250299999999999  0.54051  0.65879  1.0000
  O   O9        1.0  0.35107000000000005  0.49703999999999987  0.98075  1.0000
  O   O10       1.0  0.32065  0.5096799999999999  0.6073300000000003  1.0000
  O   O11       1.0  0.22326999999999997  0.5728799999999998  0.08849  1.0000
  O   O12       1.0  0.26070999999999994  0.59919  0.48978  1.0000
  O   O13       1.0  0.49687  0.67225  0.27762  1.0000
  O   O14       1.0  0.5404599999999998  0.62527  0.15880000000000005  1.0000
  O   O15       1.0  0.49718  0.3513  0.4813  1.0000
  O   O16       1.0  0.50958  0.32085999999999987  0.10735000000000003  1.0000
  O   O17       1.0  0.5742899999999999  0.22278  0.5882400000000001  1.0000
  O   O18       1.0  0.59837  0.26044999999999996  0.98956  1.0000
  O   O19       1.0  0.32772  0.5036099999999999  0.22263000000000005  1.0000
  O   O20       1.0  0.3749700000000001  0.4595  0.34121  1.0000
  O   O21       1.0  0.64892  0.50296  0.019250000000000007  1.0000
  O   O22       1.0  0.67935  0.4903199999999999  0.39267  1.0000
  O   O23       1.0  0.77673  0.42713  0.91151  1.0000
  O   O24       1.0  0.7392899999999998  0.4008099999999999  0.5102200000000002  1.0000
