data_image0
_chemical_formula_structural       Zn5Si2H34C56O18
_chemical_formula_sum              "Zn5 Si2 H34 C56 O18"
_cell_length_a       13.74377
_cell_length_b       14.289580000000003
_cell_length_c       14.81725
_cell_angle_alpha    106.09457
_cell_angle_beta     113.1706
_cell_angle_gamma    100.10345

_space_group_name_H-M_alt    "P 1"
_space_group_IT_number       1

loop_
  _space_group_symop_operation_xyz
  'x, y, z'

loop_
  _atom_site_type_symbol
  _atom_site_label
  _atom_site_symmetry_multiplicity
  _atom_site_fract_x
  _atom_site_fract_y
  _atom_site_fract_z
  _atom_site_occupancy
  Zn  Zn1       1.0  0.47146  0.8001900000000003  0.55509  1.0000
  Zn  Zn2       1.0  0.6503800000000001  0.013960000000000016  0.76393  1.0000
  Zn  Zn3       1.0  0.52855  0.19980000000000006  0.44491  1.0000
  Zn  Zn4       1.0  0.34962  0.98604  0.23607  1.0000
  Zn  Zn5       1.0  0.5  0.0  0.5  1.0000
  Si  Si1       1.0  0.76285  0.63775  0.12001  1.0000
  Si  Si2       1.0  0.2371600000000001  0.36224  0.87999  1.0000
  H   H1        1.0  0.11592  0.75167  0.46196  1.0000
  H   H2        1.0  0.9099400000000002  0.6896100000000001  0.34893  1.0000
  H   H3        1.0  0.95791  0.71738  0.08537999999999998  1.0000
  H   H4        1.0  0.16226  0.7887000000000002  0.20188999999999996  1.0000
  H   H5        1.0  0.5299800000000001  0.6150100000000002  0.74679  1.0000
  H   H6        1.0  0.58911  0.5443800000000002  0.8881599999999998  1.0000
  H   H7        1.0  0.8443500000000002  0.8370000000000002  0.10495  1.0000
  H   H8        1.0  0.78713  0.9041400000000003  0.96125  1.0000
  H   H9        1.0  0.51783  0.26378000000000007  0.91788  1.0000
  H   H10       1.0  0.5526600000000002  0.4472200000000001  0.01582  1.0000
  H   H11       1.0  0.90144  0.51229  0.09305  1.0000
  H   H12       1.0  0.86404  0.32852  0.99217  1.0000
  H   H13       1.0  0.56502  0.61192  0.34338  1.0000
  H   H14       1.0  0.63594  0.53719  0.21845  1.0000
  H   H15       1.0  0.7397  0.8353600000000002  0.20777  1.0000
  H   H16       1.0  0.6708400000000001  0.9081700000000004  0.3338  1.0000
  H   H17       1.0  0.4574800000000001  0.9801100000000005  0.64033  1.0000
  H   H18       1.0  0.88409  0.24832000000000004  0.53804  1.0000
  H   H19       1.0  0.09006000000000003  0.31038000000000004  0.65107  1.0000
  H   H20       1.0  0.042089999999999975  0.2826099999999999  0.9146099999999999  1.0000
  H   H21       1.0  0.83775  0.21129999999999996  0.7981099999999999  1.0000
  H   H22       1.0  0.47002  0.38498  0.25321  1.0000
  H   H23       1.0  0.41089  0.4556100000000001  0.11184  1.0000
  H   H24       1.0  0.1556599999999999  0.1629899999999999  0.8950499999999999  1.0000
  H   H25       1.0  0.21287000000000003  0.09586  0.03875  1.0000
  H   H26       1.0  0.48217  0.73621  0.08212  1.0000
  H   H27       1.0  0.44734000000000007  0.5527700000000002  0.98418  1.0000
  H   H28       1.0  0.09857000000000007  0.4877100000000001  0.90694  1.0000
  H   H29       1.0  0.13596  0.67147  0.00783  1.0000
  H   H30       1.0  0.43498  0.38807  0.65662  1.0000
  H   H31       1.0  0.36406  0.4628  0.78155  1.0000
  H   H32       1.0  0.26030000000000003  0.16462999999999997  0.79223  1.0000
  H   H33       1.0  0.32915999999999995  0.09183  0.6661999999999999  1.0000
  H   H34       1.0  0.54252  0.019889999999999984  0.35966999999999993  1.0000
  C   C1        1.0  0.27557000000000004  0.8132100000000002  0.40825  1.0000
  C   C2        1.0  0.15167000000000003  0.7751600000000002  0.33939  1.0000
  C   C3        1.0  0.08004000000000004  0.7456000000000003  0.37995  1.0000
  C   C4        1.0  0.9645300000000001  0.7095900000000005  0.31549  1.0000
  C   C5        1.0  0.9179100000000001  0.69796  0.20803  1.0000
  C   C6        1.0  0.9912300000000002  0.7262400000000002  0.1683  1.0000
  C   C7        1.0  0.10671  0.76637  0.23347  1.0000
  C   C8        1.0  0.6214000000000002  0.8073899999999999  0.7618299999999999  1.0000
  C   C9        1.0  0.65498  0.76376  0.84554  1.0000
  C   C10       1.0  0.59866  0.6625200000000002  0.8255899999999999  1.0000
  C   C11       1.0  0.63161  0.6240700000000002  0.90593  1.0000
  C   C12       1.0  0.71971  0.6860500000000002  0.00846  1.0000
  C   C13       1.0  0.77483  0.78769  0.027119999999999995  1.0000
  C   C14       1.0  0.7438500000000001  0.8260100000000001  0.94681  1.0000
  C   C15       1.0  0.66655  0.17645000000000005  0.88483  1.0000
  C   C16       1.0  0.68878  0.28509  0.94901  1.0000
  C   C17       1.0  0.60143  0.3188200000000001  0.95688  1.0000
  C   C18       1.0  0.62213  0.4227800000000001  0.01188  1.0000
  C   C19       1.0  0.72992  0.49476000000000003  0.06076999999999999  1.0000
  C   C20       1.0  0.8170300000000001  0.4586500000000001  0.05439  1.0000
  C   C21       1.0  0.79692  0.3554000000000001  0.99862  1.0000
  C   C22       1.0  0.57414  0.81176  0.42335  1.0000
  C   C23       1.0  0.6135299999999998  0.76465  0.34616  1.0000
  C   C24       1.0  0.60323  0.65975  0.31273  1.0000
  C   C25       1.0  0.64305  0.6184000000000001  0.24233  1.0000
  C   C26       1.0  0.6931100000000001  0.6805000000000002  0.20326  1.0000
  C   C27       1.0  0.70164  0.7853800000000002  0.2368  1.0000
  C   C28       1.0  0.66282  0.8270300000000003  0.30729  1.0000
  C   C29       1.0  0.72443  0.1867900000000001  0.59174  1.0000
  C   C30       1.0  0.84833  0.22483000000000003  0.66061  1.0000
  C   C31       1.0  0.9199700000000002  0.2544  0.62005  1.0000
  C   C32       1.0  0.035480000000000046  0.2904100000000001  0.68451  1.0000
  C   C33       1.0  0.08210000000000005  0.30203000000000013  0.79197  1.0000
  C   C34       1.0  0.008769999999999983  0.27375  0.8317  1.0000
  C   C35       1.0  0.89329  0.23362000000000002  0.76652  1.0000
  C   C36       1.0  0.3786100000000001  0.1926  0.23816  1.0000
  C   C37       1.0  0.34502000000000005  0.2362300000000001  0.15446  1.0000
  C   C38       1.0  0.40135  0.3374700000000001  0.17441  1.0000
  C   C39       1.0  0.36839  0.37592  0.09406  1.0000
  C   C40       1.0  0.28029  0.31394  0.99154  1.0000
  C   C41       1.0  0.22517000000000006  0.21231000000000005  0.97288  1.0000
  C   C42       1.0  0.25616  0.17399000000000006  0.05319  1.0000
  C   C43       1.0  0.33346  0.8235400000000003  0.11517  1.0000
  C   C44       1.0  0.3112200000000001  0.71491  0.050989999999999994  1.0000
  C   C45       1.0  0.3985700000000001  0.68117  0.04312  1.0000
  C   C46       1.0  0.37788  0.57721  0.98812  1.0000
  C   C47       1.0  0.27008  0.50523  0.93923  1.0000
  C   C48       1.0  0.18297  0.5413500000000001  0.9455999999999999  1.0000
  C   C49       1.0  0.20309  0.6446  0.0013799999999999997  1.0000
  C   C50       1.0  0.4258600000000001  0.18823999999999996  0.57664  1.0000
  C   C51       1.0  0.38648000000000005  0.2353400000000001  0.6538400000000001  1.0000
  C   C52       1.0  0.3967800000000001  0.3402400000000001  0.68727  1.0000
  C   C53       1.0  0.35694999999999993  0.38159  0.75766  1.0000
  C   C54       1.0  0.30689  0.31949000000000005  0.79673  1.0000
  C   C55       1.0  0.29835999999999996  0.21460999999999997  0.7631999999999999  1.0000
  C   C56       1.0  0.33719  0.17296  0.6927099999999999  1.0000
  O   O1        1.0  0.31052  0.7730800000000002  0.47845  1.0000
  O   O2        1.0  0.33706  0.8792200000000001  0.3943999999999999  1.0000
  O   O3        1.0  0.68929  0.8938400000000001  0.78168  1.0000
  O   O4        1.0  0.5286100000000001  0.7574600000000002  0.67722  1.0000
  O   O5        1.0  0.7478  0.15213  0.86954  1.0000
  O   O6        1.0  0.5719399999999999  0.10843000000000004  0.84263  1.0000
  O   O7        1.0  0.53361  0.7519300000000001  0.45981999999999995  1.0000
  O   O8        1.0  0.5847100000000001  0.9069200000000002  0.44894  1.0000
  O   O9        1.0  0.51501  0.9569400000000001  0.62671  1.0000
  O   O10       1.0  0.68949  0.22692  0.52154  1.0000
  O   O11       1.0  0.66294  0.12077000000000003  0.60559  1.0000
  O   O12       1.0  0.31071  0.10614999999999998  0.21831  1.0000
  O   O13       1.0  0.47139  0.24253000000000005  0.32277  1.0000
  O   O14       1.0  0.25221  0.84786  0.13046  1.0000
  O   O15       1.0  0.4280600000000001  0.8915600000000002  0.15737  1.0000
  O   O16       1.0  0.4664  0.2480700000000001  0.54018  1.0000
  O   O17       1.0  0.41529  0.09306999999999997  0.55105  1.0000
  O   O18       1.0  0.48499  0.04305  0.37329  1.0000
