data_image0
_chemical_formula_structural       Cu4H30C48N2O16
_chemical_formula_sum              "Cu4 H30 C48 N2 O16"
_cell_length_a       11.56251
_cell_length_b       11.56227
_cell_length_c       18.90044
_cell_angle_alpha    94.82420999999998
_cell_angle_beta     94.8352
_cell_angle_gamma    96.88122999999999

_space_group_name_H-M_alt    "P 1"
_space_group_IT_number       1

loop_
  _space_group_symop_operation_xyz
  'x, y, z'

loop_
  _atom_site_type_symbol
  _atom_site_label
  _atom_site_symmetry_multiplicity
  _atom_site_fract_x
  _atom_site_fract_y
  _atom_site_fract_z
  _atom_site_occupancy
  Cu  Cu1       1.0  0.91231  0.0252  0.52629  1.0000
  Cu  Cu2       1.0  0.9747900000000003  0.08768999999999999  0.9737  1.0000
  Cu  Cu3       1.0  0.08769000000000003  0.9748  0.47371  1.0000
  Cu  Cu4       1.0  0.025209999999999993  0.91231  0.0263  1.0000
  H   H1        1.0  0.78509  0.23286  0.36562  1.0000
  H   H2        1.0  0.6727500000000001  0.70248  0.47317  1.0000
  H   H3        1.0  0.56534  0.51375  0.4149899999999999  1.0000
  H   H4        1.0  0.8567600000000002  0.4640599999999999  0.29336  1.0000
  H   H5        1.0  0.5450500000000001  0.3752499999999999  0.30153  1.0000
  H   H6        1.0  0.63357  0.29512  0.35286  1.0000
  H   H7        1.0  0.96452  0.65171  0.3529999999999999  1.0000
  H   H8        1.0  0.76712  0.21493  0.13437  1.0000
  H   H9        1.0  0.29749  0.32726  0.026809999999999997  1.0000
  H   H10       1.0  0.4862300000000003  0.43467  0.08501  1.0000
  H   H11       1.0  0.53597  0.14323  0.20664999999999994  1.0000
  H   H12       1.0  0.6247400000000001  0.45496  0.19844999999999996  1.0000
  H   H13       1.0  0.7048800000000001  0.36644  0.14715  1.0000
  H   H14       1.0  0.3483  0.03547  0.14701  1.0000
  H   H15       1.0  0.21491  0.7671400000000002  0.63438  1.0000
  H   H16       1.0  0.32725  0.29751  0.52683  1.0000
  H   H17       1.0  0.43466  0.48625  0.58501  1.0000
  H   H18       1.0  0.14324  0.53594  0.70664  1.0000
  H   H19       1.0  0.45495  0.62474  0.6984699999999999  1.0000
  H   H20       1.0  0.3664300000000001  0.7048800000000001  0.64714  1.0000
  H   H21       1.0  0.035480000000000005  0.34829  0.647  1.0000
  H   H22       1.0  0.23289000000000004  0.78507  0.86563  1.0000
  H   H23       1.0  0.7025100000000001  0.67274  0.9731899999999999  1.0000
  H   H24       1.0  0.5137700000000001  0.56533  0.91499  1.0000
  H   H25       1.0  0.46403  0.85677  0.79335  1.0000
  H   H26       1.0  0.37526000000000004  0.54504  0.80155  1.0000
  H   H27       1.0  0.2951300000000001  0.63356  0.85285  1.0000
  H   H28       1.0  0.6517000000000001  0.9645300000000002  0.85299  1.0000
  H   H29       1.0  0.9900500000000002  0.009959999999999993  0.25000999999999995  1.0000
  H   H30       1.0  0.00995999999999995  0.99004  0.7499899999999999  1.0000
  C   C1        1.0  0.8091600000000001  0.19944  0.31424  1.0000
  C   C2        1.0  0.88971  0.11832  0.31385  1.0000
  C   C3        1.0  0.8900500000000002  0.80148  0.44950999999999997  1.0000
  C   C4        1.0  0.7043100000000002  0.47608000000000006  0.3505  1.0000
  C   C5        1.0  0.8254400000000002  0.688  0.4166099999999999  1.0000
  C   C6        1.0  0.7125800000000001  0.64914  0.43422  1.0000
  C   C7        1.0  0.65309  0.54371  0.40153999999999995  1.0000
  C   C8        1.0  0.81675  0.51548  0.33316  1.0000
  C   C9        1.0  0.63675  0.36217  0.31491  1.0000
  C   C10       1.0  0.8772000000000001  0.6202900000000001  0.36612999999999996  1.0000
  C   C11       1.0  0.93413  0.07895  0.38315  1.0000
  C   C12       1.0  0.8005499999999998  0.19085  0.18576  1.0000
  C   C13       1.0  0.8816800000000002  0.11029  0.18614999999999995  1.0000
  C   C14       1.0  0.19851000000000002  0.10995  0.05047999999999999  1.0000
  C   C15       1.0  0.5239100000000001  0.29569  0.1495  1.0000
  C   C16       1.0  0.31200000000000006  0.17456  0.08339  1.0000
  C   C17       1.0  0.3508400000000001  0.28743  0.06577  1.0000
  C   C18       1.0  0.45628000000000013  0.34692  0.09846  1.0000
  C   C19       1.0  0.48453  0.18324000000000001  0.16684999999999994  1.0000
  C   C20       1.0  0.63783  0.36326  0.18509  1.0000
  C   C21       1.0  0.37972  0.1228  0.13386999999999996  1.0000
  C   C22       1.0  0.92104  0.06588  0.11685  1.0000
  C   C23       1.0  0.19084000000000004  0.80056  0.68576  1.0000
  C   C24       1.0  0.11029  0.88168  0.68615  1.0000
  C   C25       1.0  0.10995  0.19852000000000003  0.55049  1.0000
  C   C26       1.0  0.29569  0.52391  0.6494999999999999  1.0000
  C   C27       1.0  0.17456000000000002  0.312  0.58339  1.0000
  C   C28       1.0  0.28743  0.35086  0.56578  1.0000
  C   C29       1.0  0.34691999999999995  0.45628999999999986  0.5984599999999999  1.0000
  C   C30       1.0  0.18325000000000002  0.48451  0.66684  1.0000
  C   C31       1.0  0.3632500000000001  0.63783  0.68509  1.0000
  C   C32       1.0  0.12281000000000002  0.37971  0.63387  1.0000
  C   C33       1.0  0.06587000000000004  0.9210500000000001  0.61685  1.0000
  C   C34       1.0  0.19946000000000005  0.80915  0.81424  1.0000
  C   C35       1.0  0.11832999999999999  0.88971  0.8138499999999999  1.0000
  C   C36       1.0  0.80149  0.89004  0.94952  1.0000
  C   C37       1.0  0.47609  0.70431  0.8505  1.0000
  C   C38       1.0  0.6880100000000001  0.8254400000000001  0.9166099999999999  1.0000
  C   C39       1.0  0.64916  0.71257  0.93423  1.0000
  C   C40       1.0  0.54373  0.65308  0.9015499999999999  1.0000
  C   C41       1.0  0.51547  0.81676  0.8331499999999998  1.0000
  C   C42       1.0  0.36217999999999995  0.6367299999999999  0.8149099999999999  1.0000
  C   C43       1.0  0.62028  0.8772  0.86613  1.0000
  C   C44       1.0  0.07896000000000002  0.93412  0.88315  1.0000
  C   C45       1.0  0.76252  0.23748  0.25  1.0000
  C   C46       1.0  0.9273000000000002  0.0727  0.25  1.0000
  C   C47       1.0  0.23748000000000002  0.76252  0.75  1.0000
  C   C48       1.0  0.07270000000000003  0.9273  0.75  1.0000
  N   N1        1.0  0.6822400000000001  0.31778  0.25  1.0000
  N   N2        1.0  0.31777000000000005  0.68222  0.75  1.0000
  O   O1        1.0  0.86882  0.08641  0.43450999999999995  1.0000
  O   O2        1.0  0.83363  0.869  0.48688  1.0000
  O   O3        1.0  0.9975599999999999  0.82321  0.43714  1.0000
  O   O4        1.0  0.03329  0.03979  0.3855799999999999  1.0000
  O   O5        1.0  0.9135800000000001  0.1312  0.06548  1.0000
  O   O6        1.0  0.13099  0.16638  0.01311  1.0000
  O   O7        1.0  0.17679  0.00244  0.06286  1.0000
  O   O8        1.0  0.9602000000000003  0.9667300000000001  0.11443  1.0000
  O   O9        1.0  0.13118000000000002  0.91359  0.5654899999999999  1.0000
  O   O10       1.0  0.16638000000000003  0.131  0.51312  1.0000
  O   O11       1.0  0.002439999999999985  0.17678000000000002  0.5628599999999999  1.0000
  O   O12       1.0  0.9667100000000002  0.96021  0.61442  1.0000
  O   O13       1.0  0.08642  0.8688000000000001  0.9345199999999999  1.0000
  O   O14       1.0  0.8690100000000001  0.8336200000000001  0.9868899999999999  1.0000
  O   O15       1.0  0.8232100000000001  0.9975600000000001  0.9371399999999999  1.0000
  O   O16       1.0  0.039800000000000016  0.033270000000000015  0.88557  1.0000
