data_image0
_chemical_formula_structural       Co4H48C68N8O16
_chemical_formula_sum              "Co4 H48 C68 N8 O16"
_cell_length_a       9.35173
_cell_length_b       12.69647
_cell_length_c       16.772360000000003
_cell_angle_alpha    89.96556
_cell_angle_beta     103.97248999999998
_cell_angle_gamma    90.12186000000001

_space_group_name_H-M_alt    "P 1"
_space_group_IT_number       1

loop_
  _space_group_symop_operation_xyz
  'x, y, z'

loop_
  _atom_site_type_symbol
  _atom_site_label
  _atom_site_symmetry_multiplicity
  _atom_site_fract_x
  _atom_site_fract_y
  _atom_site_fract_z
  _atom_site_occupancy
  Co  Co1       1.0  0.71686  0.24225999999999998  0.7544699999999998  1.0000
  Co  Co2       1.0  0.7828399999999999  0.7439399999999999  0.7437399999999997  1.0000
  Co  Co3       1.0  0.28309999999999996  0.7592200000000001  0.24386  1.0000
  Co  Co4       1.0  0.21702  0.25963  0.25428  1.0000
  H   H1        1.0  0.4352599999999999  0.15795  0.56985  1.0000
  H   H2        1.0  0.89693  0.58897  0.51358  1.0000
  H   H3        1.0  0.7682699999999998  0.41707  0.4748399999999999  1.0000
  H   H4        1.0  0.8413199999999998  0.40846  0.3873799999999999  1.0000
  H   H5        1.0  0.17368  0.56724  0.25994  1.0000
  H   H6        1.0  0.04689999999999999  0.46198999999999996  0.34494  1.0000
  H   H7        1.0  0.95646  0.7530099999999998  0.4586999999999999  1.0000
  H   H8        1.0  0.0832  0.84802  0.36319  1.0000
  H   H9        1.0  0.60602  0.57745  0.4897999999999999  1.0000
  H   H10       1.0  0.40377  0.68948  0.4102199999999999  1.0000
  H   H11       1.0  0.5105  0.62059  0.18994999999999995  1.0000
  H   H12       1.0  0.7184700000000002  0.50421  0.26084  1.0000
  H   H13       1.0  0.05792999999999987  0.66168  0.9279399999999998  1.0000
  H   H14       1.0  0.60486  0.08745  0.98538  1.0000
  H   H15       1.0  0.7307199999999998  0.91477  0.02487  1.0000
  H   H16       1.0  0.6572699999999999  0.90776  0.11227  1.0000
  H   H17       1.0  0.32776  0.06787  0.23906  1.0000
  H   H18       1.0  0.45376  0.96205  0.15435999999999994  1.0000
  H   H19       1.0  0.54574  0.25224  0.03966999999999998  1.0000
  H   H20       1.0  0.4197399999999999  0.34784  0.13486  1.0000
  H   H21       1.0  0.89346  0.07582  0.008939999999999997  1.0000
  H   H22       1.0  0.09595  0.18863  0.08788  1.0000
  H   H23       1.0  0.99031  0.12054  0.30863  1.0000
  H   H24       1.0  0.78256  0.0029900000000000005  0.23847  1.0000
  H   H25       1.0  0.56172  0.8441  0.42681  1.0000
  H   H26       1.0  0.10299999999999995  0.41253  0.4841299999999999  1.0000
  H   H27       1.0  0.23092  0.58491  0.52387  1.0000
  H   H28       1.0  0.15729999999999988  0.59201  0.6111799999999997  1.0000
  H   H29       1.0  0.8273799999999999  0.4334799999999999  0.73833  1.0000
  H   H30       1.0  0.95313  0.53874  0.6528399999999998  1.0000
  H   H31       1.0  0.042399999999999986  0.24795  0.53855  1.0000
  H   H32       1.0  0.91637  0.15283  0.6343  1.0000
  H   H33       1.0  0.39341999999999994  0.42440999999999995  0.50829  1.0000
  H   H34       1.0  0.5959499999999998  0.31235  0.5875899999999997  1.0000
  H   H35       1.0  0.48883  0.37989999999999996  0.8079499999999997  1.0000
  H   H36       1.0  0.2799699999999999  0.4957  0.7371899999999998  1.0000
  H   H37       1.0  0.9434699999999999  0.34247  0.06921  1.0000
  H   H38       1.0  0.39649999999999996  0.9115899999999999  0.014269999999999996  1.0000
  H   H39       1.0  0.27061999999999997  0.08443  0.9755899999999998  1.0000
  H   H40       1.0  0.34445  0.0926  0.88843  1.0000
  H   H41       1.0  0.6704299999999999  0.9342499999999999  0.75932  1.0000
  H   H42       1.0  0.5455499999999999  0.03882  0.8453199999999997  1.0000
  H   H43       1.0  0.4567499999999998  0.7473199999999999  0.9593699999999997  1.0000
  H   H44       1.0  0.58239  0.6530200000000002  0.86326  1.0000
  H   H45       1.0  0.10751999999999996  0.92337  0.9902599999999999  1.0000
  H   H46       1.0  0.9033  0.81276  0.9102299999999998  1.0000
  H   H47       1.0  0.009359999999999993  0.88359  0.69007  1.0000
  H   H48       1.0  0.21875999999999987  0.9992  0.7613199999999998  1.0000
  C   C1        1.0  0.27361  0.15118  0.41399999999999987  1.0000
  C   C2        1.0  0.38432999999999995  0.06978  0.45706  1.0000
  C   C3        1.0  0.5760199999999999  0.02288  0.57925  1.0000
  C   C4        1.0  0.6697099999999997  0.05689  0.6605799999999997  1.0000
  C   C5        1.0  0.46184  0.08901  0.53794  1.0000
  C   C6        1.0  0.93602  0.53454  0.47247  1.0000
  C   C7        1.0  0.80491  0.46414  0.4284699999999999  1.0000
  C   C8        1.0  0.12145999999999994  0.60537  0.3032699999999999  1.0000
  C   C9        1.0  0.05146  0.5472  0.35234  1.0000
  C   C10       1.0  0.9944199999999999  0.59871  0.4116599999999999  1.0000
  C   C11       1.0  0.0022699999999999548  0.70886  0.4147899999999999  1.0000
  C   C12       1.0  0.07255999999999997  0.76257  0.36227  1.0000
  C   C13       1.0  0.67934  0.53012  0.38149  1.0000
  C   C14       1.0  0.58887  0.58409  0.42339  1.0000
  C   C15       1.0  0.47622  0.64714  0.3795099999999999  1.0000
  C   C16       1.0  0.53687  0.60924  0.2562599999999999  1.0000
  C   C17       1.0  0.65158  0.54412  0.29635  1.0000
  C   C18       1.0  0.22254  0.65513  0.08304999999999997  1.0000
  C   C19       1.0  0.11342999999999999  0.57228  0.04021  1.0000
  C   C20       1.0  0.9213999999999999  0.52422  0.91795  1.0000
  C   C21       1.0  0.8289099999999999  0.5586  0.8363299999999999  1.0000
  C   C22       1.0  0.03416999999999982  0.59153  0.9596299999999998  1.0000
  C   C23       1.0  0.56464  0.03345  0.02646  1.0000
  C   C24       1.0  0.69459  0.96269  0.07087  1.0000
  C   C25       1.0  0.38015999999999994  0.10574000000000001  0.19562999999999994  1.0000
  C   C26       1.0  0.44972  0.04721  0.1467  1.0000
  C   C27       1.0  0.50688  0.09819000000000001  0.08711  1.0000
  C   C28       1.0  0.49975  0.20834  0.08372  1.0000
  C   C29       1.0  0.42986  0.26241  0.13611  1.0000
  C   C30       1.0  0.82074  0.02871  0.11753999999999999  1.0000
  C   C31       1.0  0.91099  0.08274  0.07535  1.0000
  C   C32       1.0  0.023669999999999986  0.14633  0.11886999999999998  1.0000
  C   C33       1.0  0.96363  0.10878  0.24236  1.0000
  C   C34       1.0  0.8490499999999997  0.043  0.20264  1.0000
  C   C35       1.0  0.7230299999999998  0.85101  0.5832599999999999  1.0000
  C   C36       1.0  0.61252  0.93214  0.53985  1.0000
  C   C37       1.0  0.4213499999999999  0.97917  0.4175999999999999  1.0000
  C   C38       1.0  0.3291799999999999  0.94452  0.3360799999999999  1.0000
  C   C39       1.0  0.5353  0.91292  0.45898  1.0000
  C   C40       1.0  0.06345999999999997  0.46659999999999996  0.5253  1.0000
  C   C41       1.0  0.19417999999999996  0.53702  0.56978  1.0000
  C   C42       1.0  0.8791700000000001  0.3953400000000001  0.69482  1.0000
  C   C43       1.0  0.94859  0.45352999999999993  0.64551  1.0000
  C   C44       1.0  0.005149999999999994  0.40213  0.58598  1.0000
  C   C45       1.0  0.9971499999999999  0.29201  0.58272  1.0000
  C   C46       1.0  0.9272899999999998  0.23825  0.63544  1.0000
  C   C47       1.0  0.31980999999999987  0.4709499999999999  0.6165999999999998  1.0000
  C   C48       1.0  0.4105899999999999  0.41745  0.5746699999999998  1.0000
  C   C49       1.0  0.52342  0.35441  0.61841  1.0000
  C   C50       1.0  0.46246  0.39152  0.74167  1.0000
  C   C51       1.0  0.3474  0.45642999999999995  0.70167  1.0000
  C   C52       1.0  0.77737  0.34963  0.9142599999999997  1.0000
  C   C53       1.0  0.8871899999999999  0.4322  0.95708  1.0000
  C   C54       1.0  0.07999  0.47994  0.07922  1.0000
  C   C55       1.0  0.17357  0.44440999999999997  0.16041  1.0000
  C   C56       1.0  0.9670899999999999  0.41265  0.03748  1.0000
  C   C57       1.0  0.43656  0.96597  0.9733699999999997  1.0000
  C   C58       1.0  0.30679  0.0371  0.92931  1.0000
  C   C59       1.0  0.6192999999999999  0.8958399999999999  0.8030699999999997  1.0000
  C   C60       1.0  0.55027  0.95362  0.8526499999999998  1.0000
  C   C61       1.0  0.49423  0.90187  0.9123499999999998  1.0000
  C   C62       1.0  0.5020999999999998  0.79173  0.9153199999999998  1.0000
  C   C63       1.0  0.57167  0.73842  0.86239  1.0000
  C   C64       1.0  0.18032999999999988  0.9719  0.8820199999999998  1.0000
  C   C65       1.0  0.0896399999999999  0.91762  0.9237699999999998  1.0000
  C   C66       1.0  0.97608  0.85525  0.87967  1.0000
  C   C67       1.0  0.03635000000000003  0.89431  0.75645  1.0000
  C   C68       1.0  0.15179999999999988  0.9589700000000001  0.7967599999999998  1.0000
  N   N1        1.0  0.13536  0.71146  0.30862  1.0000
  N   N2        1.0  0.44982999999999995  0.66015  0.2970899999999999  1.0000
  N   N3        1.0  0.36664  0.21179  0.18999999999999995  1.0000
  N   N4        1.0  0.050209999999999984  0.15997  0.20122  1.0000
  N   N5        1.0  0.86515  0.28926  0.68945  1.0000
  N   N6        1.0  0.54979  0.34106000000000003  0.70078  1.0000
  N   N7        1.0  0.6336399999999999  0.78981  0.80837  1.0000
  N   N8        1.0  0.9492899999999999  0.84301  0.79721  1.0000
  O   O1        1.0  0.3213599999999999  0.20126999999999998  0.35676999999999987  1.0000
  O   O2        1.0  0.15888  0.17026  0.43614  1.0000
  O   O3        1.0  0.8000399999999999  0.02674  0.6828899999999998  1.0000
  O   O4        1.0  0.60698  0.12213  0.70249  1.0000
  O   O5        1.0  0.17678  0.7026  0.14198  1.0000
  O   O6        1.0  0.33505  0.67754  0.05969  1.0000
  O   O7        1.0  0.6984199999999999  0.52876  0.81318  1.0000
  O   O8        1.0  0.89291  0.62397  0.7948299999999998  1.0000
  O   O9        1.0  0.6776  0.80364  0.64243  1.0000
  O   O10       1.0  0.8358099999999999  0.82976  0.55998  1.0000
  O   O11       1.0  0.19853999999999988  0.97369  0.3129499999999999  1.0000
  O   O12       1.0  0.39318  0.87928  0.2947  1.0000
  O   O13       1.0  0.82362  0.30151  0.8558099999999997  1.0000
  O   O14       1.0  0.66423  0.32785999999999993  0.9370899999999999  1.0000
  O   O15       1.0  0.3053699999999999  0.47162  0.18282999999999994  1.0000
  O   O16       1.0  0.10820999999999999  0.3802499999999999  0.20213  1.0000
