data_image0
_chemical_formula_structural       Zn5H34C46S2N12O18
_chemical_formula_sum              "Zn5 H34 C46 S2 N12 O18"
_cell_length_a       10.6777
_cell_length_b       12.3522
_cell_length_c       14.61054
_cell_angle_alpha    78.89844
_cell_angle_beta     68.62739
_cell_angle_gamma    60.77485

_symmetry_space_group_name_H-M    'P 1'
_symmetry_Int_Tables_number       1

loop_
  _symmetry_equiv_pos_as_xyz
  'x,y,z'

loop_
  _atom_site_type_symbol
  _atom_site_label
  _atom_site_symmetry_multiplicity
  _atom_site_fract_x
  _atom_site_fract_y
  _atom_site_fract_z
  _atom_site_occupancy
  Zn  Zn1       1.0  0.26185  0.4288299999999999  0.9565400000000001  1.0000
  Zn  Zn2       1.0  0.17474999999999996  0.20451  0.11402000000000001  1.0000
  Zn  Zn3       1.0  0.73815  0.57117  0.043460000000000006  1.0000
  Zn  Zn4       1.0  0.8252499999999999  0.7954999999999999  0.8859800000000002  1.0000
  Zn  Zn5       1.0  0.5000000000000001  0.5  0.0  1.0000
  H   H1        1.0  0.49038000000000004  0.71688  0.01344  1.0000
  H   H2        1.0  0.061509999999999974  0.3569  0.9967500000000002  1.0000
  H   H3        1.0  0.46166999999999997  0.26017  0.3304300000000001  1.0000
  H   H4        1.0  0.49362000000000006  0.30266  0.15233000000000002  1.0000
  H   H5        1.0  0.32462000000000013  0.67995  0.18442000000000006  1.0000
  H   H6        1.0  0.40097000000000027  0.28269  0.61326  1.0000
  H   H7        1.0  0.84513  0.7655  0.11182  1.0000
  H   H8        1.0  0.21527000000000013  0.85002  0.05048000000000001  1.0000
  H   H9        1.0  0.22455999999999995  0.63976  0.8132200000000003  1.0000
  H   H10       1.0  0.28197  0.65346  0.36705  1.0000
  H   H11       1.0  0.17332  0.20649000000000003  0.46578  1.0000
  H   H12       1.0  0.98977  0.56433  0.3244000000000001  1.0000
  H   H13       1.0  0.7602800000000001  0.11387  0.19896  1.0000
  H   H14       1.0  0.2481100000000002  0.10781  0.30595  1.0000
  H   H15       1.0  0.3697399999999999  0.26171  0.7920900000000002  1.0000
  H   H16       1.0  0.2554700000000001  0.67454  0.63354  1.0000
  H   H17       1.0  0.06891999999999995  0.4528  0.17060000000000006  1.0000
  H   H18       1.0  0.50962  0.28313  0.98656  1.0000
  H   H19       1.0  0.9385  0.6431  0.0032400000000000007  1.0000
  H   H20       1.0  0.5383300000000001  0.73983  0.6695700000000001  1.0000
  H   H21       1.0  0.5063799999999999  0.69735  0.8476700000000001  1.0000
  H   H22       1.0  0.6753799999999999  0.32005  0.8155800000000002  1.0000
  H   H23       1.0  0.5990300000000002  0.71731  0.38674  1.0000
  H   H24       1.0  0.15487000000000006  0.2345  0.88818  1.0000
  H   H25       1.0  0.7847300000000001  0.14998  0.94951  1.0000
  H   H26       1.0  0.7754400000000001  0.36024  0.18677  1.0000
  H   H27       1.0  0.7180400000000001  0.34654  0.63295  1.0000
  H   H28       1.0  0.8266800000000004  0.7935099999999999  0.5342200000000001  1.0000
  H   H29       1.0  0.010229999999999845  0.43567  0.6756000000000002  1.0000
  H   H30       1.0  0.23972000000000013  0.88614  0.80103  1.0000
  H   H31       1.0  0.7518899999999997  0.8922  0.69405  1.0000
  H   H32       1.0  0.6302600000000002  0.73829  0.20791000000000007  1.0000
  H   H33       1.0  0.7445299999999999  0.32547  0.36646  1.0000
  H   H34       1.0  0.93108  0.5472099999999999  0.8294000000000002  1.0000
  C   C1        1.0  0.15429999999999994  0.67151  0.026890000000000008  1.0000
  C   C2        1.0  0.4306700000000001  0.35447  0.30126  1.0000
  C   C3        1.0  0.44914  0.37793  0.20130000000000006  1.0000
  C   C4        1.0  0.04375000000000017  0.7915699999999999  0.07804000000000003  1.0000
  C   C5        1.0  0.35293999999999986  0.58907  0.22036000000000006  1.0000
  C   C6        1.0  0.36113999999999996  0.36424  0.65443  1.0000
  C   C7        1.0  0.8888  0.8259399999999999  0.11776  1.0000
  C   C8        1.0  0.09617999999999996  0.87351  0.08362  1.0000
  C   C9        1.0  0.9947799999999999  0.98802  0.12898  1.0000
  C   C10       1.0  0.26332  0.56355  0.7666500000000002  1.0000
  C   C11       1.0  0.78651  0.9414299999999999  0.16111000000000006  1.0000
  C   C12       1.0  0.07274999999999991  0.39226000000000005  0.40698  1.0000
  C   C13       1.0  0.33011000000000007  0.57459  0.3208400000000001  1.0000
  C   C14       1.0  0.14729999999999993  0.26267  0.40178  1.0000
  C   C15       1.0  0.052320000000000005  0.07448  0.13245  1.0000
  C   C16       1.0  0.04522999999999993  0.4636100000000001  0.32265  1.0000
  C   C17       1.0  0.3277400000000001  0.48239999999999994  0.6099800000000002  1.0000
  C   C18       1.0  0.8390499999999996  0.02281  0.16701000000000005  1.0000
  C   C19       1.0  0.18861999999999998  0.20798  0.31368  1.0000
  C   C20       1.0  0.34265999999999996  0.35219999999999996  0.7544  1.0000
  C   C21       1.0  0.37257  0.45405999999999996  0.36189  1.0000
  C   C22       1.0  0.27998000000000006  0.58275  0.66696  1.0000
  C   C23       1.0  0.08872999999999996  0.40234999999999993  0.23793000000000006  1.0000
  C   C24       1.0  0.8457000000000002  0.3284899999999999  0.97311  1.0000
  C   C25       1.0  0.5693299999999998  0.64553  0.6987400000000002  1.0000
  C   C26       1.0  0.5508599999999999  0.6220699999999999  0.7987000000000002  1.0000
  C   C27       1.0  0.9562499999999999  0.20843999999999996  0.9219600000000001  1.0000
  C   C28       1.0  0.64706  0.41094  0.7796400000000002  1.0000
  C   C29       1.0  0.6388599999999999  0.63577  0.3455600000000001  1.0000
  C   C30       1.0  0.11120000000000002  0.17406  0.88223  1.0000
  C   C31       1.0  0.9038199999999998  0.1265  0.9163800000000002  1.0000
  C   C32       1.0  0.00521999999999996  0.011990000000000004  0.87101  1.0000
  C   C33       1.0  0.7366900000000001  0.43646  0.23334000000000005  1.0000
  C   C34       1.0  0.21348999999999993  0.05857  0.8388900000000002  1.0000
  C   C35       1.0  0.9272500000000001  0.60774  0.59302  1.0000
  C   C36       1.0  0.6698899999999999  0.42542  0.67916  1.0000
  C   C37       1.0  0.8526999999999999  0.7373399999999999  0.59822  1.0000
  C   C38       1.0  0.94768  0.9255200000000001  0.86754  1.0000
  C   C39       1.0  0.9547699999999999  0.53639  0.67735  1.0000
  C   C40       1.0  0.6722600000000001  0.5176  0.39002000000000003  1.0000
  C   C41       1.0  0.16094999999999995  0.97719  0.8329900000000002  1.0000
  C   C42       1.0  0.81138  0.7920299999999999  0.68632  1.0000
  C   C43       1.0  0.6573399999999999  0.64781  0.24560000000000007  1.0000
  C   C44       1.0  0.62743  0.54594  0.63811  1.0000
  C   C45       1.0  0.7200200000000001  0.41725  0.33304  1.0000
  C   C46       1.0  0.9112700000000002  0.59765  0.76207  1.0000
  S   S1        1.0  0.5880000000000002  0.98111  0.20813000000000006  1.0000
  S   S2        1.0  0.4119999999999999  0.018899999999999997  0.79187  1.0000
  N   N1        1.0  0.41237  0.49271  0.16113  1.0000
  N   N2        1.0  0.29277999999999993  0.45056  0.8098000000000002  1.0000
  N   N3        1.0  0.15709  0.27669  0.23381000000000002  1.0000
  N   N4        1.0  0.34102  0.51079  0.5091  1.0000
  N   N5        1.0  0.35852  0.42463999999999996  0.46272  1.0000
  N   N6        1.0  0.029710000000000004  0.44107  0.5001100000000002  1.0000
  N   N7        1.0  0.5876300000000001  0.50729  0.83886  1.0000
  N   N8        1.0  0.7072200000000001  0.54945  0.1902  1.0000
  N   N9        1.0  0.84291  0.72331  0.7661900000000003  1.0000
  N   N10       1.0  0.6589800000000001  0.48922  0.49090000000000006  1.0000
  N   N11       1.0  0.64148  0.57537  0.5372800000000001  1.0000
  N   N12       1.0  0.9702900000000005  0.55894  0.49989  1.0000
  O   O1        1.0  0.56864  0.91065  0.14744  1.0000
  O   O2        1.0  0.5615199999999999  0.94056  0.31256  1.0000
  O   O3        1.0  0.50807  0.11752  0.19402  1.0000
  O   O4        1.0  0.10577  0.59313  0.026910000000000003  1.0000
  O   O5        1.0  0.28976999999999997  0.65114  0.98574  1.0000
  O   O6        1.0  0.56311  0.6299  0.00436  1.0000
  O   O7        1.0  0.15244000000000002  0.33181  0.01538  1.0000
  O   O8        1.0  0.19694  0.03699  0.10292000000000003  1.0000
  O   O9        1.0  0.9616300000000001  0.18499999999999997  0.16232000000000005  1.0000
  O   O10       1.0  0.4313600000000001  0.08935  0.85255  1.0000
  O   O11       1.0  0.43848000000000004  0.05945  0.68744  1.0000
  O   O12       1.0  0.4919299999999997  0.88249  0.8059700000000002  1.0000
  O   O13       1.0  0.8942300000000001  0.40687  0.9730800000000002  1.0000
  O   O14       1.0  0.71023  0.34886  0.014260000000000002  1.0000
  O   O15       1.0  0.43688999999999995  0.37011  0.99564  1.0000
  O   O16       1.0  0.8475599999999998  0.66819  0.98462  1.0000
  O   O17       1.0  0.8030600000000001  0.96302  0.8970800000000002  1.0000
  O   O18       1.0  0.038369999999999994  0.815  0.83768  1.0000
