data_image0
_chemical_formula_structural       Ag4H44C44S4N12
_chemical_formula_sum              "Ag4 H44 C44 S4 N12"
_cell_length_a       7.33952
_cell_length_b       13.21857
_cell_length_c       14.00548
_cell_angle_alpha    89.99682
_cell_angle_beta     90.0
_cell_angle_gamma    90.0

_space_group_name_H-M_alt    "P 1"
_space_group_IT_number       1

loop_
  _space_group_symop_operation_xyz
  'x, y, z'

loop_
  _atom_site_type_symbol
  _atom_site_label
  _atom_site_symmetry_multiplicity
  _atom_site_fract_x
  _atom_site_fract_y
  _atom_site_fract_z
  _atom_site_occupancy
  Ag  Ag1       1.0  0.64102  0.20920999999999998  0.056  1.0000
  Ag  Ag2       1.0  0.35889  0.70923  0.9440000000000001  1.0000
  Ag  Ag3       1.0  0.85905  0.2092  0.5559900000000002  1.0000
  Ag  Ag4       1.0  0.14102000000000006  0.7092199999999999  0.4440100000000001  1.0000
  H   H1        1.0  0.9515000000000002  0.09461  0.19823000000000005  1.0000
  H   H2        1.0  0.9623  0.07843  0.37386  1.0000
  H   H3        1.0  0.66551  0.34742  0.3999800000000001  1.0000
  H   H4        1.0  0.71317  0.42656  0.15964000000000006  1.0000
  H   H5        1.0  0.57282  0.44054  0.26309  1.0000
  H   H6        1.0  0.18352  0.24459  0.19302000000000005  1.0000
  H   H7        1.0  0.3718300000000001  0.23573  0.27435  1.0000
  H   H8        1.0  0.34954  0.33162  0.4211000000000001  1.0000
  H   H9        1.0  0.22752000000000006  0.47974  0.51026  1.0000
  H   H10       1.0  0.9270200000000002  0.5743  0.27663  1.0000
  H   H11       1.0  0.046870000000000016  0.43448  0.17601  1.0000
  H   H12       1.0  0.04843  0.59463  0.80176  1.0000
  H   H13       1.0  0.03764  0.57849  0.62613  1.0000
  H   H14       1.0  0.33450000000000013  0.84745  0.6000200000000001  1.0000
  H   H15       1.0  0.28677  0.92658  0.8403100000000002  1.0000
  H   H16       1.0  0.4271200000000001  0.94059  0.7368600000000002  1.0000
  H   H17       1.0  0.8162800000000001  0.74453  0.8070600000000001  1.0000
  H   H18       1.0  0.62808  0.73573  0.72568  1.0000
  H   H19       1.0  0.6504600000000003  0.8315300000000001  0.5788900000000001  1.0000
  H   H20       1.0  0.77251  0.9796499999999999  0.4897100000000001  1.0000
  H   H21       1.0  0.07302000000000003  0.07422  0.72329  1.0000
  H   H22       1.0  0.95312  0.93445  0.8239600000000002  1.0000
  H   H23       1.0  0.54849  0.09461  0.69823  1.0000
  H   H24       1.0  0.53768  0.07843  0.87386  1.0000
  H   H25       1.0  0.83447  0.34742  0.89998  1.0000
  H   H26       1.0  0.78681  0.42656  0.6596400000000002  1.0000
  H   H27       1.0  0.9271600000000002  0.44053  0.7631000000000002  1.0000
  H   H28       1.0  0.31647  0.24459  0.69302  1.0000
  H   H29       1.0  0.12816  0.23573  0.7743500000000001  1.0000
  H   H30       1.0  0.15045  0.33162  0.9211000000000003  1.0000
  H   H31       1.0  0.27248  0.47974  0.010250000000000004  1.0000
  H   H32       1.0  0.5729700000000002  0.5743  0.7766300000000003  1.0000
  H   H33       1.0  0.45312000000000013  0.43448  0.67601  1.0000
  H   H34       1.0  0.45157  0.59463  0.30176000000000003  1.0000
  H   H35       1.0  0.46236  0.57849  0.12613  1.0000
  H   H36       1.0  0.16551000000000005  0.84745  0.10002000000000001  1.0000
  H   H37       1.0  0.21323000000000006  0.92658  0.34031  1.0000
  H   H38       1.0  0.07288000000000003  0.94059  0.23686000000000004  1.0000
  H   H39       1.0  0.68371  0.74453  0.30706  1.0000
  H   H40       1.0  0.8719200000000003  0.73573  0.22568000000000005  1.0000
  H   H41       1.0  0.84954  0.8315300000000001  0.07889  1.0000
  H   H42       1.0  0.72748  0.9796499999999999  0.9897100000000001  1.0000
  H   H43       1.0  0.4269800000000001  0.07423  0.22329000000000004  1.0000
  H   H44       1.0  0.54688  0.93445  0.32396000000000014  1.0000
  C   C1        1.0  0.8893000000000002  0.15242  0.24304000000000006  1.0000
  C   C2        1.0  0.89414  0.14257  0.3407500000000001  1.0000
  C   C3        1.0  0.72922  0.29026  0.35520000000000007  1.0000
  C   C4        1.0  0.72621  0.30092  0.25732  1.0000
  C   C5        1.0  0.62683  0.38608  0.21134000000000006  1.0000
  C   C6        1.0  0.28941  0.28748  0.23102  1.0000
  C   C7        1.0  0.20897000000000004  0.37035  0.29016  1.0000
  C   C8        1.0  0.25787  0.38458  0.3859400000000001  1.0000
  C   C9        1.0  0.18900000000000003  0.46704  0.43624  1.0000
  C   C10       1.0  0.022990000000000007  0.51992  0.30621000000000004  1.0000
  C   C11       1.0  0.08877  0.44129  0.2503  1.0000
  C   C12       1.0  0.11063000000000003  0.65247  0.7569600000000001  1.0000
  C   C13       1.0  0.10578000000000003  0.6426199999999999  0.6592600000000002  1.0000
  C   C14       1.0  0.2708  0.79026  0.6448  1.0000
  C   C15       1.0  0.2738000000000001  0.80094  0.7426700000000003  1.0000
  C   C16       1.0  0.3731600000000001  0.88612  0.7886200000000002  1.0000
  C   C17       1.0  0.7105  0.78747  0.76902  1.0000
  C   C18       1.0  0.79097  0.87032  0.7098400000000002  1.0000
  C   C19       1.0  0.74206  0.88452  0.61406  1.0000
  C   C20       1.0  0.81096  0.9669699999999999  0.56374  1.0000
  C   C21       1.0  0.9770100000000003  0.019859999999999996  0.69374  1.0000
  C   C22       1.0  0.9111700000000003  0.94126  0.74968  1.0000
  C   C23       1.0  0.61069  0.15242  0.74304  1.0000
  C   C24       1.0  0.60584  0.14257  0.8407500000000002  1.0000
  C   C25       1.0  0.7707700000000002  0.29026  0.8552000000000002  1.0000
  C   C26       1.0  0.7737800000000002  0.30092  0.7573200000000001  1.0000
  C   C27       1.0  0.87316  0.38608  0.7113400000000002  1.0000
  C   C28       1.0  0.21058000000000004  0.28748  0.7310200000000002  1.0000
  C   C29       1.0  0.29102  0.37035  0.79016  1.0000
  C   C30       1.0  0.24212  0.38458  0.8859400000000001  1.0000
  C   C31       1.0  0.3109900000000001  0.46704  0.93624  1.0000
  C   C32       1.0  0.4770100000000001  0.51992  0.8062000000000002  1.0000
  C   C33       1.0  0.4112200000000001  0.44129  0.7503000000000001  1.0000
  C   C34       1.0  0.38937000000000005  0.65247  0.25696000000000013  1.0000
  C   C35       1.0  0.3942200000000001  0.6426199999999999  0.15926000000000007  1.0000
  C   C36       1.0  0.22920000000000004  0.79026  0.14480000000000007  1.0000
  C   C37       1.0  0.22620000000000007  0.80094  0.24267000000000002  1.0000
  C   C38       1.0  0.12684  0.88612  0.2886200000000001  1.0000
  C   C39       1.0  0.7894900000000002  0.78747  0.26902  1.0000
  C   C40       1.0  0.7090200000000002  0.87032  0.20985000000000006  1.0000
  C   C41       1.0  0.7579300000000002  0.88452  0.11406  1.0000
  C   C42       1.0  0.68903  0.9669699999999999  0.06374  1.0000
  C   C43       1.0  0.52298  0.019859999999999996  0.19374  1.0000
  C   C44       1.0  0.5888200000000002  0.94126  0.24968000000000007  1.0000
  S   S1        1.0  0.43580000000000013  0.34024999999999994  0.13662  1.0000
  S   S2        1.0  0.5641500000000003  0.84032  0.86339  1.0000
  S   S3        1.0  0.06419  0.34024999999999994  0.63662  1.0000
  S   S4        1.0  0.93584  0.84032  0.36338  1.0000
  N   N1        1.0  0.80802  0.23207  0.19613000000000005  1.0000
  N   N2        1.0  0.81494  0.21192  0.40144000000000013  1.0000
  N   N3        1.0  0.07192  0.53524  0.39831  1.0000
  N   N4        1.0  0.19192  0.73211  0.8038700000000002  1.0000
  N   N5        1.0  0.185  0.71196  0.59856  1.0000
  N   N6        1.0  0.9280900000000001  0.03516  0.6016300000000002  1.0000
  N   N7        1.0  0.6919800000000002  0.23205999999999996  0.69613  1.0000
  N   N8        1.0  0.6850600000000002  0.21192  0.9014400000000002  1.0000
  N   N9        1.0  0.4280700000000001  0.53524  0.8983100000000002  1.0000
  N   N10       1.0  0.3080700000000001  0.73211  0.3038800000000001  1.0000
  N   N11       1.0  0.31499  0.71196  0.09856000000000002  1.0000
  N   N12       1.0  0.5719  0.03516  0.10163000000000003  1.0000
