data_image0
_chemical_formula_structural       Eu4H18C48N6O36
_chemical_formula_sum              "Eu4 H18 C48 N6 O36"
_cell_length_a       13.84745
_cell_length_b       13.86008
_cell_length_c       16.58807
_cell_angle_alpha    66.94173
_cell_angle_beta     66.9069
_cell_angle_gamma    72.07699

_symmetry_space_group_name_H-M    'P 1'
_symmetry_Int_Tables_number       1

loop_
  _symmetry_equiv_pos_as_xyz
  'x,y,z'

loop_
  _atom_site_type_symbol
  _atom_site_label
  _atom_site_symmetry_multiplicity
  _atom_site_fract_x
  _atom_site_fract_y
  _atom_site_fract_z
  _atom_site_occupancy
  Eu  Eu1       1.0  0.44128000000000006  0.15290000000000004  0.50197  1.0000
  Eu  Eu2       1.0  0.8466699999999998  0.55888  0.99806  1.0000
  Eu  Eu3       1.0  0.55871  0.84711  0.49803  1.0000
  Eu  Eu4       1.0  0.15333  0.44113  0.0019399999999999999  1.0000
  H   H1        1.0  0.6563999999999999  0.76455  0.76378  1.0000
  H   H2        1.0  0.6397799999999998  0.9134900000000001  0.95561  1.0000
  H   H3        1.0  0.5475799999999995  0.10405999999999999  0.71239  1.0000
  H   H4        1.0  0.86768  0.92133  0.35491  1.0000
  H   H5        1.0  0.23571  0.34235  0.73715  1.0000
  H   H6        1.0  0.08792000000000004  0.35915  0.54472  1.0000
  H   H7        1.0  0.8962099999999998  0.4533099999999999  0.78712  1.0000
  H   H8        1.0  0.07971999999999996  0.13237000000000004  0.14505  1.0000
  H   H9        1.0  0.34360000000000007  0.23545  0.23622  1.0000
  H   H10       1.0  0.3602199999999999  0.08651  0.04439  1.0000
  H   H11       1.0  0.45242000000000004  0.89594  0.28761  1.0000
  H   H12       1.0  0.13231999999999997  0.07866999999999999  0.6451  1.0000
  H   H13       1.0  0.76429  0.65765  0.26285  1.0000
  H   H14       1.0  0.91208  0.64085  0.45528  1.0000
  H   H15       1.0  0.10378999999999988  0.5466900000000001  0.21288000000000004  1.0000
  H   H16       1.0  0.9202799999999997  0.86763  0.8549500000000001  1.0000
  H   H17       1.0  0.7445  0.25622  0.24966  1.0000
  H   H18       1.0  0.2554899999999998  0.74379  0.75035  1.0000
  C   C1        1.0  0.5802599999999999  0.94184  0.64425  1.0000
  C   C2        1.0  0.6975999999999998  0.72392  0.9227  1.0000
  C   C3        1.0  0.5993600000000002  0.9346799999999998  0.7293400000000001  1.0000
  C   C4        1.0  0.6380200000000001  0.8353300000000001  0.78448  1.0000
  C   C5        1.0  0.6526799999999999  0.82781  0.8657900000000001  1.0000
  C   C6        1.0  0.62886  0.9187099999999999  0.8926  1.0000
  C   C7        1.0  0.5919  0.01659000000000002  0.83609  1.0000
  C   C8        1.0  0.57684  0.026410000000000003  0.75481  1.0000
  C   C9        1.0  0.68434  0.07160000000000001  0.3744  1.0000
  C   C10       1.0  0.8795999999999997  0.0010700000000000056  0.3094  1.0000
  C   C11       1.0  0.7941599999999999  0.08755  0.30999  1.0000
  C   C12       1.0  0.05822000000000004  0.4199399999999999  0.85588  1.0000
  C   C13       1.0  0.27709  0.3014599999999999  0.57849  1.0000
  C   C14       1.0  0.06553000000000006  0.40057999999999994  0.7709  1.0000
  C   C15       1.0  0.16496000000000002  0.36117000000000005  0.71628  1.0000
  C   C16       1.0  0.17283999999999997  0.34633  0.63502  1.0000
  C   C17       1.0  0.08217999999999995  0.37036  0.60775  1.0000
  C   C18       1.0  0.9841199999999999  0.40786999999999995  0.6639  1.0000
  C   C19       1.0  0.9739699999999997  0.42343  0.74506  1.0000
  C   C20       1.0  0.9300499999999998  0.31516999999999995  0.12526  1.0000
  C   C21       1.0  0.99982  0.12037  0.19052  1.0000
  C   C22       1.0  0.91336  0.20582999999999999  0.18982  1.0000
  C   C23       1.0  0.4197299999999998  0.05816000000000001  0.35575  1.0000
  C   C24       1.0  0.30240000000000006  0.27608  0.07731  1.0000
  C   C25       1.0  0.4006299999999999  0.06532000000000002  0.27066  1.0000
  C   C26       1.0  0.36198  0.16467  0.21552  1.0000
  C   C27       1.0  0.34732  0.17219  0.13421  1.0000
  C   C28       1.0  0.37113  0.08129  0.1074  1.0000
  C   C29       1.0  0.4081000000000001  0.9834099999999999  0.16390999999999997  1.0000
  C   C30       1.0  0.42315999999999976  0.97359  0.24519  1.0000
  C   C31       1.0  0.3156599999999999  0.9284  0.6256100000000001  1.0000
  C   C32       1.0  0.12039000000000004  0.99893  0.6906  1.0000
  C   C33       1.0  0.20583000000000007  0.91245  0.69001  1.0000
  C   C34       1.0  0.94178  0.58006  0.14412  1.0000
  C   C35       1.0  0.72291  0.69855  0.42151  1.0000
  C   C36       1.0  0.9344700000000001  0.59942  0.2291  1.0000
  C   C37       1.0  0.8350299999999997  0.63884  0.28372  1.0000
  C   C38       1.0  0.8271500000000002  0.65368  0.36499  1.0000
  C   C39       1.0  0.91781  0.62964  0.39225  1.0000
  C   C40       1.0  0.01588000000000001  0.59214  0.3361  1.0000
  C   C41       1.0  0.026019999999999974  0.57657  0.25494  1.0000
  C   C42       1.0  0.06995000000000001  0.68483  0.87474  1.0000
  C   C43       1.0  0.00017999999999990886  0.87963  0.8094900000000002  1.0000
  C   C44       1.0  0.08663  0.79417  0.81018  1.0000
  C   C45       1.0  0.9810199999999998  0.019290000000000005  0.25  1.0000
  C   C46       1.0  0.81115  0.18942  0.24981  1.0000
  C   C47       1.0  0.018980000000000073  0.9807099999999997  0.75  1.0000
  C   C48       1.0  0.18883999999999998  0.81058  0.75019  1.0000
  N   N1        1.0  0.5669499999999998  0.11301999999999998  0.86383  1.0000
  N   N2        1.0  0.8876200000000001  0.43301999999999996  0.63611  1.0000
  N   N3        1.0  0.43304999999999993  0.88698  0.13617  1.0000
  N   N4        1.0  0.11237  0.56699  0.3639  1.0000
  N   N5        1.0  0.07174999999999997  0.9282  0.25017  1.0000
  N   N6        1.0  0.9282500000000001  0.07180000000000002  0.74983  1.0000
  O   O1        1.0  0.7363600000000003  0.6428299999999999  0.89324  1.0000
  O   O2        1.0  0.66706  0.9760499999999999  0.41267  1.0000
  O   O3        1.0  0.5439  0.034779999999999985  0.59642  1.0000
  O   O4        1.0  0.5995199999999997  0.85767  0.6237  1.0000
  O   O5        1.0  0.6147400000000001  0.15346  0.38725  1.0000
  O   O6        1.0  0.5767299999999999  0.10039999999999999  0.93882  1.0000
  O   O7        1.0  0.70383  0.715  0.00066  1.0000
  O   O8        1.0  0.5370399999999996  0.19959999999999997  0.81095  1.0000
  O   O9        1.0  0.16231000000000004  0.94802  0.20192  1.0000
  O   O10       1.0  0.35666  0.25911  0.60989  1.0000
  O   O11       1.0  0.026120000000000004  0.33119  0.08723  1.0000
  O   O12       1.0  0.9652100000000001  0.45662  0.9035600000000001  1.0000
  O   O13       1.0  0.14246999999999996  0.40051  0.87643  1.0000
  O   O14       1.0  0.84852  0.38522  0.11214  1.0000
  O   O15       1.0  0.90007  0.4231399999999999  0.56121  1.0000
  O   O16       1.0  0.28745  0.29926999999999987  0.49879  1.0000
  O   O17       1.0  0.80099  0.4631799999999999  0.689  1.0000
  O   O18       1.0  0.05159999999999998  0.83787  0.29849  1.0000
  O   O19       1.0  0.26364  0.35717  0.10676  1.0000
  O   O20       1.0  0.33292999999999995  0.023950000000000006  0.58734  1.0000
  O   O21       1.0  0.45609999999999984  0.96522  0.40358  1.0000
  O   O22       1.0  0.40047999999999995  0.14232999999999996  0.37631  1.0000
  O   O23       1.0  0.38525  0.8465399999999998  0.61276  1.0000
  O   O24       1.0  0.42326  0.8996  0.06118  1.0000
  O   O25       1.0  0.29616000000000003  0.285  0.99934  1.0000
  O   O26       1.0  0.4629599999999998  0.8004  0.18905  1.0000
  O   O27       1.0  0.8376799999999995  0.05198999999999993  0.7980800000000001  1.0000
  O   O28       1.0  0.64333  0.74089  0.39011  1.0000
  O   O29       1.0  0.9738799999999999  0.66881  0.91277  1.0000
  O   O30       1.0  0.03478999999999999  0.54338  0.09644  1.0000
  O   O31       1.0  0.85753  0.5994899999999997  0.12357  1.0000
  O   O32       1.0  0.15147000000000002  0.61479  0.88786  1.0000
  O   O33       1.0  0.09992000000000001  0.57686  0.43879  1.0000
  O   O34       1.0  0.71254  0.70074  0.50122  1.0000
  O   O35       1.0  0.199  0.53682  0.311  1.0000
  O   O36       1.0  0.9483900000000001  0.16213000000000002  0.70151  1.0000
