data_image0
_chemical_formula_structural       Co2H48C72N8O8
_chemical_formula_sum              "Co2 H48 C72 N8 O8"
_cell_length_a       10.86748
_cell_length_b       13.34214
_cell_length_c       15.089590000000001
_cell_angle_alpha    64.99828
_cell_angle_beta     86.13534
_cell_angle_gamma    73.73216

_space_group_name_H-M_alt    "P 1"
_space_group_IT_number       1

loop_
  _space_group_symop_operation_xyz
  'x, y, z'

loop_
  _atom_site_type_symbol
  _atom_site_label
  _atom_site_symmetry_multiplicity
  _atom_site_fract_x
  _atom_site_fract_y
  _atom_site_fract_z
  _atom_site_occupancy
  Co  Co1       1.0  0.1255  0.013119999999999962  0.5871200000000001  1.0000
  Co  Co2       1.0  0.8744900000000001  0.9868899999999999  0.41288000000000014  1.0000
  H   H1        1.0  0.22538999999999995  0.75677  0.69292  1.0000
  H   H2        1.0  0.15244000000000002  0.5874399999999999  0.8051900000000002  1.0000
  H   H3        1.0  0.78526  0.8228799999999997  0.8011700000000003  1.0000
  H   H4        1.0  0.87461  0.98382  0.6897900000000001  1.0000
  H   H5        1.0  0.98645  0.50899  0.9062  1.0000
  H   H6        1.0  0.859  0.39605000000000007  0.91665  1.0000
  H   H7        1.0  0.76496  0.23974  0.026830000000000003  1.0000
  H   H8        1.0  0.60875  0.27131  0.14633  1.0000
  H   H9        1.0  0.42536  0.5863700000000001  0.23356  1.0000
  H   H10       1.0  0.5096099999999999  0.7463300000000002  0.11706000000000003  1.0000
  H   H11       1.0  0.6621900000000001  0.7153999999999999  0.99495  1.0000
  H   H12       1.0  0.2928  0.48186  0.23058000000000003  1.0000
  H   H13       1.0  0.47475000000000006  0.15967999999999996  0.35434  1.0000
  H   H14       1.0  0.3735899999999999  0.01842999999999992  0.4832900000000001  1.0000
  H   H15       1.0  0.04717000000000003  0.2738199999999999  0.4718700000000001  1.0000
  H   H16       1.0  0.13115000000000004  0.4268199999999998  0.3418000000000001  1.0000
  H   H17       1.0  0.5165999999999998  0.91358  0.7719900000000002  1.0000
  H   H18       1.0  0.6338699999999998  0.91652  0.90443  1.0000
  H   H19       1.0  0.27607  0.0860499999999999  0.9883800000000003  1.0000
  H   H20       1.0  0.16251000000000002  0.08560999999999995  0.85236  1.0000
  H   H21       1.0  0.43324000000000007  0.39686999999999995  0.4280500000000001  1.0000
  H   H22       1.0  0.60008  0.2255699999999999  0.4353300000000001  1.0000
  H   H23       1.0  0.86022  0.2922499999999999  0.5913800000000001  1.0000
  H   H24       1.0  0.69512  0.4672  0.58239  1.0000
  H   H25       1.0  0.77461  0.24324  0.30708  1.0000
  H   H26       1.0  0.8475600000000001  0.41257  0.19480000000000006  1.0000
  H   H27       1.0  0.21473  0.17713  0.19883000000000006  1.0000
  H   H28       1.0  0.12539  0.016189999999999944  0.3102100000000001  1.0000
  H   H29       1.0  0.013549999999999998  0.49101  0.09379  1.0000
  H   H30       1.0  0.141  0.60396  0.08335000000000001  1.0000
  H   H31       1.0  0.23504000000000005  0.7602599999999999  0.97317  1.0000
  H   H32       1.0  0.39124  0.7286900000000001  0.85367  1.0000
  H   H33       1.0  0.5746400000000003  0.4136299999999999  0.76644  1.0000
  H   H34       1.0  0.49038999999999994  0.25367999999999985  0.8829300000000002  1.0000
  H   H35       1.0  0.33781000000000005  0.28461  0.00504  1.0000
  H   H36       1.0  0.7072000000000002  0.5181499999999999  0.7694200000000001  1.0000
  H   H37       1.0  0.5252400000000002  0.8403299999999999  0.6456600000000002  1.0000
  H   H38       1.0  0.6264100000000005  0.9815799999999998  0.51671  1.0000
  H   H39       1.0  0.9528300000000001  0.72618  0.52812  1.0000
  H   H40       1.0  0.8688400000000006  0.57319  0.6582  1.0000
  H   H41       1.0  0.48339  0.08641999999999996  0.22800000000000006  1.0000
  H   H42       1.0  0.36612999999999996  0.08349000000000001  0.09556  1.0000
  H   H43       1.0  0.72393  0.91396  0.01161  1.0000
  H   H44       1.0  0.83748  0.9144  0.14764000000000005  1.0000
  H   H45       1.0  0.56676  0.60314  0.57194  1.0000
  H   H46       1.0  0.39992  0.77444  0.56467  1.0000
  H   H47       1.0  0.13978000000000004  0.7077599999999998  0.4086200000000001  1.0000
  H   H48       1.0  0.30487999999999993  0.5328  0.4176100000000001  1.0000
  C   C1        1.0  0.1281  0.7677099999999999  0.7175200000000002  1.0000
  C   C2        1.0  0.08652000000000003  0.6735599999999999  0.7802200000000002  1.0000
  C   C3        1.0  0.9613399999999999  0.6914600000000002  0.81222  1.0000
  C   C4        1.0  0.88311  0.8057  0.77834  1.0000
  C   C5        1.0  0.9320300000000001  0.8947  0.7163  1.0000
  C   C6        1.0  0.9164500000000001  0.5945499999999999  0.8802200000000002  1.0000
  C   C7        1.0  0.75583  0.5179699999999999  0.9724100000000002  1.0000
  C   C8        1.0  0.791  0.41061999999999993  0.9692600000000001  1.0000
  C   C9        1.0  0.73712  0.32245  0.031120000000000005  1.0000
  C   C10       1.0  0.6489400000000001  0.33989  0.09739  1.0000
  C   C11       1.0  0.6110500000000002  0.44729  0.10353000000000001  1.0000
  C   C12       1.0  0.52131  0.46737999999999996  0.17267  1.0000
  C   C13       1.0  0.48806  0.5738  0.17754  1.0000
  C   C14       1.0  0.5380499999999999  0.66341  0.11308000000000003  1.0000
  C   C15       1.0  0.62343  0.64662  0.04508  1.0000
  C   C16       1.0  0.6624899999999999  0.53901  0.03937  1.0000
  C   C17       1.0  0.36038  0.3952399999999999  0.2631800000000001  1.0000
  C   C18       1.0  0.3106  0.3058  0.33752  1.0000
  C   C19       1.0  0.37977  0.1884899999999999  0.37858000000000014  1.0000
  C   C20       1.0  0.32460999999999995  0.11001999999999998  0.45004000000000005  1.0000
  C   C21       1.0  0.14117000000000002  0.25319999999999987  0.4437800000000001  1.0000
  C   C22       1.0  0.18864  0.33725  0.37139000000000005  1.0000
  C   C23       1.0  0.3316699999999999  0.9990700000000001  0.8041000000000003  1.0000
  C   C24       1.0  0.46505  0.95136  0.8198700000000001  1.0000
  C   C25       1.0  0.5302500000000001  0.95304  0.89533  1.0000
  C   C26       1.0  0.4653  0.00020999999999994772  0.95919  1.0000
  C   C27       1.0  0.33102  0.048009999999999886  0.9419200000000002  1.0000
  C   C28       1.0  0.26581  0.04792999999999989  0.8658000000000002  1.0000
  C   C29       1.0  0.55  0.44767  0.50346  1.0000
  C   C30       1.0  0.52629  0.37641  0.4633800000000001  1.0000
  C   C31       1.0  0.6195399999999999  0.2788299999999999  0.4677900000000001  1.0000
  C   C32       1.0  0.7410300000000001  0.24844  0.51315  1.0000
  C   C33       1.0  0.7663500000000002  0.3173199999999999  0.55486  1.0000
  C   C34       1.0  0.67248  0.41517  0.5499500000000002  1.0000
  C   C35       1.0  0.25920999999999994  0.99944  0.7236900000000002  1.0000
  C   C36       1.0  0.84051  0.14399  0.51709  1.0000
  C   C37       1.0  0.87189  0.23228999999999997  0.28247000000000005  1.0000
  C   C38       1.0  0.9134800000000001  0.32644  0.21978  1.0000
  C   C39       1.0  0.038660000000000014  0.30854  0.18778  1.0000
  C   C40       1.0  0.11688000000000003  0.19429999999999997  0.22166000000000005  1.0000
  C   C41       1.0  0.06796000000000002  0.10531  0.28369  1.0000
  C   C42       1.0  0.08355000000000001  0.40546  0.11978  1.0000
  C   C43       1.0  0.24416999999999997  0.48204  0.02758  1.0000
  C   C44       1.0  0.20899999999999994  0.58939  0.03073  1.0000
  C   C45       1.0  0.2628700000000001  0.6775599999999999  0.9688800000000002  1.0000
  C   C46       1.0  0.35106000000000004  0.6601199999999999  0.9026100000000002  1.0000
  C   C47       1.0  0.3889500000000001  0.55272  0.89647  1.0000
  C   C48       1.0  0.4786900000000001  0.53263  0.82732  1.0000
  C   C49       1.0  0.51194  0.4261999999999999  0.8224600000000002  1.0000
  C   C50       1.0  0.46194999999999997  0.33659  0.8869200000000002  1.0000
  C   C51       1.0  0.37657  0.3533899999999998  0.9549200000000002  1.0000
  C   C52       1.0  0.3375099999999999  0.4609900000000001  0.96062  1.0000
  C   C53       1.0  0.63961  0.60477  0.73682  1.0000
  C   C54       1.0  0.6894  0.6942  0.66248  1.0000
  C   C55       1.0  0.62022  0.81152  0.62142  1.0000
  C   C56       1.0  0.6753799999999999  0.88999  0.54996  1.0000
  C   C57       1.0  0.85883  0.74681  0.5562200000000003  1.0000
  C   C58       1.0  0.81135  0.66275  0.62861  1.0000
  C   C59       1.0  0.66833  0.0009299999999999864  0.19590000000000005  1.0000
  C   C60       1.0  0.53495  0.048649999999999985  0.18013000000000004  1.0000
  C   C61       1.0  0.46975  0.04696  0.10467  1.0000
  C   C62       1.0  0.5347000000000001  0.9998  0.04080000000000002  1.0000
  C   C63       1.0  0.6689799999999999  0.952  0.05808  1.0000
  C   C64       1.0  0.73418  0.95208  0.13419  1.0000
  C   C65       1.0  0.45  0.55234  0.49653000000000014  1.0000
  C   C66       1.0  0.47371  0.6236000000000002  0.53662  1.0000
  C   C67       1.0  0.38044999999999995  0.72118  0.53221  1.0000
  C   C68       1.0  0.25897000000000003  0.7515699999999997  0.4868500000000001  1.0000
  C   C69       1.0  0.23365000000000005  0.68268  0.44514000000000004  1.0000
  C   C70       1.0  0.32752  0.58484  0.45005  1.0000
  C   C71       1.0  0.74078  0.0005700000000000017  0.27631  1.0000
  C   C72       1.0  0.15949  0.85602  0.48290000000000005  1.0000
  N   N1        1.0  0.05273000000000009  0.8772499999999998  0.6847900000000002  1.0000
  N   N2        1.0  0.80116  0.6103899999999999  0.90997  1.0000
  N   N3        1.0  0.47702999999999995  0.37523  0.23716  1.0000
  N   N4        1.0  0.2071  0.14079  0.48303  1.0000
  N   N5        1.0  0.94727  0.12276000000000001  0.31521  1.0000
  N   N6        1.0  0.19883  0.38962  0.09003  1.0000
  N   N7        1.0  0.52297  0.6247799999999999  0.7628400000000002  1.0000
  N   N8        1.0  0.7929  0.85922  0.51696  1.0000
  O   O1        1.0  0.31461999999999996  0.9444800000000001  0.67337  1.0000
  O   O2        1.0  0.14026000000000005  0.05578999999999996  0.70563  1.0000
  O   O3        1.0  0.95379  0.12836  0.54733  1.0000
  O   O4        1.0  0.80478  0.07605999999999993  0.4916500000000001  1.0000
  O   O5        1.0  0.68538  0.05552999999999998  0.32662  1.0000
  O   O6        1.0  0.85974  0.94422  0.29437  1.0000
  O   O7        1.0  0.04620000000000004  0.8716499999999998  0.4526600000000001  1.0000
  O   O8        1.0  0.19521999999999998  0.92395  0.50835  1.0000
