data_image0
_chemical_formula_structural       Cu8H24C64O32
_chemical_formula_sum              "Cu8 H24 C64 O32"
_cell_length_a       7.91448
_cell_length_b       13.317340000000002
_cell_length_c       21.132569999999998
_cell_angle_alpha    90.03558999999998
_cell_angle_beta     89.99547999999999
_cell_angle_gamma    88.70253

_symmetry_space_group_name_H-M    'P 1'
_symmetry_Int_Tables_number       1

loop_
  _symmetry_equiv_pos_as_xyz
  'x,y,z'

loop_
  _atom_site_type_symbol
  _atom_site_label
  _atom_site_symmetry_multiplicity
  _atom_site_fract_x
  _atom_site_fract_y
  _atom_site_fract_z
  _atom_site_occupancy
  Cu  Cu1       1.0  0.06526999999999997  0.08147000000000001  0.51029  1.0000
  Cu  Cu2       1.0  0.5317  0.50787  0.68545  1.0000
  Cu  Cu3       1.0  0.43331999999999987  0.91934  0.01053  1.0000
  Cu  Cu4       1.0  0.968  0.49228000000000005  0.18616  1.0000
  Cu  Cu5       1.0  0.9347  0.9185500000000002  0.48973  1.0000
  Cu  Cu6       1.0  0.46839  0.4921300000000001  0.31456  1.0000
  Cu  Cu7       1.0  0.56668  0.08066  0.98947  1.0000
  Cu  Cu8       1.0  0.03199999999999999  0.50772  0.81384  1.0000
  H   H1        1.0  0.27302  0.14313  0.74279  1.0000
  H   H2        1.0  0.5119699999999998  0.9351400000000001  0.61196  1.0000
  H   H3        1.0  0.35777  0.96727  0.7989900000000001  1.0000
  H   H4        1.0  0.23091999999999988  0.8105800000000001  0.83981  1.0000
  H   H5        1.0  0.05646000000000001  0.74263  0.65187  1.0000
  H   H6        1.0  0.6850799999999998  0.23799  0.62604  1.0000
  H   H7        1.0  0.22508999999999993  0.8573600000000002  0.24321000000000004  1.0000
  H   H8        1.0  0.9907499999999998  0.06548  0.11159  1.0000
  H   H9        1.0  0.13953  0.03335  0.29929  1.0000
  H   H10       1.0  0.26672  0.18936  0.34099  1.0000
  H   H11       1.0  0.44713  0.25762  0.15394  1.0000
  H   H12       1.0  0.81719  0.76236  0.12449  1.0000
  H   H13       1.0  0.7270599999999998  0.8568400000000002  0.2573  1.0000
  H   H14       1.0  0.4878999999999999  0.06491  0.38803  1.0000
  H   H15       1.0  0.6421899999999999  0.03269  0.20102999999999996  1.0000
  H   H16       1.0  0.76906  0.18936  0.16018  1.0000
  H   H17       1.0  0.9435799999999998  0.25737  0.34812  1.0000
  H   H18       1.0  0.31497  0.76201  0.37404  1.0000
  H   H19       1.0  0.7748899999999997  0.14265  0.7568  1.0000
  H   H20       1.0  0.009259999999999997  0.93451  0.8884  1.0000
  H   H21       1.0  0.8604899999999998  0.96666  0.70071  1.0000
  H   H22       1.0  0.7332699999999998  0.81067  0.659  1.0000
  H   H23       1.0  0.55289  0.7424  0.8460599999999999  1.0000
  H   H24       1.0  0.18278999999999995  0.23764  0.87553  1.0000
  C   C1        1.0  0.44916  0.30511  0.71065  1.0000
  C   C2        1.0  0.47277999999999987  0.20113  0.68518  1.0000
  C   C3        1.0  0.36722  0.12512  0.70673  1.0000
  C   C4        1.0  0.5004899999999999  0.00943  0.633  1.0000
  C   C5        1.0  0.37948  0.02907  0.68011  1.0000
  C   C6        1.0  0.27897  0.9441500000000002  0.7031  1.0000
  C   C7        1.0  0.2890899999999999  0.9184900000000003  0.76729  1.0000
  C   C8        1.0  0.22019  0.8303600000000002  0.78999  1.0000
  C   C9        1.0  0.14325  0.76404  0.74783  1.0000
  C   C10       1.0  0.12440999999999999  0.7909000000000002  0.6841  1.0000
  C   C11       1.0  0.18563999999999994  0.8820800000000001  0.66195  1.0000
  C   C12       1.0  0.12806999999999993  0.9184900000000003  0.59838  1.0000
  C   C13       1.0  0.75252  0.05632  0.56996  1.0000
  C   C14       1.0  0.61267  0.08331  0.61439  1.0000
  C   C15       1.0  0.5981699999999998  0.18009  0.64013  1.0000
  C   C16       1.0  0.08366  0.66683  0.77088  1.0000
  C   C17       1.0  0.0507  0.69516  0.21016  1.0000
  C   C18       1.0  0.027559999999999998  0.79917  0.18459  1.0000
  C   C19       1.0  0.13226999999999997  0.8752900000000001  0.20667  1.0000
  C   C20       1.0  0.0010400000000000001  0.9911200000000001  0.13259  1.0000
  C   C21       1.0  0.12068999999999995  0.97145  0.18022  1.0000
  C   C22       1.0  0.22138999999999995  0.05623  0.20371  1.0000
  C   C23       1.0  0.20952999999999994  0.08193000000000003  0.26792  1.0000
  C   C24       1.0  0.2786  0.16978  0.29113  1.0000
  C   C25       1.0  0.35735  0.23587  0.24938  1.0000
  C   C26       1.0  0.37800999999999996  0.20911  0.18567  1.0000
  C   C27       1.0  0.31689  0.11813000000000001  0.16307  1.0000
  C   C28       1.0  0.3761299999999999  0.08156  0.09968  1.0000
  C   C29       1.0  0.7515999999999998  0.9436900000000001  0.06784  1.0000
  C   C30       1.0  0.88959  0.91712  0.11328999999999999  1.0000
  C   C31       1.0  0.9035499999999997  0.8202900000000002  0.13902  1.0000
  C   C32       1.0  0.4167599999999999  0.33295  0.27259  1.0000
  C   C33       1.0  0.55083  0.6949200000000001  0.28934  1.0000
  C   C34       1.0  0.5271599999999997  0.7988700000000001  0.31483  1.0000
  C   C35       1.0  0.6328199999999998  0.87486  0.29334  1.0000
  C   C36       1.0  0.4994399999999998  0.9906  0.36701  1.0000
  C   C37       1.0  0.6205299999999998  0.9709100000000002  0.31994  1.0000
  C   C38       1.0  0.721  0.05584000000000001  0.29693  1.0000
  C   C39       1.0  0.71086  0.08148  0.23273  1.0000
  C   C40       1.0  0.7797799999999998  0.16960000000000003  0.21001000000000003  1.0000
  C   C41       1.0  0.85671  0.23594  0.25217  1.0000
  C   C42       1.0  0.8756  0.20909  0.3159  1.0000
  C   C43       1.0  0.8143499999999998  0.11792  0.33806  1.0000
  C   C44       1.0  0.8719099999999997  0.08152000000000002  0.40163  1.0000
  C   C45       1.0  0.24748999999999996  0.9436800000000002  0.43008  1.0000
  C   C46       1.0  0.3873699999999999  0.9166800000000003  0.38566  1.0000
  C   C47       1.0  0.4018699999999999  0.8198900000000001  0.35993  1.0000
  C   C48       1.0  0.9162799999999998  0.33315  0.22911000000000004  1.0000
  C   C49       1.0  0.94932  0.30484  0.7898500000000002  1.0000
  C   C50       1.0  0.9724499999999998  0.20083  0.8154099999999999  1.0000
  C   C51       1.0  0.86774  0.12471000000000002  0.79333  1.0000
  C   C52       1.0  0.9989699999999999  0.00888  0.86741  1.0000
  C   C53       1.0  0.8793199999999998  0.02856  0.8197800000000001  1.0000
  C   C54       1.0  0.7785999999999997  0.94378  0.7962900000000002  1.0000
  C   C55       1.0  0.7904499999999997  0.9180800000000002  0.73208  1.0000
  C   C56       1.0  0.7213699999999997  0.83024  0.70887  1.0000
  C   C57       1.0  0.64263  0.76415  0.75062  1.0000
  C   C58       1.0  0.6219699999999998  0.79091  0.81433  1.0000
  C   C59       1.0  0.6830899999999998  0.88189  0.8369300000000001  1.0000
  C   C60       1.0  0.62388  0.9184500000000001  0.90032  1.0000
  C   C61       1.0  0.24839  0.05631  0.9321699999999999  1.0000
  C   C62       1.0  0.1104  0.08288  0.88672  1.0000
  C   C63       1.0  0.09645  0.17971  0.8609899999999999  1.0000
  C   C64       1.0  0.5832799999999998  0.66705  0.72743  1.0000
  O   O1        1.0  0.5155299999999998  0.37415  0.67334  1.0000
  O   O2        1.0  0.3745499999999999  0.32395  0.76059  1.0000
  O   O3        1.0  0.08431999999999998  0.6464800000000002  0.83094  1.0000
  O   O4        1.0  0.03500999999999997  0.5968  0.73368  1.0000
  O   O5        1.0  0.04223999999999999  0.85779  0.56501  1.0000
  O   O6        1.0  0.8668999999999998  0.12134  0.56166  1.0000
  O   O7        1.0  0.15843  0.009750000000000002  0.58422  1.0000
  O   O8        1.0  0.74975  0.96844  0.54507  1.0000
  O   O9        1.0  0.9852599999999998  0.62584  0.17276  1.0000
  O   O10       1.0  0.12444999999999995  0.6763400000000003  0.26027  1.0000
  O   O11       1.0  0.41592  0.35362  0.33261  1.0000
  O   O12       1.0  0.46545  0.40280000000000005  0.23525999999999997  1.0000
  O   O13       1.0  0.46518  0.14121  0.06661  1.0000
  O   O14       1.0  0.6348399999999997  0.87966  0.06024999999999999  1.0000
  O   O15       1.0  0.3431599999999999  0.9906400000000002  0.08542  1.0000
  O   O16       1.0  0.7581599999999998  0.030160000000000003  0.04122  1.0000
  O   O17       1.0  0.48445  0.62585  0.32663  1.0000
  O   O18       1.0  0.6254699999999997  0.67609  0.23940000000000003  1.0000
  O   O19       1.0  0.9156699999999998  0.35352000000000006  0.16905  1.0000
  O   O20       1.0  0.9648899999999998  0.40318000000000004  0.26632  1.0000
  O   O21       1.0  0.9577399999999998  0.14221  0.435  1.0000
  O   O22       1.0  0.13308  0.8786800000000001  0.43836  1.0000
  O   O23       1.0  0.84155  0.9902500000000001  0.41579  1.0000
  O   O24       1.0  0.2502599999999999  0.03156  0.45497  1.0000
  O   O25       1.0  0.014739999999999996  0.3741600000000001  0.82724  1.0000
  O   O26       1.0  0.8755299999999998  0.32366  0.73974  1.0000
  O   O27       1.0  0.5841799999999998  0.6463600000000003  0.66742  1.0000
  O   O28       1.0  0.53458  0.59721  0.76477  1.0000
  O   O29       1.0  0.53483  0.85879  0.93339  1.0000
  O   O30       1.0  0.3651599999999999  0.12033000000000003  0.93975  1.0000
  O   O31       1.0  0.6568499999999998  0.00937  0.91458  1.0000
  O   O32       1.0  0.24182999999999996  0.96983  0.95879  1.0000
