data_image0
_chemical_formula_structural       Cd4H32C58O16
_chemical_formula_sum              "Cd4 H32 C58 O16"
_cell_length_a       13.75622
_cell_length_b       13.75901
_cell_length_c       15.52293
_cell_angle_alpha    115.9012
_cell_angle_beta     115.91338
_cell_angle_gamma    90.06940999999999

_symmetry_space_group_name_H-M    'P 1'
_symmetry_Int_Tables_number       1

loop_
  _symmetry_equiv_pos_as_xyz
  'x,y,z'

loop_
  _atom_site_type_symbol
  _atom_site_label
  _atom_site_symmetry_multiplicity
  _atom_site_fract_x
  _atom_site_fract_y
  _atom_site_fract_z
  _atom_site_occupancy
  Cd  Cd1       1.0  0.09469  0.16889999999999994  0.0013  1.0000
  Cd  Cd2       1.0  0.90532  0.8310999999999996  0.9986999999999999  1.0000
  Cd  Cd3       1.0  0.83297  0.09562  0.0028699999999999997  1.0000
  Cd  Cd4       1.0  0.1670299999999999  0.9043699999999998  0.9971299999999998  1.0000
  H   H1        1.0  0.38287  0.0424  0.24074  1.0000
  H   H2        1.0  0.5748699999999998  0.07243  0.38228  1.0000
  H   H3        1.0  0.6540799999999998  0.40377  0.43641  1.0000
  H   H4        1.0  0.46225999999999995  0.37171  0.29088  1.0000
  H   H5        1.0  0.8599  0.19723999999999992  0.23835999999999996  1.0000
  H   H6        1.0  0.8089199999999999  0.3102  0.37932  1.0000
  H   H7        1.0  0.78132  0.036050000000000006  0.43836  1.0000
  H   H8        1.0  0.8278799999999997  0.9206799999999998  0.29279  1.0000
  H   H9        1.0  0.19815999999999995  0.38136  0.23990999999999998  1.0000
  H   H10       1.0  0.31076  0.5722199999999998  0.38126  1.0000
  H   H11       1.0  0.03548999999999996  0.6560999999999998  0.4386499999999999  1.0000
  H   H12       1.0  0.9207599999999998  0.46534999999999976  0.29296  1.0000
  H   H13       1.0  0.04210999999999998  0.8590399999999998  0.23964999999999997  1.0000
  H   H14       1.0  0.07118999999999992  0.8070699999999996  0.3809799999999999  1.0000
  H   H15       1.0  0.40275999999999984  0.78128  0.4360199999999999  1.0000
  H   H16       1.0  0.3714899999999999  0.829  0.29035  1.0000
  H   H17       1.0  0.61714  0.9575999999999998  0.75927  1.0000
  H   H18       1.0  0.4251399999999999  0.9275699999999997  0.61772  1.0000
  H   H19       1.0  0.34593  0.5962299999999999  0.5636  1.0000
  H   H20       1.0  0.5377499999999997  0.62828  0.70912  1.0000
  H   H21       1.0  0.14010999999999996  0.8027499999999997  0.7616499999999999  1.0000
  H   H22       1.0  0.19109  0.6897999999999997  0.62068  1.0000
  H   H23       1.0  0.21868999999999994  0.9639499999999998  0.56164  1.0000
  H   H24       1.0  0.17212999999999992  0.07930999999999988  0.7072099999999998  1.0000
  H   H25       1.0  0.8018499999999997  0.61864  0.7601  1.0000
  H   H26       1.0  0.68925  0.42778  0.61874  1.0000
  H   H27       1.0  0.96452  0.34388999999999986  0.56135  1.0000
  H   H28       1.0  0.07925000000000003  0.5346399999999998  0.70705  1.0000
  H   H29       1.0  0.9578999999999998  0.14095999999999995  0.76036  1.0000
  H   H30       1.0  0.9288199999999998  0.1929299999999999  0.61902  1.0000
  H   H31       1.0  0.59725  0.21871999999999994  0.56398  1.0000
  H   H32       1.0  0.6285199999999997  0.17099  0.70965  1.0000
  C   C1        1.0  0.2969  0.18694  0.16735  1.0000
  C   C2        1.0  0.41034999999999994  0.20528999999999994  0.25596  1.0000
  C   C3        1.0  0.4422899999999998  0.12138999999999997  0.28326  1.0000
  C   C4        1.0  0.5501799999999999  0.13892  0.36366  1.0000
  C   C5        1.0  0.62825  0.24052  0.42055  1.0000
  C   C6        1.0  0.5952399999999999  0.32451999999999986  0.39382999999999996  1.0000
  C   C7        1.0  0.48765  0.3071099999999999  0.31239  1.0000
  C   C8        1.0  0.87191  0.9793699999999999  0.16741999999999996  1.0000
  C   C9        1.0  0.8463699999999997  0.05059000000000001  0.25556  1.0000
  C   C10       1.0  0.8421699999999995  0.16138  0.28155  1.0000
  C   C11       1.0  0.8142699999999998  0.22534999999999988  0.36191  1.0000
  C   C12       1.0  0.79225  0.18189  0.42015  1.0000
  C   C13       1.0  0.7981099999999998  0.07157999999999995  0.39460999999999996  1.0000
  C   C14       1.0  0.8244899999999997  0.006490000000000019  0.31321  1.0000
  C   C15       1.0  0.98115  0.29809  0.16882  1.0000
  C   C16       1.0  0.05147999999999997  0.4111399999999999  0.25678  1.0000
  C   C17       1.0  0.16234999999999997  0.44156  0.28316  1.0000
  C   C18       1.0  0.22586999999999993  0.54892  0.36352  1.0000
  C   C19       1.0  0.18174  0.6278799999999999  0.42117  1.0000
  C   C20       1.0  0.07135999999999995  0.59631  0.39531999999999995  1.0000
  C   C21       1.0  0.006709999999999999  0.48937999999999987  0.31389  1.0000
  C   C22       1.0  0.18699999999999994  0.8715099999999998  0.16605999999999999  1.0000
  C   C23       1.0  0.20502  0.84632  0.25499  1.0000
  C   C24       1.0  0.12092  0.8414399999999997  0.28213  1.0000
  C   C25       1.0  0.13797999999999994  0.8130999999999999  0.3625899999999999  1.0000
  C   C26       1.0  0.23951999999999996  0.7914499999999997  0.41992  1.0000
  C   C27       1.0  0.3235999999999999  0.7979  0.39318  1.0000
  C   C28       1.0  0.30666  0.8247999999999998  0.31165  1.0000
  C   C29       1.0  0.70311  0.81306  0.83265  1.0000
  C   C30       1.0  0.5896599999999996  0.79471  0.7440399999999999  1.0000
  C   C31       1.0  0.5577199999999999  0.87861  0.71674  1.0000
  C   C32       1.0  0.4498299999999999  0.8610799999999997  0.63634  1.0000
  C   C33       1.0  0.37176  0.7594799999999998  0.57945  1.0000
  C   C34       1.0  0.40477  0.67548  0.60618  1.0000
  C   C35       1.0  0.51236  0.6928799999999998  0.68761  1.0000
  C   C36       1.0  0.1281  0.020629999999999954  0.83258  1.0000
  C   C37       1.0  0.15364000000000005  0.9494099999999998  0.74445  1.0000
  C   C38       1.0  0.1578399999999999  0.83862  0.71846  1.0000
  C   C39       1.0  0.18572999999999998  0.77464  0.63809  1.0000
  C   C40       1.0  0.20775999999999994  0.8181099999999998  0.57985  1.0000
  C   C41       1.0  0.20190000000000005  0.9284199999999998  0.6054  1.0000
  C   C42       1.0  0.17552000000000006  0.9935099999999998  0.6868  1.0000
  C   C43       1.0  0.01885999999999995  0.7019  0.83119  1.0000
  C   C44       1.0  0.9485299999999998  0.58886  0.7432199999999999  1.0000
  C   C45       1.0  0.83766  0.5584399999999998  0.71684  1.0000
  C   C46       1.0  0.7741399999999998  0.45107999999999987  0.63648  1.0000
  C   C47       1.0  0.8182699999999999  0.3721199999999999  0.57884  1.0000
  C   C48       1.0  0.9286499999999998  0.40368999999999994  0.60468  1.0000
  C   C49       1.0  0.9932999999999998  0.51062  0.68611  1.0000
  C   C50       1.0  0.8130099999999999  0.12847999999999998  0.8339399999999999  1.0000
  C   C51       1.0  0.7949799999999998  0.15366999999999995  0.74501  1.0000
  C   C52       1.0  0.8790899999999997  0.15855999999999987  0.7178799999999997  1.0000
  C   C53       1.0  0.8620299999999997  0.18689999999999996  0.63741  1.0000
  C   C54       1.0  0.7604899999999998  0.20853999999999995  0.58008  1.0000
  C   C55       1.0  0.67641  0.20208999999999996  0.60682  1.0000
  C   C56       1.0  0.6933499999999998  0.1751899999999999  0.6883599999999999  1.0000
  C   C57       1.0  0.74976  0.25091  0.49987  1.0000
  C   C58       1.0  0.2502499999999999  0.7490899999999998  0.50013  1.0000
  O   O1        1.0  0.22416000000000003  0.09504  0.11716  1.0000
  O   O2        1.0  0.2722299999999999  0.26441  0.14296  1.0000
  O   O3        1.0  0.89624  0.020070000000000005  0.11648  1.0000
  O   O4        1.0  0.8713699999999998  0.8779599999999997  0.14374  1.0000
  O   O5        1.0  0.02308  0.22389999999999996  0.11952  1.0000
  O   O6        1.0  0.8794699999999998  0.27489  0.1445  1.0000
  O   O7        1.0  0.09516  0.8946299999999998  0.1155  1.0000
  O   O8        1.0  0.2643199999999999  0.8712499999999999  0.14135  1.0000
  O   O9        1.0  0.7758499999999999  0.90496  0.88284  1.0000
  O   O10       1.0  0.72778  0.73559  0.85704  1.0000
  O   O11       1.0  0.10376999999999993  0.9799299999999997  0.88352  1.0000
  O   O12       1.0  0.12863  0.12202999999999999  0.85627  1.0000
  O   O13       1.0  0.97693  0.7760999999999998  0.8804799999999999  1.0000
  O   O14       1.0  0.12053999999999998  0.72511  0.85551  1.0000
  O   O15       1.0  0.9048499999999998  0.10537  0.8845  1.0000
  O   O16       1.0  0.7356899999999998  0.12875000000000003  0.85865  1.0000
