data_image0
_chemical_formula_structural       Cd4H28C48N8Cl8O18
_chemical_formula_sum              "Cd4 H28 C48 N8 Cl8 O18"
_cell_length_a       11.50371
_cell_length_b       11.50654
_cell_length_c       15.227430000000002
_cell_angle_alpha    109.64693
_cell_angle_beta     109.61211000000002
_cell_angle_gamma    96.53629999999998

_space_group_name_H-M_alt    "P 1"
_space_group_IT_number       1

loop_
  _space_group_symop_operation_xyz
  'x, y, z'

loop_
  _atom_site_type_symbol
  _atom_site_label
  _atom_site_symmetry_multiplicity
  _atom_site_fract_x
  _atom_site_fract_y
  _atom_site_fract_z
  _atom_site_occupancy
  Cd  Cd1       1.0  0.9973000000000001  0.73376  0.7158999999999999  1.0000
  Cd  Cd2       1.0  0.0026999999999999997  0.26624  0.2841  1.0000
  Cd  Cd3       1.0  0.73407  0.9972400000000001  0.21546  1.0000
  Cd  Cd4       1.0  0.26592999999999994  0.002749999999999937  0.7845499999999999  1.0000
  H   H1        1.0  0.14586  0.88437  0.07507  1.0000
  H   H2        1.0  0.45177  0.24324  0.13734  1.0000
  H   H3        1.0  0.52529  0.025149999999999974  0.3163099999999999  1.0000
  H   H4        1.0  0.8843200000000001  0.14570000000000005  0.57559  1.0000
  H   H5        1.0  0.24328  0.4517  0.63737  1.0000
  H   H6        1.0  0.33899  0.32029  0.88175  1.0000
  H   H7        1.0  0.8541299999999998  0.11562999999999986  0.9249299999999998  1.0000
  H   H8        1.0  0.54822  0.75675  0.86266  1.0000
  H   H9        1.0  0.17881999999999992  0.05223999999999997  0.58339  1.0000
  H   H10       1.0  0.94755  0.82104  0.91636  1.0000
  H   H11       1.0  0.67946  0.66093  0.61806  1.0000
  H   H12       1.0  0.052439999999999994  0.17895  0.08363999999999999  1.0000
  H   H13       1.0  0.4747  0.97484  0.68369  1.0000
  H   H14       1.0  0.10335999999999997  0.51172  0.48312  1.0000
  H   H15       1.0  0.11566999999999998  0.8542899999999999  0.42441  1.0000
  H   H16       1.0  0.02540000000000002  0.52529  0.81655  1.0000
  H   H17       1.0  0.48851  0.89674  0.01657  1.0000
  H   H18       1.0  0.7567099999999998  0.5483  0.36263  1.0000
  H   H19       1.0  0.6610100000000001  0.67971  0.11826  1.0000
  H   H20       1.0  0.05041000000000008  0.014900000000000023  0.81697  1.0000
  H   H21       1.0  0.89664  0.48827  0.51688  1.0000
  H   H22       1.0  0.82118  0.94775  0.41661  1.0000
  H   H23       1.0  0.97459  0.47469999999999996  0.18345  1.0000
  H   H24       1.0  0.32053  0.33906999999999987  0.38195  1.0000
  H   H25       1.0  0.51148  0.10324999999999998  0.98343  1.0000
  H   H26       1.0  0.9852  0.94972  0.68445  1.0000
  H   H27       1.0  0.9495799999999999  0.9850999999999999  0.18302999999999997  1.0000
  H   H28       1.0  0.014789999999999975  0.05026999999999999  0.31554999999999994  1.0000
  C   C1        1.0  0.15286  0.21265  0.13461  1.0000
  C   C2        1.0  0.23191  0.83469  0.91851  1.0000
  C   C3        1.0  0.40233  0.29747  0.26842  1.0000
  C   C4        1.0  0.21247  0.15267000000000006  0.6343  1.0000
  C   C5        1.0  0.79252  0.85316  0.01784  1.0000
  C   C6        1.0  0.91214  0.44009  0.56866  1.0000
  C   C7        1.0  0.6714999999999998  0.04141  0.7950499999999999  1.0000
  C   C8        1.0  0.29729  0.40202000000000004  0.76819  1.0000
  C   C9        1.0  0.98391  0.46092  0.73648  1.0000
  C   C10       1.0  0.04147  0.67153  0.29473  1.0000
  C   C11       1.0  0.59766  0.7025299999999999  0.73159  1.0000
  C   C12       1.0  0.24943999999999997  0.9051400000000001  0.10119999999999997  1.0000
  C   C13       1.0  0.55966  0.08769000000000006  0.93163  1.0000
  C   C14       1.0  0.79462  0.7529200000000001  0.40437  1.0000
  C   C15       1.0  0.84713  0.7873400000000002  0.86539  1.0000
  C   C16       1.0  0.01608999999999999  0.53907  0.26352  1.0000
  C   C17       1.0  0.3026  0.30246  0.80128  1.0000
  C   C18       1.0  0.6245199999999999  0.7512  0.83555  1.0000
  C   C19       1.0  0.75056  0.09486  0.8988  1.0000
  C   C20       1.0  0.75263  0.79442  0.9039399999999999  1.0000
  C   C21       1.0  0.11702000000000003  0.69292  0.46802  1.0000
  C   C22       1.0  0.69739  0.69753  0.19872  1.0000
  C   C23       1.0  0.69269  0.11701000000000006  0.96835  1.0000
  C   C24       1.0  0.83544  0.23196  0.41885  1.0000
  C   C25       1.0  0.09500999999999994  0.75074  0.39847  1.0000
  C   C26       1.0  0.20537999999999998  0.24707  0.59564  1.0000
  C   C27       1.0  0.70271  0.59797  0.23181  1.0000
  C   C28       1.0  0.30731  0.88299  0.03165  1.0000
  C   C29       1.0  0.8829800000000001  0.30707  0.53198  1.0000
  C   C30       1.0  0.8529899999999998  0.7927799999999999  0.51846  1.0000
  C   C31       1.0  0.78752  0.84733  0.3657  1.0000
  C   C32       1.0  0.20747999999999991  0.14683  0.98216  1.0000
  C   C33       1.0  0.24864  0.37518  0.66421  1.0000
  C   C34       1.0  0.16454999999999997  0.7680299999999999  0.58115  1.0000
  C   C35       1.0  0.90499  0.24925000000000003  0.60153  1.0000
  C   C36       1.0  0.24736000000000002  0.20557  0.09605999999999999  1.0000
  C   C37       1.0  0.95852  0.3284600000000001  0.70528  1.0000
  C   C38       1.0  0.461  0.98392  0.23621  1.0000
  C   C39       1.0  0.14701  0.20720999999999995  0.48154  1.0000
  C   C40       1.0  0.539  0.016079999999999973  0.76379  1.0000
  C   C41       1.0  0.44033  0.9123  0.06837  1.0000
  C   C42       1.0  0.7680799999999999  0.16531  0.08149  1.0000
  C   C43       1.0  0.3285  0.95858  0.20495  1.0000
  C   C44       1.0  0.3027  0.30273  0.30149  1.0000
  C   C45       1.0  0.08784999999999996  0.5599  0.43134  1.0000
  C   C46       1.0  0.75135  0.62482  0.33579  1.0000
  C   C47       1.0  0.6972900000000001  0.69726  0.69851  1.0000
  C   C48       1.0  0.37547  0.24879  0.16445  1.0000
  N   N1        1.0  0.95967  0.51469  0.66847  1.0000
  N   N2        1.0  0.48512999999999995  0.04014999999999997  0.83178  1.0000
  N   N3        1.0  0.2606899999999999  0.17972999999999992  0.73462  1.0000
  N   N4        1.0  0.82004  0.7390899999999999  0.76511  1.0000
  N   N5        1.0  0.17995  0.26091  0.23489  1.0000
  N   N6        1.0  0.04032  0.4853  0.33153  1.0000
  N   N7        1.0  0.73931  0.82026  0.26538  1.0000
  N   N8        1.0  0.5148599999999999  0.9598399999999999  0.16822  1.0000
  Cl  Cl1       1.0  0.9971699999999999  0.26602  0.79721  1.0000
  Cl  Cl2       1.0  0.55897  0.34969  0.3581  1.0000
  Cl  Cl3       1.0  0.26584  0.99697  0.2968  1.0000
  Cl  Cl4       1.0  0.002819999999999997  0.73397  0.20278999999999997  1.0000
  Cl  Cl5       1.0  0.44102  0.6503  0.6419  1.0000
  Cl  Cl6       1.0  0.65039  0.44136000000000003  0.14202  1.0000
  Cl  Cl7       1.0  0.73416  0.00303000000000004  0.7032  1.0000
  Cl  Cl8       1.0  0.3496  0.55863  0.85798  1.0000
  O   O1        1.0  0.8591700000000001  0.29165  0.36814  1.0000
  O   O2        1.0  0.08791  0.10377000000000003  0.92868  1.0000
  O   O3        1.0  0.77647  0.11481  0.38434  1.0000
  O   O4        1.0  0.10351  0.08772999999999996  0.4278  1.0000
  O   O5        1.0  0.14082999999999998  0.70835  0.63186  1.0000
  O   O6        1.0  0.14505  0.29658999999999996  0.44972999999999996  1.0000
  O   O7        1.0  0.04987999999999998  0.9501000000000001  0.75064  1.0000
  O   O8        1.0  0.22351999999999997  0.8851899999999999  0.6156599999999999  1.0000
  O   O9        1.0  0.29110000000000014  0.85701  0.86703  1.0000
  O   O10       1.0  0.70319  0.85593  0.04972  1.0000
  O   O11       1.0  0.89648  0.9122600000000001  0.5722  1.0000
  O   O12       1.0  0.91208  0.89622  0.07132  1.0000
  O   O13       1.0  0.1145800000000001  0.7764700000000001  0.88471  1.0000
  O   O14       1.0  0.8854100000000001  0.22352  0.11528999999999999  1.0000
  O   O15       1.0  0.2968  0.14405999999999997  0.95028  1.0000
  O   O16       1.0  0.85494  0.70341  0.55027  1.0000
  O   O17       1.0  0.9501199999999999  0.049890000000000004  0.24936  1.0000
  O   O18       1.0  0.7088899999999999  0.14298  0.13297  1.0000
