data_image0
_chemical_formula_structural       Co6H24C72O48
_chemical_formula_sum              "Co6 H24 C72 O48"
_cell_length_a       15.30996
_cell_length_b       15.34357
_cell_length_c       16.84437
_cell_angle_alpha    67.79099
_cell_angle_beta     67.99081000000001
_cell_angle_gamma    61.95662000000001

_symmetry_space_group_name_H-M    'P 1'
_symmetry_Int_Tables_number       1

loop_
  _symmetry_equiv_pos_as_xyz
  'x,y,z'

loop_
  _atom_site_type_symbol
  _atom_site_label
  _atom_site_symmetry_multiplicity
  _atom_site_fract_x
  _atom_site_fract_y
  _atom_site_fract_z
  _atom_site_occupancy
  Co  Co1       1.0  0.7185900000000001  0.56407  0.60966  1.0000
  Co  Co2       1.0  0.4298699999999999  0.28995  0.89429  1.0000
  Co  Co3       1.0  0.33994  0.6588400000000001  0.24981  1.0000
  Co  Co4       1.0  0.5631900000000002  0.71954  0.10895  1.0000
  Co  Co5       1.0  0.6590799999999999  0.33993999999999996  0.75133  1.0000
  Co  Co6       1.0  0.29035  0.42964  0.3941  1.0000
  H   H1        1.0  0.3792300000000001  0.029529999999999997  0.05009  1.0000
  H   H2        1.0  0.6593399999999999  0.5725600000000002  0.39044  1.0000
  H   H3        1.0  0.6010000000000002  0.30161  0.55514  1.0000
  H   H4        1.0  0.9725  0.61808  0.45058  1.0000
  H   H5        1.0  0.25852000000000014  0.0932  0.64431  1.0000
  H   H6        1.0  0.6182700000000002  0.9722899999999999  0.9504299999999999  1.0000
  H   H7        1.0  0.16711  0.9418300000000001  0.28644  1.0000
  H   H8        1.0  0.5724700000000001  0.65944  0.89031  1.0000
  H   H9        1.0  0.3416499999999999  0.42804000000000003  0.60896  1.0000
  H   H10       1.0  0.9044200000000001  0.7427400000000001  0.85684  1.0000
  H   H11       1.0  0.39623000000000025  0.70014  0.44355  1.0000
  H   H12       1.0  0.3015900000000002  0.60072  0.0544  1.0000
  H   H13       1.0  0.9420800000000005  0.16669  0.78655  1.0000
  H   H14       1.0  0.7000100000000001  0.39636  0.9444199999999999  1.0000
  H   H15       1.0  0.029079999999999984  0.37957  0.55007  1.0000
  H   H16       1.0  0.74254  0.90481  0.35664  1.0000
  H   H17       1.0  0.8311400000000001  0.05890999999999998  0.71422  1.0000
  H   H18       1.0  0.09355999999999998  0.2584400000000001  0.14414  1.0000
  H   H19       1.0  0.46112999999999993  0.49673000000000006  0.81702  1.0000
  H   H20       1.0  0.05850999999999999  0.83154  0.21426999999999996  1.0000
  H   H21       1.0  0.5020100000000003  0.54243  0.68167  1.0000
  H   H22       1.0  0.42788  0.34158  0.10932  1.0000
  H   H23       1.0  0.49671999999999994  0.46104000000000006  0.31697  1.0000
  H   H24       1.0  0.54233  0.50208  0.18159  1.0000
  C   C1        1.0  0.43817  0.39119999999999994  0.73424  1.0000
  C   C2        1.0  0.42193  0.47671  0.65509  1.0000
  C   C3        1.0  0.5152300000000004  0.6302400000000001  0.9014899999999999  1.0000
  C   C4        1.0  0.25856  0.23714  0.01387  1.0000
  C   C5        1.0  0.00034000000000000805  0.81063  0.2695  1.0000
  C   C6        1.0  0.2809400000000002  0.97465  0.16937  1.0000
  C   C7        1.0  0.84959  0.75964  0.41175  1.0000
  C   C8        1.0  0.8655400000000003  0.35226  0.67955  1.0000
  C   C9        1.0  0.0006800000000000161  0.18700999999999998  0.73143  1.0000
  C   C10       1.0  0.17867999999999995  0.14489  0.65201  1.0000
  C   C11       1.0  0.13673000000000007  0.64454  0.32029  1.0000
  C   C12       1.0  0.37350000000000017  0.54413  0.93645  1.0000
  C   C13       1.0  0.85268  0.8225000000000001  0.84922  1.0000
  C   C14       1.0  0.3066700000000001  0.050559999999999994  0.09824  1.0000
  C   C15       1.0  0.63792  0.43438  0.47799  1.0000
  C   C16       1.0  0.3908700000000002  0.43813  0.23389  1.0000
  C   C17       1.0  0.4532200000000002  0.5376  0.861  1.0000
  C   C18       1.0  0.7665199999999999  0.7365299999999999  0.48724  1.0000
  C   C19       1.0  0.7159900000000002  0.027260000000000017  0.8309099999999999  1.0000
  C   C20       1.0  0.8223200000000002  0.85295  0.34921  1.0000
  C   C21       1.0  0.8773500000000003  0.8985  0.77823  1.0000
  C   C22       1.0  0.3089300000000001  0.48363999999999996  0.96167  1.0000
  C   C23       1.0  0.35187  0.86557  0.17881  1.0000
  C   C24       1.0  0.4517399999999998  0.63036  0.5628  1.0000
  C   C25       1.0  0.6769400000000001  0.43263999999999997  0.54822  1.0000
  C   C26       1.0  0.48576000000000025  0.37015000000000003  0.09776  1.0000
  C   C27       1.0  0.9515099999999997  0.6909000000000001  0.40246  1.0000
  C   C28       1.0  0.43409  0.6381399999999999  0.9773800000000001  1.0000
  C   C29       1.0  0.6908900000000002  0.95141  0.90235  1.0000
  C   C30       1.0  0.40099  0.63975  0.50428  1.0000
  C   C31       1.0  0.56769  0.36003  0.02264  1.0000
  C   C32       1.0  0.50871  0.69587  0.53967  1.0000
  C   C33       1.0  0.64462  0.13690999999999998  0.82089  1.0000
  C   C34       1.0  0.37015  0.48589  0.59748  1.0000
  C   C35       1.0  0.4321900000000001  0.67749  0.04726  1.0000
  C   C36       1.0  0.12048  0.10278000000000001  0.22281  1.0000
  C   C37       1.0  0.12979  0.02292999999999999  0.79021  1.0000
  C   C38       1.0  0.4765500000000002  0.42195  0.15512  1.0000
  C   C39       1.0  0.4841  0.30884000000000006  0.46182  1.0000
  C   C40       1.0  0.5964000000000003  0.36287  0.49499  1.0000
  C   C41       1.0  0.5700300000000001  0.31861  0.95425  1.0000
  C   C42       1.0  0.23815000000000003  0.15233  0.08932  1.0000
  C   C43       1.0  0.73625  0.76658  0.98731  1.0000
  C   C44       1.0  0.5377300000000003  0.45314  0.36104  1.0000
  C   C45       1.0  0.63007  0.51539  0.4017  1.0000
  C   C46       1.0  0.5641600000000001  0.60903  0.26338  1.0000
  C   C47       1.0  0.02711000000000005  0.7161699999999999  0.33088  1.0000
  C   C48       1.0  0.9744100000000003  0.8717600000000001  0.71127  1.0000
  C   C49       1.0  0.46087  0.5498500000000001  0.63795  1.0000
  C   C50       1.0  0.8101900000000001  0.0007099999999999961  0.76948  1.0000
  C   C51       1.0  0.15207  0.23808999999999997  0.58933  1.0000
  C   C52       1.0  0.36274  0.5963200000000001  0.99436  1.0000
  C   C53       1.0  0.63969  0.40096  0.005  1.0000
  C   C54       1.0  0.7596000000000004  0.84951  0.91163  1.0000
  C   C55       1.0  0.36022000000000015  0.56769  0.52196  1.0000
  C   C56       1.0  0.10291000000000006  0.11998000000000006  0.7229299999999999  1.0000
  C   C57       1.0  0.54427  0.37355  0.4368  1.0000
  C   C58       1.0  0.05025  0.30676  0.59821  1.0000
  C   C59       1.0  0.023620000000000002  0.12927  0.28999  1.0000
  C   C60       1.0  0.18734  0.0005700000000000037  0.23137  1.0000
  C   C61       1.0  0.87119  0.97511  0.21105  1.0000
  C   C62       1.0  0.57941  0.52453  0.34308  1.0000
  C   C63       1.0  0.6302299999999998  0.45175000000000004  0.06329  1.0000
  C   C64       1.0  0.9745800000000001  0.28094  0.66951  1.0000
  C   C65       1.0  0.6092600000000004  0.564  0.76401  1.0000
  C   C66       1.0  0.23686000000000004  0.25861  0.51399  1.0000
  C   C67       1.0  0.8980700000000003  0.8779000000000001  0.27822  1.0000
  C   C68       1.0  0.31925  0.5697  0.45326  1.0000
  C   C69       1.0  0.5245800000000005  0.57931  0.84326  1.0000
  C   C70       1.0  0.6959800000000002  0.50836  0.04027  1.0000
  C   C71       1.0  0.14519  0.17870000000000003  0.1519  1.0000
  C   C72       1.0  0.54967  0.46091  0.13812  1.0000
  O   O1        1.0  0.93669  0.009029999999999998  0.15151  1.0000
  O   O2        1.0  0.7953100000000001  0.64213  0.53968  1.0000
  O   O3        1.0  0.7999000000000002  0.31682999999999995  0.7378  1.0000
  O   O4        1.0  0.9640900000000001  0.21984  0.29639  1.0000
  O   O5        1.0  0.99006  0.06348  0.34934  1.0000
  O   O6        1.0  0.5528  0.15938  0.8650899999999999  1.0000
  O   O7        1.0  0.4974100000000002  0.62561  0.22263  1.0000
  O   O8        1.0  0.6786700000000004  0.36215  0.6186  1.0000
  O   O9        1.0  0.22062999999999994  0.9635100000000001  0.79657  1.0000
  O   O10       1.0  0.5004800000000003  0.28502000000000005  0.97319  1.0000
  O   O11       1.0  0.50764  0.70248  0.03146  1.0000
  O   O12       1.0  0.19198999999999997  0.32198  0.9986  1.0000
  O   O13       1.0  0.35542999999999997  0.21061  0.96564  1.0000
  O   O14       1.0  0.6263100000000005  0.49698999999999993  0.72365  1.0000
  O   O15       1.0  0.68558  0.20038  0.7655  1.0000
  O   O16       1.0  0.3233799999999999  0.6368000000000001  0.38051  1.0000
  O   O17       1.0  0.38386000000000015  0.3390599999999999  0.77111  1.0000
  O   O18       1.0  0.37328000000000006  0.50636  0.27308  1.0000
  O   O19       1.0  0.44201  0.84599  0.12951  1.0000
  O   O20       1.0  0.63723  0.32283000000000006  0.88166  1.0000
  O   O21       1.0  0.7014800000000001  0.50827  0.53226  1.0000
  O   O22       1.0  0.68034  0.56507  0.08924  1.0000
  O   O23       1.0  0.1593700000000001  0.5527099999999999  0.36462  1.0000
  O   O24       1.0  0.33871  0.3839  0.2706  1.0000
  O   O25       1.0  0.008520000000000067  0.93711  0.65177  1.0000
  O   O26       1.0  0.61653  0.66355  0.2265  1.0000
  O   O27       1.0  0.84543  0.44245  0.6303600000000001  1.0000
  O   O28       1.0  0.32160000000000005  0.19184000000000007  0.49900999999999995  1.0000
  O   O29       1.0  0.42424  0.33472  0.40948  1.0000
  O   O30       1.0  0.06436000000000004  0.9889  0.84963  1.0000
  O   O31       1.0  0.31647000000000003  0.79968  0.23636  1.0000
  O   O32       1.0  0.7674399999999999  0.5060600000000002  0.97183  1.0000
  O   O33       1.0  0.6635900000000001  0.61651  0.72697  1.0000
  O   O34       1.0  0.5064700000000002  0.37378  0.77362  1.0000
  O   O35       1.0  0.48946  0.2371  0.52782  1.0000
  O   O36       1.0  0.03365999999999998  0.7809700000000002  0.70533  1.0000
  O   O37       1.0  0.5062099999999999  0.76725  0.47089  1.0000
  O   O38       1.0  0.6422800000000002  0.79567  0.03927  1.0000
  O   O39       1.0  0.23724999999999996  0.4888600000000001  0.02744  1.0000
  O   O40       1.0  0.56578  0.6801499999999999  0.58853  1.0000
  O   O41       1.0  0.28624000000000005  0.49960999999999994  0.47253  1.0000
  O   O42       1.0  0.20019000000000006  0.68521  0.26426  1.0000
  O   O43       1.0  0.33502999999999983  0.42407000000000006  0.90931  1.0000
  O   O44       1.0  0.36185999999999996  0.6790800000000001  0.11743  1.0000
  O   O45       1.0  0.7803500000000002  0.03464999999999999  0.20478  1.0000
  O   O46       1.0  0.21068999999999996  0.35545  0.4655  1.0000
  O   O47       1.0  0.79933  0.67848  2e-05  1.0000
  O   O48       1.0  0.6787400000000002  0.7995099999999999  0.49979  1.0000
