data_image0
_chemical_formula_structural       Ni12H24C24O48
_chemical_formula_sum              "Ni12 H24 C24 O48"
_cell_length_a       9.98026
_cell_length_b       11.30573
_cell_length_c       14.65988
_cell_angle_alpha    91.32054
_cell_angle_beta     90.00318999999999
_cell_angle_gamma    89.99865000000001

_symmetry_space_group_name_H-M    'P 1'
_symmetry_Int_Tables_number       1

loop_
  _symmetry_equiv_pos_as_xyz
  'x,y,z'

loop_
  _atom_site_type_symbol
  _atom_site_label
  _atom_site_symmetry_multiplicity
  _atom_site_fract_x
  _atom_site_fract_y
  _atom_site_fract_z
  _atom_site_occupancy
  Ni  Ni1       1.0  0.92487  0.24458  0.36636  1.0000
  Ni  Ni2       1.0  0.61705  0.2398  0.30783  1.0000
  Ni  Ni3       1.0  0.42486000000000007  0.25542  0.13364  1.0000
  Ni  Ni4       1.0  0.11700999999999999  0.26026  0.1922  1.0000
  Ni  Ni5       1.0  0.07513  0.75542  0.6336299999999999  1.0000
  Ni  Ni6       1.0  0.38296  0.7601999999999997  0.6921599999999998  1.0000
  Ni  Ni7       1.0  0.57515  0.74458  0.86635  1.0000
  Ni  Ni8       1.0  0.88299  0.7397399999999998  0.8078  1.0000
  Ni  Ni9       1.0  2.7158665517869888e-21  0.5  0.5  1.0000
  Ni  Ni10      1.0  0.5  0.0  0.0  1.0000
  Ni  Ni11      1.0  0.0  0.0  0.5  1.0000
  Ni  Ni12      1.0  0.5  0.5  0.0  1.0000
  H   H1        1.0  0.70677  0.99816  0.49223  1.0000
  H   H2        1.0  0.60699  0.44403000000000004  0.45248  1.0000
  H   H3        1.0  0.20378  0.01253  0.26434  1.0000
  H   H4        1.0  0.75361  0.14334  0.12373  1.0000
  H   H5        1.0  0.16444  0.31319  0.57782  1.0000
  H   H6        1.0  0.05899  0.52878  0.22977  1.0000
  H   H7        1.0  0.20672999999999997  0.50179  0.00772  1.0000
  H   H8        1.0  0.10696000000000001  0.05612  0.04754  1.0000
  H   H9        1.0  0.70384  0.48751000000000005  0.2357  1.0000
  H   H10       1.0  0.25377  0.35682  0.37631  1.0000
  H   H11       1.0  0.66447  0.18683999999999998  0.92217  1.0000
  H   H12       1.0  0.55898  0.97121  0.27022  1.0000
  H   H13       1.0  0.29323  0.001840000000000001  0.50777  1.0000
  H   H14       1.0  0.39301  0.55597  0.54752  1.0000
  H   H15       1.0  0.79622  0.9874699999999998  0.73566  1.0000
  H   H16       1.0  0.24638999999999997  0.8566599999999999  0.87626  1.0000
  H   H17       1.0  0.8355700000000001  0.68681  0.42218  1.0000
  H   H18       1.0  0.94101  0.47121999999999997  0.7702299999999997  1.0000
  H   H19       1.0  0.79328  0.49821  0.9922799999999998  1.0000
  H   H20       1.0  0.8930400000000001  0.9438799999999999  0.95246  1.0000
  H   H21       1.0  0.29616  0.51249  0.7643  1.0000
  H   H22       1.0  0.74624  0.64318  0.62369  1.0000
  H   H23       1.0  0.33554  0.8131600000000001  0.07782  1.0000
  H   H24       1.0  0.44103  0.028789999999999996  0.7297799999999998  1.0000
  C   C1        1.0  0.72518  0.07040999999999999  0.44496999999999987  1.0000
  C   C2        1.0  0.71551  0.42778000000000005  0.4464099999999999  1.0000
  C   C3        1.0  0.13346  0.04366  0.31779  1.0000
  C   C4        1.0  0.83568  0.17442  0.16831  1.0000
  C   C5        1.0  0.10258  0.25763  0.53206  1.0000
  C   C6        1.0  0.026930000000000003  0.48281999999999997  0.29153  1.0000
  C   C7        1.0  0.22514  0.4295900000000001  0.05503  1.0000
  C   C8        1.0  0.21549  0.07238  0.05361  1.0000
  C   C9        1.0  0.63348  0.45634  0.18227999999999994  1.0000
  C   C10       1.0  0.33574  0.3256  0.33171  1.0000
  C   C11       1.0  0.6026  0.24238  0.96794  1.0000
  C   C12       1.0  0.52691  0.01717  0.20845  1.0000
  C   C13       1.0  0.27483  0.92959  0.55503  1.0000
  C   C14       1.0  0.28449  0.57222  0.55359  1.0000
  C   C15       1.0  0.8665399999999999  0.9563400000000001  0.68221  1.0000
  C   C16       1.0  0.16432  0.82558  0.83168  1.0000
  C   C17       1.0  0.8974200000000001  0.74237  0.46794  1.0000
  C   C18       1.0  0.9730699999999999  0.51718  0.70846  1.0000
  C   C19       1.0  0.77486  0.57041  0.94497  1.0000
  C   C20       1.0  0.78451  0.9276199999999999  0.9463899999999997  1.0000
  C   C21       1.0  0.36652  0.54366  0.8177199999999998  1.0000
  C   C22       1.0  0.66426  0.6744  0.66829  1.0000
  C   C23       1.0  0.39741  0.7576200000000001  0.03206  1.0000
  C   C24       1.0  0.47309000000000007  0.98283  0.79155  1.0000
  O   O1        1.0  0.84872  0.10194  0.4366399999999999  1.0000
  O   O2        1.0  0.62551  0.11293  0.40474  1.0000
  O   O3        1.0  0.8067900000000001  0.1901  0.25343  1.0000
  O   O4        1.0  0.74937  0.34799  0.38646  1.0000
  O   O5        1.0  0.08746  0.14912  0.308  1.0000
  O   O6        1.0  0.01294  0.3697599999999999  0.2822  1.0000
  O   O7        1.0  0.026250000000000002  0.31529  0.4772099999999999  1.0000
  O   O8        1.0  0.9480900000000001  0.18974  0.13153  1.0000
  O   O9        1.0  0.00694  0.54283  0.36307  1.0000
  O   O10       1.0  0.79294  0.48815  0.49622  1.0000
  O   O11       1.0  0.10771  0.97486  0.38112  1.0000
  O   O12       1.0  0.11382999999999999  0.14779  0.53677  1.0000
  O   O13       1.0  0.34869  0.39807  0.06336  1.0000
  O   O14       1.0  0.12547  0.38709999999999994  0.09526999999999997  1.0000
  O   O15       1.0  0.30681  0.30991  0.24659  1.0000
  O   O16       1.0  0.24928  0.15236  0.11346  1.0000
  O   O17       1.0  0.5874  0.35094  0.19216  1.0000
  O   O18       1.0  0.51293  0.13022  0.21778999999999998  1.0000
  O   O19       1.0  0.52629  0.18471000000000004  0.02279  1.0000
  O   O20       1.0  0.44816  0.31022  0.36849  1.0000
  O   O21       1.0  0.50694  0.9571499999999998  0.13691  1.0000
  O   O22       1.0  0.29292  0.01191  0.0038699999999999993  1.0000
  O   O23       1.0  0.60777  0.52507  0.11887  1.0000
  O   O24       1.0  0.61381  0.35223  0.96324  1.0000
  O   O25       1.0  0.15128  0.89806  0.56335  1.0000
  O   O26       1.0  0.3745  0.88707  0.59526  1.0000
  O   O27       1.0  0.19321  0.8099000000000001  0.74657  1.0000
  O   O28       1.0  0.25064  0.65201  0.61354  1.0000
  O   O29       1.0  0.9125399999999999  0.85088  0.692  1.0000
  O   O30       1.0  0.9870600000000002  0.63024  0.7178  1.0000
  O   O31       1.0  0.97375  0.68471  0.52279  1.0000
  O   O32       1.0  0.05191  0.8102600000000001  0.86847  1.0000
  O   O33       1.0  0.99307  0.45717  0.6369299999999998  1.0000
  O   O34       1.0  0.20707  0.51185  0.50377  1.0000
  O   O35       1.0  0.8922900000000001  0.02514  0.61888  1.0000
  O   O36       1.0  0.88617  0.8522099999999999  0.46323  1.0000
  O   O37       1.0  0.65131  0.60193  0.93663  1.0000
  O   O38       1.0  0.87453  0.6129  0.90473  1.0000
  O   O39       1.0  0.6932  0.69009  0.7534  1.0000
  O   O40       1.0  0.75073  0.8476400000000001  0.8865399999999998  1.0000
  O   O41       1.0  0.41261  0.64906  0.80784  1.0000
  O   O42       1.0  0.48706999999999995  0.86978  0.78221  1.0000
  O   O43       1.0  0.47372  0.8152899999999998  0.97721  1.0000
  O   O44       1.0  0.55185  0.68978  0.63151  1.0000
  O   O45       1.0  0.49306999999999995  0.04285  0.86309  1.0000
  O   O46       1.0  0.70708  0.98809  0.99613  1.0000
  O   O47       1.0  0.39224  0.47492999999999996  0.88113  1.0000
  O   O48       1.0  0.38619  0.64777  0.03676  1.0000
