data_image0
_chemical_formula_structural       Zn4P4H28C56O28
_chemical_formula_sum              "Zn4 P4 H28 C56 O28"
_cell_length_a       6.78993
_cell_length_b       11.32963
_cell_length_c       21.9498
_cell_angle_alpha    97.24342
_cell_angle_beta     90.86612
_cell_angle_gamma    107.67642999999998

_space_group_name_H-M_alt    "P 1"
_space_group_IT_number       1

loop_
  _space_group_symop_operation_xyz
  'x, y, z'

loop_
  _atom_site_type_symbol
  _atom_site_label
  _atom_site_symmetry_multiplicity
  _atom_site_fract_x
  _atom_site_fract_y
  _atom_site_fract_z
  _atom_site_occupancy
  Zn  Zn1       1.0  0.19836999999999994  0.8416899999999999  0.50163  1.0000
  Zn  Zn2       1.0  0.36044  0.15852999999999998  0.99842  1.0000
  Zn  Zn3       1.0  0.8016  0.15829999999999997  0.4983699999999999  1.0000
  Zn  Zn4       1.0  0.63953  0.84146  0.0015799999999999998  1.0000
  P   P1        1.0  0.16995999999999994  0.8586699999999999  0.96762  1.0000
  P   P2        1.0  0.3157099999999999  0.14211  0.53174  1.0000
  P   P3        1.0  0.83002  0.14132  0.03237999999999999  1.0000
  P   P4        1.0  0.6842699999999998  0.8578899999999999  0.46826  1.0000
  H   H1        1.0  0.0516  0.35762  0.55143  1.0000
  H   H2        1.0  0.9611399999999998  0.35423  0.7445  1.0000
  H   H3        1.0  0.08683999999999996  0.45986999999999995  0.83  1.0000
  H   H4        1.0  0.1301999999999999  0.5892999999999999  0.9309699999999999  1.0000
  H   H5        1.0  0.14782000000000003  0.91244  0.84309  1.0000
  H   H6        1.0  0.09607000000000002  0.78463  0.7419299999999999  1.0000
  H   H7        1.0  0.17727000000000007  0.70534  0.66823  1.0000
  H   H8        1.0  0.6856399999999998  0.64367  0.94989  1.0000
  H   H9        1.0  0.60614  0.64506  0.75573  1.0000
  H   H10       1.0  0.6243799999999999  0.54293  0.67072  1.0000
  H   H11       1.0  0.53524  0.41451  0.56928  1.0000
  H   H12       1.0  0.26382999999999995  0.08487999999999997  0.6556199999999999  1.0000
  H   H13       1.0  0.34558  0.21053  0.75722  1.0000
  H   H14       1.0  0.48793  0.29516999999999993  0.8326699999999999  1.0000
  H   H15       1.0  0.9483799999999996  0.6423699999999998  0.44856999999999997  1.0000
  H   H16       1.0  0.038859999999999825  0.6457599999999999  0.25549  1.0000
  H   H17       1.0  0.91315  0.54012  0.17001  1.0000
  H   H18       1.0  0.8697799999999998  0.41068999999999994  0.06903  1.0000
  H   H19       1.0  0.8521899999999998  0.08755  0.15691  1.0000
  H   H20       1.0  0.90394  0.21536  0.25807  1.0000
  H   H21       1.0  0.8227199999999997  0.29465  0.33177  1.0000
  H   H22       1.0  0.31435  0.35631  0.05011  1.0000
  H   H23       1.0  0.39386  0.35491999999999996  0.24428  1.0000
  H   H24       1.0  0.3756  0.45706  0.32928  1.0000
  H   H25       1.0  0.46474  0.58547  0.43073  1.0000
  H   H26       1.0  0.7361499999999997  0.9151099999999999  0.34437  1.0000
  H   H27       1.0  0.65441  0.7894499999999999  0.24277999999999997  1.0000
  H   H28       1.0  0.51206  0.70481  0.16733  1.0000
  C   C1        1.0  0.16264  0.61024  0.55145  1.0000
  C   C2        1.0  0.11099000000000003  0.53844  0.60545  1.0000
  C   C3        1.0  0.047229999999999966  0.4066699999999999  0.59706  1.0000
  C   C4        1.0  0.98511  0.34151  0.64744  1.0000
  C   C5        1.0  0.8831099999999998  0.20198  0.63943  1.0000
  C   C6        1.0  0.006980000000000005  0.4076  0.70637  1.0000
  C   C7        1.0  0.07707999999999994  0.54069  0.7162  1.0000
  C   C8        1.0  0.09284999999999989  0.6116099999999999  0.77703  1.0000
  C   C9        1.0  0.09598999999999995  0.5579499999999998  0.8321799999999998  1.0000
  C   C10       1.0  0.12059  0.63042  0.88916  1.0000
  C   C11       1.0  0.14343  0.76046  0.89381  1.0000
  C   C12       1.0  0.13590999999999975  0.8139499999999997  0.8394199999999998  1.0000
  C   C13       1.0  0.10906999999999983  0.7417199999999999  0.78273  1.0000
  C   C14       1.0  0.12578000000000003  0.6039  0.66391  1.0000
  C   C15       1.0  0.55114  0.39158999999999994  0.9499999999999998  1.0000
  C   C16       1.0  0.57452  0.46215  0.8954899999999999  1.0000
  C   C17       1.0  0.6358699999999998  0.59391  0.9039299999999998  1.0000
  C   C18       1.0  0.6372899999999999  0.65817  0.85315  1.0000
  C   C19       1.0  0.6639699999999998  0.79639  0.8606799999999999  1.0000
  C   C20       1.0  0.60078  0.5920799999999999  0.7940699999999999  1.0000
  C   C21       1.0  0.54669  0.45913  0.7842  1.0000
  C   C22       1.0  0.49573999999999996  0.38796  0.7230999999999999  1.0000
  C   C23       1.0  0.54315  0.44339  0.6682  1.0000
  C   C24       1.0  0.49309  0.37165  0.6109199999999999  1.0000
  C   C25       1.0  0.3931  0.24035999999999996  0.6057  1.0000
  C   C26       1.0  0.34392999999999985  0.18468  0.65984  1.0000
  C   C27       1.0  0.39215  0.25605  0.7168  1.0000
  C   C28       1.0  0.53254  0.39642  0.8367899999999999  1.0000
  C   C29       1.0  0.8373399999999998  0.38974999999999993  0.44855  1.0000
  C   C30       1.0  0.88899  0.46155  0.3945499999999999  1.0000
  C   C31       1.0  0.95275  0.59332  0.40294  1.0000
  C   C32       1.0  0.014879999999999944  0.65848  0.35256  1.0000
  C   C33       1.0  0.11687999999999998  0.7980299999999999  0.36057  1.0000
  C   C34       1.0  0.9930199999999998  0.59239  0.29363  1.0000
  C   C35       1.0  0.9229199999999997  0.4593  0.2838  1.0000
  C   C36       1.0  0.9071499999999998  0.38838  0.22297  1.0000
  C   C37       1.0  0.9039999999999998  0.44204  0.16781999999999997  1.0000
  C   C38       1.0  0.8793899999999997  0.36957  0.11083999999999998  1.0000
  C   C39       1.0  0.85656  0.23953  0.10618999999999998  1.0000
  C   C40       1.0  0.86409  0.18604  0.16058  1.0000
  C   C41       1.0  0.8909399999999998  0.25827  0.21726999999999996  1.0000
  C   C42       1.0  0.8742099999999999  0.39609  0.33609  1.0000
  C   C43       1.0  0.44884999999999997  0.6084  0.05  1.0000
  C   C44       1.0  0.42548  0.53783  0.10451  1.0000
  C   C45       1.0  0.36411999999999983  0.40607999999999994  0.09606999999999999  1.0000
  C   C46       1.0  0.36269999999999997  0.34180999999999995  0.14684999999999998  1.0000
  C   C47       1.0  0.33598999999999984  0.20358999999999997  0.13933  1.0000
  C   C48       1.0  0.3992099999999999  0.4079  0.20593  1.0000
  C   C49       1.0  0.45328999999999997  0.5408499999999999  0.21579999999999996  1.0000
  C   C50       1.0  0.5042499999999998  0.6120299999999997  0.2769  1.0000
  C   C51       1.0  0.45682999999999996  0.5566  0.33181  1.0000
  C   C52       1.0  0.5068899999999998  0.6283399999999999  0.38908  1.0000
  C   C53       1.0  0.60688  0.7596199999999999  0.39429  1.0000
  C   C54       1.0  0.65605  0.81531  0.34016  1.0000
  C   C55       1.0  0.60784  0.7439399999999999  0.2832  1.0000
  C   C56       1.0  0.46745999999999993  0.60356  0.1632  1.0000
  O   O1        1.0  0.23807999999999996  0.5643  0.50623  1.0000
  O   O2        1.0  0.11929000000000001  0.71366  0.55766  1.0000
  O   O3        1.0  0.7885099999999997  0.14641  0.58768  1.0000
  O   O4        1.0  0.88428  0.14473000000000003  0.68463  1.0000
  O   O5        1.0  0.3322799999999999  0.83347  0.00891  1.0000
  O   O6        1.0  0.9530999999999997  0.8211  0.9917499999999999  1.0000
  O   O7        1.0  0.23668999999999998  0.99321  0.9513199999999999  1.0000
  O   O8        1.0  0.66884  0.44027999999999995  0.99682  1.0000
  O   O9        1.0  0.40534999999999977  0.2867599999999999  0.9424299999999998  1.0000
  O   O10       1.0  0.6251399999999997  0.8507999999999999  0.91205  1.0000
  O   O11       1.0  0.7130699999999999  0.85295  0.81506  1.0000
  O   O12       1.0  0.50208  0.16662  0.49135  1.0000
  O   O13       1.0  0.13666999999999999  0.17948999999999998  0.5060099999999998  1.0000
  O   O14       1.0  0.24731999999999996  0.007829999999999997  0.54844  1.0000
  O   O15       1.0  0.7619099999999999  0.4357  0.49376999999999993  1.0000
  O   O16       1.0  0.8806899999999998  0.28633  0.44234  1.0000
  O   O17       1.0  0.21146999999999994  0.85358  0.4123199999999999  1.0000
  O   O18       1.0  0.11570999999999998  0.8552499999999998  0.31538  1.0000
  O   O19       1.0  0.6676899999999999  0.16651999999999992  0.9910899999999998  1.0000
  O   O20       1.0  0.04687  0.1789  0.00825  1.0000
  O   O21       1.0  0.7633  0.006779999999999999  0.04868  1.0000
  O   O22       1.0  0.33114  0.55971  0.00318  1.0000
  O   O23       1.0  0.5946299999999999  0.7132299999999999  0.05757  1.0000
  O   O24       1.0  0.3746999999999999  0.14916999999999997  0.08794  1.0000
  O   O25       1.0  0.28694  0.14703  0.18494  1.0000
  O   O26       1.0  0.49790999999999996  0.83337  0.50865  1.0000
  O   O27       1.0  0.86331  0.8204999999999999  0.49399  1.0000
  O   O28       1.0  0.75267  0.99216  0.45155999999999996  1.0000
