data_image0
_chemical_formula_structural       Zn2H54C66O18
_chemical_formula_sum              "Zn2 H54 C66 O18"
_cell_length_a       7.81758
_cell_length_b       15.534200000000002
_cell_length_c       15.535950000000001
_cell_angle_alpha    93.59946
_cell_angle_beta     98.60592
_cell_angle_gamma    98.60825999999999

_space_group_name_H-M_alt    "P 1"
_space_group_IT_number       1

loop_
  _space_group_symop_operation_xyz
  'x, y, z'

loop_
  _atom_site_type_symbol
  _atom_site_label
  _atom_site_symmetry_multiplicity
  _atom_site_fract_x
  _atom_site_fract_y
  _atom_site_fract_z
  _atom_site_occupancy
  Zn  Zn1       1.0  0.20072  0.49709  0.62572  1.0000
  Zn  Zn2       1.0  0.70088  0.6258  0.49705  1.0000
  H   H1        1.0  0.9419999999999997  0.28782000000000013  0.41362  1.0000
  H   H2        1.0  0.61052  0.23066000000000006  0.87209  1.0000
  H   H3        1.0  0.7396199999999998  0.6397300000000002  0.73067  1.0000
  H   H4        1.0  0.65305  0.021599999999999998  0.3308  1.0000
  H   H5        1.0  0.62943  0.07424000000000003  0.80628  1.0000
  H   H6        1.0  0.36006000000000005  0.9181000000000002  0.1504  1.0000
  H   H7        1.0  0.23114  0.05733  0.11159  1.0000
  H   H8        1.0  0.9793899999999998  0.19122  0.14743  1.0000
  H   H9        1.0  0.04177999999999998  0.1363  0.75172  1.0000
  H   H10       1.0  0.68066  0.8776100000000001  0.91504  1.0000
  H   H11       1.0  0.8697400000000001  0.72309  0.68164  1.0000
  H   H12       1.0  0.18689  0.06093000000000001  0.7348  1.0000
  H   H13       1.0  0.71421  0.8261000000000002  0.35116  1.0000
  H   H14       1.0  0.34201000000000004  0.3287900000000002  0.10129  1.0000
  H   H15       1.0  0.4793499999999999  0.14743  0.19121  1.0000
  H   H16       1.0  0.6868299999999998  0.7347600000000002  0.06092  1.0000
  H   H17       1.0  0.7017499999999997  0.33636  0.03074  1.0000
  H   H18       1.0  0.25597  0.82637  0.50405  1.0000
  H   H19       1.0  0.73115  0.11158000000000003  0.05731  1.0000
  H   H20       1.0  0.39165999999999995  0.1636  0.4167299999999999  1.0000
  H   H21       1.0  0.89167  0.41676000000000013  0.16356  1.0000
  H   H22       1.0  0.47147  0.7813800000000002  0.43093  1.0000
  H   H23       1.0  0.15303000000000005  0.3308100000000001  0.0216  1.0000
  H   H24       1.0  0.97145  0.4309400000000001  0.78138  1.0000
  H   H25       1.0  0.1806599999999999  0.91502  0.8775999999999998  1.0000
  H   H26       1.0  0.86009  0.1504  0.91813  1.0000
  H   H27       1.0  0.07196000000000001  0.06522000000000003  0.02104  1.0000
  H   H28       1.0  0.57195  0.02102  0.06521  1.0000
  H   H29       1.0  0.26472  0.42351  0.34759  1.0000
  H   H30       1.0  0.66765  0.027629999999999988  0.96991  1.0000
  H   H31       1.0  0.3697299999999999  0.68162  0.72303  1.0000
  H   H32       1.0  0.7646599999999998  0.34754  0.42339  1.0000
  H   H33       1.0  0.23966  0.73069  0.63968  1.0000
  H   H34       1.0  0.21419  0.35117  0.82612  1.0000
  H   H35       1.0  0.5417399999999999  0.7517000000000003  0.13628  1.0000
  H   H36       1.0  0.16770000000000013  0.9699400000000002  0.02764  1.0000
  H   H37       1.0  0.36194  0.38027  0.00408  1.0000
  H   H38       1.0  0.86196  0.004059999999999994  0.38024  1.0000
  H   H39       1.0  0.7264499999999999  0.7814099999999999  0.79028  1.0000
  H   H40       1.0  0.84206  0.10128000000000002  0.32876  1.0000
  H   H41       1.0  0.17553000000000002  0.70891  0.94833  1.0000
  H   H42       1.0  0.7558399999999997  0.50405  0.82634  1.0000
  H   H43       1.0  0.21888000000000005  0.71468  0.45846  1.0000
  H   H44       1.0  0.011390000000000027  0.031500000000000014  0.79175  1.0000
  H   H45       1.0  0.44213  0.41369  0.28787  1.0000
  H   H46       1.0  0.66687  0.22618000000000005  0.32228  1.0000
  H   H47       1.0  0.5113500000000001  0.7917400000000002  0.03151  1.0000
  H   H48       1.0  0.11051000000000007  0.8720600000000001  0.23068  1.0000
  H   H49       1.0  0.6755700000000001  0.9483600000000002  0.70893  1.0000
  H   H50       1.0  0.22648  0.79027  0.7814  1.0000
  H   H51       1.0  0.16684  0.3223100000000001  0.22615  1.0000
  H   H52       1.0  0.12941000000000008  0.8062600000000002  0.07423  1.0000
  H   H53       1.0  0.7188800000000001  0.4584200000000001  0.71466  1.0000
  H   H54       1.0  0.20181  0.030770000000000006  0.33633  1.0000
  C   C1        1.0  0.31825999999999993  0.23888000000000004  0.9865299999999998  1.0000
  C   C2        1.0  0.11064  0.08642  0.78157  1.0000
  C   C3        1.0  0.95381  0.02186  0.1946  1.0000
  C   C4        1.0  0.40201  0.0034100000000000107  0.84936  1.0000
  C   C5        1.0  0.05481999999999999  0.24603  0.8769  1.0000
  C   C6        1.0  0.72778  0.86623  0.12301  1.0000
  C   C7        1.0  0.20328  0.20149000000000006  0.90996  1.0000
  C   C8        1.0  0.08286000000000003  0.3251100000000001  0.83774  1.0000
  C   C9        1.0  0.29191  0.32402  0.03112  1.0000
  C   C10       1.0  0.44527  0.81174  0.3701  1.0000
  C   C11       1.0  0.78978  0.8411600000000004  0.92271  1.0000
  C   C12       1.0  0.49451999999999985  0.49869  0.75401  1.0000
  C   C13       1.0  0.99453  0.75414  0.49871  1.0000
  C   C14       1.0  0.07089000000000002  0.1842000000000001  0.20568  1.0000
  C   C15       1.0  0.9532299999999998  0.73876  0.8627  1.0000
  C   C16       1.0  0.7918899999999999  0.32674  0.25128  1.0000
  C   C17       1.0  0.28979000000000005  0.9227  0.84116  1.0000
  C   C18       1.0  0.9393199999999998  0.59666  0.6634299999999997  1.0000
  C   C19       1.0  0.6634899999999999  0.461  0.77585  1.0000
  C   C20       1.0  0.97813  0.9800300000000002  0.11496  1.0000
  C   C21       1.0  0.74357  0.25544  0.86267  1.0000
  C   C22       1.0  0.38249  0.8877000000000003  0.21139999999999995  1.0000
  C   C23       1.0  0.11998  0.01958  0.06685  1.0000
  C   C24       1.0  0.90201  0.8493500000000003  0.00341  1.0000
  C   C25       1.0  0.88251  0.21141000000000004  0.88772  1.0000
  C   C26       1.0  0.61997  0.06684000000000002  0.01957  1.0000
  C   C27       1.0  0.2435700000000001  0.8626400000000002  0.25544  1.0000
  C   C28       1.0  0.77495  0.33562  0.82537  1.0000
  C   C29       1.0  0.3976700000000001  0.40661000000000014  0.35129  1.0000
  C   C30       1.0  0.4538  0.19461  0.02187  1.0000
  C   C31       1.0  0.51765  0.46788  0.42396  1.0000
  C   C32       1.0  0.36799999999999994  0.08117000000000002  0.9008299999999998  1.0000
  C   C33       1.0  0.8140999999999998  0.78679  0.85223  1.0000
  C   C34       1.0  0.04292000000000006  0.8016000000000002  0.01179  1.0000
  C   C35       1.0  0.22779999999999997  0.12302000000000005  0.86625  1.0000
  C   C36       1.0  0.6767199999999995  0.25006  0.2588  1.0000
  C   C37       1.0  0.69512  0.31247  0.09474  1.0000
  C   C38       1.0  0.16352999999999995  0.7758899999999999  0.46103  1.0000
  C   C39       1.0  0.29185  0.25132  0.32674  1.0000
  C   C40       1.0  0.80165  0.35725  0.16814  1.0000
  C   C41       1.0  0.017580000000000016  0.42396  0.46784  1.0000
  C   C42       1.0  0.07589  0.10125  0.23625  1.0000
  C   C43       1.0  0.94524  0.37011  0.81175  1.0000
  C   C44       1.0  0.4532599999999999  0.8627100000000002  0.7387599999999998  1.0000
  C   C45       1.0  0.6106000000000001  0.7815500000000002  0.08641  1.0000
  C   C46       1.0  0.7919299999999998  0.031109999999999995  0.32399999999999995  1.0000
  C   C47       1.0  0.19513999999999995  0.09477  0.31244  1.0000
  C   C48       1.0  0.54293  0.011790000000000017  0.80162  1.0000
  C   C49       1.0  0.5689699999999999  0.9427  0.7469599999999997  1.0000
  C   C50       1.0  0.8679999999999999  0.90082  0.08117  1.0000
  C   C51       1.0  0.43934999999999996  0.66345  0.5966299999999999  1.0000
  C   C52       1.0  0.3016400000000001  0.16818  0.35723  1.0000
  C   C53       1.0  0.8182699999999996  0.98652  0.23886  1.0000
  C   C54       1.0  0.8976500000000001  0.3512800000000002  0.40655  1.0000
  C   C55       1.0  0.57087  0.20569  0.18418  1.0000
  C   C56       1.0  0.57588  0.23626  0.10123  1.0000
  C   C57       1.0  0.55482  0.87688  0.24602  1.0000
  C   C58       1.0  0.06894  0.74695  0.94268  1.0000
  C   C59       1.0  0.27498  0.82536  0.33563  1.0000
  C   C60       1.0  0.5828800000000001  0.8377300000000002  0.32509  1.0000
  C   C61       1.0  0.47812  0.11496  0.98004  1.0000
  C   C62       1.0  0.7032700000000001  0.9099400000000002  0.20147  1.0000
  C   C63       1.0  0.17671  0.25883  0.25005  1.0000
  C   C64       1.0  0.3141300000000001  0.8522200000000002  0.78679  1.0000
  C   C65       1.0  0.3726699999999999  0.7182  0.6646399999999998  1.0000
  C   C66       1.0  0.87265  0.66466  0.7181799999999998  1.0000
  O   O1        1.0  0.5081899999999998  0.57968  0.77121  1.0000
  O   O2        1.0  0.06665000000000004  0.5626100000000003  0.70066  1.0000
  O   O3        1.0  0.06337000000000001  0.40107  0.54572  1.0000
  O   O4        1.0  0.86716  0.5761500000000002  0.58477  1.0000
  O   O5        1.0  0.36712  0.58478  0.57612  1.0000
  O   O6        1.0  0.56353  0.54575  0.40108  1.0000
  O   O7        1.0  0.85948  0.71463  0.4459  1.0000
  O   O8        1.0  0.9001099999999995  0.37604  0.31857  1.0000
  O   O9        1.0  0.99119  0.68347  0.79995  1.0000
  O   O10       1.0  0.55941  0.44141  0.49666  1.0000
  O   O11       1.0  0.49121999999999993  0.7999600000000002  0.68347  1.0000
  O   O12       1.0  0.40004  0.31861999999999996  0.37605  1.0000
  O   O13       1.0  0.13127000000000005  0.8045000000000002  0.3745  1.0000
  O   O14       1.0  0.05942  0.49664  0.44138  1.0000
  O   O15       1.0  0.63121  0.37447  0.80448  1.0000
  O   O16       1.0  0.008290000000000122  0.7711900000000005  0.57972  1.0000
  O   O17       1.0  0.56669  0.70066  0.5626199999999998  1.0000
  O   O18       1.0  0.35964000000000007  0.4458800000000001  0.71436  1.0000
