data_image0
_chemical_formula_structural       Y8H32C32O64
_chemical_formula_sum              "Y8 H32 C32 O64"
_cell_length_a       12.9568
_cell_length_b       13.002320000000001
_cell_length_c       14.33076
_cell_angle_alpha    89.98793
_cell_angle_beta     106.29102
_cell_angle_gamma    90.00716999999999

_symmetry_space_group_name_H-M    'P 1'
_symmetry_Int_Tables_number       1

loop_
  _symmetry_equiv_pos_as_xyz
  'x,y,z'

loop_
  _atom_site_type_symbol
  _atom_site_label
  _atom_site_symmetry_multiplicity
  _atom_site_fract_x
  _atom_site_fract_y
  _atom_site_fract_z
  _atom_site_occupancy
  Y   Y1        1.0  0.8080399999999999  0.55546  0.7230299999999998  1.0000
  Y   Y2        1.0  0.19198  0.44430999999999987  0.27697  1.0000
  Y   Y3        1.0  0.68667  0.56902  0.26333999999999996  1.0000
  Y   Y4        1.0  0.31326  0.43099  0.7367  1.0000
  Y   Y5        1.0  0.8113699999999998  0.06858  0.23489999999999994  1.0000
  Y   Y6        1.0  0.18861999999999998  0.9314299999999999  0.7651  1.0000
  Y   Y7        1.0  0.6935399999999998  0.055459999999999995  0.7765599999999998  1.0000
  Y   Y8        1.0  0.30647  0.94449  0.22345999999999994  1.0000
  H   H1        1.0  0.8832699999999998  0.5341  0.008049999999999996  1.0000
  H   H2        1.0  0.1166599999999999  0.46596  0.9919399999999998  1.0000
  H   H3        1.0  0.62116  0.4965  0.9852599999999999  1.0000
  H   H4        1.0  0.37884  0.50349  0.014759999999999997  1.0000
  H   H5        1.0  0.8754399999999999  0.9969399999999998  0.51286  1.0000
  H   H6        1.0  0.12455999999999995  0.00307  0.4871399999999999  1.0000
  H   H7        1.0  0.61615  0.03378  0.49189  1.0000
  H   H8        1.0  0.3838  0.96621  0.50812  1.0000
  H   H9        1.0  0.05387999999999995  0.6969299999999999  0.8188299999999997  1.0000
  H   H10       1.0  0.9461299999999998  0.30305  0.18115999999999996  1.0000
  H   H11       1.0  0.44743  0.19656999999999997  0.6825499999999999  1.0000
  H   H12       1.0  0.55256  0.8034299999999999  0.3174499999999999  1.0000
  H   H13       1.0  0.5778  0.50754  0.80215  1.0000
  H   H14       1.0  0.42193999999999987  0.49287  0.19815999999999995  1.0000
  H   H15       1.0  0.91086  0.51948  0.19487  1.0000
  H   H16       1.0  0.08913999999999994  0.48051  0.8051599999999998  1.0000
  H   H17       1.0  0.58795  0.01928  0.30412  1.0000
  H   H18       1.0  0.41206999999999994  0.98069  0.69586  1.0000
  H   H19       1.0  0.9227999999999997  0.007549999999999999  0.6976799999999997  1.0000
  H   H20       1.0  0.07719999999999998  0.99245  0.30231  1.0000
  H   H21       1.0  0.7581199999999998  0.8127299999999998  0.66923  1.0000
  H   H22       1.0  0.24190999999999993  0.18722  0.3307899999999999  1.0000
  H   H23       1.0  0.7862399999999998  0.80419  0.3389  1.0000
  H   H24       1.0  0.21375999999999992  0.19581  0.6610999999999998  1.0000
  H   H25       1.0  0.7142399999999999  0.3038  0.15716  1.0000
  H   H26       1.0  0.28575  0.6962  0.84285  1.0000
  H   H27       1.0  0.74214  0.31356  0.83093  1.0000
  H   H28       1.0  0.25781  0.68647  0.16902999999999999  1.0000
  H   H29       1.0  0.8043499999999998  0.72618  0.5332499999999998  1.0000
  H   H30       1.0  0.19567999999999997  0.27382  0.46675999999999995  1.0000
  H   H31       1.0  0.69595  0.22649  0.9653799999999998  1.0000
  H   H32       1.0  0.30407  0.77351  0.03460999999999999  1.0000
  C   C1        1.0  0.8613099999999999  0.53554  0.9279999999999998  1.0000
  C   C2        1.0  0.13866  0.46447  0.072  1.0000
  C   C3        1.0  0.6419699999999999  0.51464  0.06348999999999999  1.0000
  C   C4        1.0  0.3580299999999999  0.48536  0.93652  1.0000
  C   C5        1.0  0.85674  0.0146  0.4347  1.0000
  C   C6        1.0  0.1432599999999999  0.9854  0.5652999999999998  1.0000
  C   C7        1.0  0.6385299999999998  0.03551  0.57196  1.0000
  C   C8        1.0  0.3614599999999999  0.96449  0.4280499999999999  1.0000
  C   C9        1.0  0.005709999999999929  0.7367099999999999  0.7521199999999998  1.0000
  C   C10       1.0  0.99428  0.26328  0.24787999999999993  1.0000
  C   C11       1.0  0.50294  0.7631599999999997  0.25171  1.0000
  C   C12       1.0  0.4970499999999999  0.23684  0.74829  1.0000
  C   C13       1.0  0.54807  0.51967  0.72143  1.0000
  C   C14       1.0  0.45193  0.47909  0.27862999999999993  1.0000
  C   C15       1.0  0.9430999999999999  0.53263  0.27501  1.0000
  C   C16       1.0  0.05689999999999999  0.46737  0.72503  1.0000
  C   C17       1.0  0.55451  0.03422  0.22425999999999996  1.0000
  C   C18       1.0  0.44545999999999997  0.96581  0.7757399999999998  1.0000
  C   C19       1.0  0.9523899999999997  0.01977  0.7783599999999998  1.0000
  C   C20       1.0  0.0476  0.98022  0.22163  1.0000
  C   C21       1.0  0.7370499999999998  0.7994  0.7385099999999998  1.0000
  C   C22       1.0  0.26287000000000005  0.20048  0.26145  1.0000
  C   C23       1.0  0.7673799999999997  0.80819  0.25815999999999995  1.0000
  C   C24       1.0  0.23261  0.19181  0.74183  1.0000
  C   C25       1.0  0.7294599999999998  0.30789  0.23764999999999994  1.0000
  C   C26       1.0  0.27054  0.69211  0.76236  1.0000
  C   C27       1.0  0.76449  0.30001  0.76227  1.0000
  C   C28       1.0  0.23559999999999992  0.6999399999999999  0.23774999999999993  1.0000
  C   C29       1.0  0.7624499999999997  0.65468  0.502  1.0000
  C   C30       1.0  0.23754999999999998  0.34534  0.4980199999999999  1.0000
  C   C31       1.0  0.7372999999999998  0.15492  0.9970299999999997  1.0000
  C   C32       1.0  0.26271  0.84508  0.002969999999999999  1.0000
  O   O1        1.0  0.76532  0.5149  0.8789999999999998  1.0000
  O   O2        1.0  0.23465  0.48506  0.12099  1.0000
  O   O3        1.0  0.7393099999999998  0.53074  0.11200999999999997  1.0000
  O   O4        1.0  0.26069  0.46925  0.888  1.0000
  O   O5        1.0  0.7599299999999999  0.03079  0.38427999999999995  1.0000
  O   O6        1.0  0.2400699999999999  0.9692099999999998  0.6157099999999999  1.0000
  O   O7        1.0  0.7347  0.01506  0.6206899999999999  1.0000
  O   O8        1.0  0.2653  0.98494  0.37929999999999997  1.0000
  O   O9        1.0  0.9322099999999998  0.55712  0.88422  1.0000
  O   O10       1.0  0.06778  0.44286  0.11578999999999998  1.0000
  O   O11       1.0  0.5679  0.52035  0.10611999999999999  1.0000
  O   O12       1.0  0.4321  0.47964999999999997  0.8938799999999998  1.0000
  O   O13       1.0  0.9320200000000001  0.01995  0.39362  1.0000
  O   O14       1.0  0.06799000000000001  0.98005  0.60638  1.0000
  O   O15       1.0  0.5678199999999999  0.05724  0.6158599999999997  1.0000
  O   O16       1.0  0.43217  0.9427599999999999  0.38416999999999996  1.0000
  O   O17       1.0  0.9202099999999998  0.69272  0.7042099999999999  1.0000
  O   O18       1.0  0.07976999999999998  0.30727  0.29580999999999996  1.0000
  O   O19       1.0  0.58285  0.19268  0.7955499999999999  1.0000
  O   O20       1.0  0.41714  0.8073199999999999  0.20444999999999994  1.0000
  O   O21       1.0  0.04056999999999998  0.82188  0.73152  1.0000
  O   O22       1.0  0.95943  0.17811  0.26848  1.0000
  O   O23       1.0  0.46377  0.32274  0.76863  1.0000
  O   O24       1.0  0.53621  0.67726  0.23136999999999996  1.0000
  O   O25       1.0  0.61998  0.53623  0.67988  1.0000
  O   O26       1.0  0.38039  0.45964  0.31995  1.0000
  O   O27       1.0  0.8751  0.55801  0.31877  1.0000
  O   O28       1.0  0.12488  0.44199  0.68123  1.0000
  O   O29       1.0  0.62138  0.06271  0.18051999999999996  1.0000
  O   O30       1.0  0.37855999999999995  0.93735  0.8194699999999998  1.0000
  O   O31       1.0  0.8805599999999999  0.03638  0.8200399999999998  1.0000
  O   O32       1.0  0.11943999999999998  0.96361  0.17995999999999995  1.0000
  O   O33       1.0  0.44773999999999997  0.51536  0.68499  1.0000
  O   O34       1.0  0.5522  0.48463  0.31505999999999995  1.0000
  O   O35       1.0  0.04290999999999996  0.52042  0.31019999999999986  1.0000
  O   O36       1.0  0.9570899999999998  0.4795799999999999  0.6897899999999998  1.0000
  O   O37       1.0  0.4547699999999999  0.02053  0.18971999999999997  1.0000
  O   O38       1.0  0.5451999999999998  0.97947  0.8102999999999998  1.0000
  O   O39       1.0  0.052689999999999966  0.01536  0.8149699999999999  1.0000
  O   O40       1.0  0.9473099999999998  0.9846199999999998  0.18502999999999997  1.0000
  O   O41       1.0  0.73922  0.70813  0.7685499999999997  1.0000
  O   O42       1.0  0.26054999999999995  0.29168  0.23128999999999994  1.0000
  O   O43       1.0  0.74407  0.7239899999999999  0.21333  1.0000
  O   O44       1.0  0.25592  0.27601  0.78667  1.0000
  O   O45       1.0  0.7511999999999998  0.22391  0.28287  1.0000
  O   O46       1.0  0.24881999999999996  0.7760999999999999  0.71714  1.0000
  O   O47       1.0  0.7645099999999999  0.20843999999999993  0.7335199999999997  1.0000
  O   O48       1.0  0.2355  0.79146  0.26661999999999997  1.0000
  O   O49       1.0  0.7133  0.8793199999999999  0.7781599999999997  1.0000
  O   O50       1.0  0.2867199999999999  0.12054999999999999  0.22186999999999996  1.0000
  O   O51       1.0  0.77048  0.8959  0.22135999999999997  1.0000
  O   O52       1.0  0.2295099999999999  0.10411  0.7786399999999998  1.0000
  O   O53       1.0  0.72424  0.3957  0.2734599999999999  1.0000
  O   O54       1.0  0.27574  0.60431  0.72654  1.0000
  O   O55       1.0  0.78727  0.37979  0.7217999999999998  1.0000
  O   O56       1.0  0.21305  0.6200299999999999  0.27824  1.0000
  O   O57       1.0  0.75494  0.58353  0.55965  1.0000
  O   O58       1.0  0.24502  0.4165  0.4403799999999999  1.0000
  O   O59       1.0  0.72488  0.65159  0.41003  1.0000
  O   O60       1.0  0.27510999999999985  0.34838999999999987  0.5899999999999997  1.0000
  O   O61       1.0  0.77403  0.15187  0.08908  1.0000
  O   O62       1.0  0.22597  0.84813  0.91092  1.0000
  O   O63       1.0  0.7451499999999998  0.0833  0.9400999999999998  1.0000
  O   O64       1.0  0.25485  0.9166899999999998  0.05991  1.0000
