data_image0
_chemical_formula_structural       Cu6H48C63N6O24
_chemical_formula_sum              "Cu6 H48 C63 N6 O24"
_cell_length_a       16.7807
_cell_length_b       16.78611
_cell_length_c       16.78607
_cell_angle_alpha    68.26346
_cell_angle_beta     68.26360999999999
_cell_angle_gamma    68.25826

_space_group_name_H-M_alt    "P 1"
_space_group_IT_number       1

loop_
  _space_group_symop_operation_xyz
  'x, y, z'

loop_
  _atom_site_type_symbol
  _atom_site_label
  _atom_site_symmetry_multiplicity
  _atom_site_fract_x
  _atom_site_fract_y
  _atom_site_fract_z
  _atom_site_occupancy
  Cu  Cu1       1.0  0.12838  0.13458999999999996  0.56842  1.0000
  Cu  Cu2       1.0  0.13937000000000002  0.14386000000000004  0.7057399999999998  1.0000
  Cu  Cu3       1.0  0.5683200000000002  0.12844000000000003  0.13451999999999995  1.0000
  Cu  Cu4       1.0  0.70571  0.13938  0.14386  1.0000
  Cu  Cu5       1.0  0.13442000000000004  0.568  0.12946  1.0000
  Cu  Cu6       1.0  0.14408000000000004  0.70556  0.13954999999999998  1.0000
  H   H1        1.0  0.4128700000000001  0.12524000000000005  0.6460199999999998  1.0000
  H   H2        1.0  0.64233  0.12487000000000002  0.4144899999999999  1.0000
  H   H3        1.0  0.3973800000000002  0.11159  0.40266  1.0000
  H   H4        1.0  0.8690600000000004  0.16526000000000005  0.8755799999999998  1.0000
  H   H5        1.0  0.8571  0.1557  0.62953  1.0000
  H   H6        1.0  0.6370600000000003  0.12195000000000004  0.8669999999999998  1.0000
  H   H7        1.0  0.5786299999999999  0.02254000000000006  0.7046799999999998  1.0000
  H   H8        1.0  0.48805000000000004  0.11989  0.71056  1.0000
  H   H9        1.0  0.58287  0.10025000000000008  0.7986399999999998  1.0000
  H   H10       1.0  0.5734500000000003  0.20321000000000006  0.7148099999999997  1.0000
  H   H11       1.0  0.7329200000000001  0.19519  0.56719  1.0000
  H   H12       1.0  0.8822300000000001  0.10665000000000005  0.5333999999999998  1.0000
  H   H13       1.0  0.8555200000000001  0.01748000000000006  0.6272199999999998  1.0000
  H   H14       1.0  0.83931  0.029800000000000007  0.5247  1.0000
  H   H15       1.0  0.70648  0.12666999999999998  0.48506  1.0000
  H   H16       1.0  0.70385  0.025250000000000005  0.57007  1.0000
  H   H17       1.0  0.6464200000000002  0.41284000000000004  0.12520999999999996  1.0000
  H   H18       1.0  0.4149  0.64235  0.12461  1.0000
  H   H19       1.0  0.4029500000000001  0.3975000000000001  0.11143999999999997  1.0000
  H   H20       1.0  0.87523  0.86888  0.1665  1.0000
  H   H21       1.0  0.6297500000000005  0.85727  0.15511  1.0000
  H   H22       1.0  0.8671900000000003  0.63691  0.12274999999999997  1.0000
  H   H23       1.0  0.70534  0.57856  0.022449999999999994  1.0000
  H   H24       1.0  0.7111100000000001  0.48802000000000023  0.1198  1.0000
  H   H25       1.0  0.7991100000000001  0.58286  0.10033  1.0000
  H   H26       1.0  0.71516  0.57344  0.20325  1.0000
  H   H27       1.0  0.5675700000000002  0.73276  0.19521999999999995  1.0000
  H   H28       1.0  0.5337399999999999  0.8820400000000003  0.10668999999999997  1.0000
  H   H29       1.0  0.6274199999999999  0.85532  0.017359999999999993  1.0000
  H   H30       1.0  0.52477  0.83912  0.03001  1.0000
  H   H31       1.0  0.48541000000000006  0.70626  0.12684  1.0000
  H   H32       1.0  0.57025  0.70387  0.025259999999999998  1.0000
  H   H33       1.0  0.12656  0.64556  0.4128999999999999  1.0000
  H   H34       1.0  0.12441000000000002  0.41448999999999997  0.64279  1.0000
  H   H35       1.0  0.11227000000000006  0.40243  0.39753  1.0000
  H   H36       1.0  0.16546000000000005  0.8752700000000001  0.8693699999999998  1.0000
  H   H37       1.0  0.15529999999999994  0.62942  0.85752  1.0000
  H   H38       1.0  0.1225000000000001  0.86676  0.6371999999999998  1.0000
  H   H39       1.0  0.022510000000000002  0.70469  0.57885  1.0000
  H   H40       1.0  0.11985000000000004  0.71057  0.4883099999999999  1.0000
  H   H41       1.0  0.10022000000000006  0.79866  0.5830999999999998  1.0000
  H   H42       1.0  0.20321999999999996  0.71481  0.57373  1.0000
  H   H43       1.0  0.1951700000000001  0.56718  0.7330899999999998  1.0000
  H   H44       1.0  0.10665  0.5333000000000001  0.8823099999999998  1.0000
  H   H45       1.0  0.017350000000000015  0.6270900000000001  0.8556999999999999  1.0000
  H   H46       1.0  0.029810000000000038  0.52457  0.83939  1.0000
  H   H47       1.0  0.12665000000000007  0.48506000000000005  0.7066799999999998  1.0000
  H   H48       1.0  0.025179999999999963  0.57007  0.704  1.0000
  C   C1        1.0  0.30208999999999997  0.11806000000000001  0.57258  1.0000
  C   C2        1.0  0.53701  0.12419999999999999  0.5394  1.0000
  C   C3        1.0  0.3976600000000001  0.11781000000000001  0.52913  1.0000
  C   C4        1.0  0.5243100000000003  0.11852  0.40103  1.0000
  C   C5        1.0  0.44711  0.12259000000000002  0.5778  1.0000
  C   C6        1.0  0.5741500000000003  0.12259000000000005  0.4495899999999999  1.0000
  C   C7        1.0  0.43575  0.11526000000000002  0.4402999999999999  1.0000
  C   C8        1.0  0.5668200000000002  0.11965999999999999  0.30536  1.0000
  C   C9        1.0  0.8711700000000002  0.15973000000000007  0.7477699999999998  1.0000
  C   C10       1.0  0.8330800000000002  0.15864000000000014  0.8373999999999999  1.0000
  C   C11       1.0  0.8245000000000001  0.15016000000000002  0.69938  1.0000
  C   C12       1.0  0.70418  0.14659  0.9729  1.0000
  C   C13       1.0  0.9658200000000001  0.16252000000000005  0.7039299999999998  1.0000
  C   C14       1.0  0.7024  0.13254  0.83049  1.0000
  C   C15       1.0  0.74128  0.13081000000000004  0.74043  1.0000
  C   C16       1.0  0.7472100000000003  0.14716000000000004  0.8773799999999998  1.0000
  C   C17       1.0  0.56028  0.0961  0.68466  1.0000
  C   C18       1.0  0.60228  0.13058000000000003  0.7266799999999999  1.0000
  C   C19       1.0  0.7367300000000004  0.12374000000000002  0.59742  1.0000
  C   C20       1.0  0.8342700000000001  0.06664  0.5692  1.0000
  C   C21       1.0  0.68367  0.09845  0.55702  1.0000
  C   C22       1.0  0.5727400000000001  0.3021  0.11807999999999998  1.0000
  C   C23       1.0  0.5398500000000002  0.537  0.12396  1.0000
  C   C24       1.0  0.5295300000000003  0.39773  0.11749999999999997  1.0000
  C   C25       1.0  0.40131999999999995  0.52427  0.11860999999999997  1.0000
  C   C26       1.0  0.57824  0.44712  0.12232  1.0000
  C   C27       1.0  0.4499699999999999  0.57414  0.12244999999999999  1.0000
  C   C28       1.0  0.44064000000000003  0.43582000000000004  0.11508999999999997  1.0000
  C   C29       1.0  0.30541000000000007  0.56638  0.12053999999999997  1.0000
  C   C30       1.0  0.7477000000000001  0.87113  0.16012999999999994  1.0000
  C   C31       1.0  0.83726  0.83298  0.15942999999999993  1.0000
  C   C32       1.0  0.6994700000000001  0.8244600000000001  0.1503  1.0000
  C   C33       1.0  0.9730500000000001  0.70431  0.14716  1.0000
  C   C34       1.0  0.704  0.96595  0.16225  1.0000
  C   C35       1.0  0.83069  0.70233  0.1331  1.0000
  C   C36       1.0  0.7406500000000004  0.74119  0.13113999999999995  1.0000
  C   C37       1.0  0.8774500000000001  0.7472  0.14785  1.0000
  C   C38       1.0  0.6851899999999999  0.5602300000000001  0.09600999999999997  1.0000
  C   C39       1.0  0.72711  0.60224  0.13062  1.0000
  C   C40       1.0  0.59777  0.73659  0.12375999999999997  1.0000
  C   C41       1.0  0.56944  0.8340900000000001  0.06667999999999998  1.0000
  C   C42       1.0  0.5573800000000001  0.68355  0.09845  1.0000
  C   C43       1.0  0.11797000000000002  0.57234  0.30252  1.0000
  C   C44       1.0  0.12455999999999992  0.5392400000000003  0.53723  1.0000
  C   C45       1.0  0.11854000000000006  0.52886  0.39781999999999995  1.0000
  C   C46       1.0  0.11894  0.40088  0.52449  1.0000
  C   C47       1.0  0.12349000000000002  0.57746  0.4471999999999999  1.0000
  C   C48       1.0  0.12265000000000005  0.44950000000000007  0.5744699999999998  1.0000
  C   C49       1.0  0.11594  0.4400500000000001  0.4358999999999999  1.0000
  C   C50       1.0  0.12011999999999999  0.30523  0.56677  1.0000
  C   C51       1.0  0.15968000000000007  0.74751  0.8715899999999998  1.0000
  C   C52       1.0  0.15874  0.83713  0.83341  1.0000
  C   C53       1.0  0.15001000000000003  0.6992100000000001  0.8248799999999997  1.0000
  C   C54       1.0  0.14653000000000013  0.9728599999999998  0.7045899999999998  1.0000
  C   C55       1.0  0.16235000000000005  0.70372  0.9663499999999998  1.0000
  C   C56       1.0  0.13284000000000015  0.83033  0.7026299999999998  1.0000
  C   C57       1.0  0.13089000000000017  0.7403300000000002  0.7415499999999998  1.0000
  C   C58       1.0  0.1473200000000001  0.8772200000000002  0.7475399999999998  1.0000
  C   C59       1.0  0.09610000000000005  0.6846500000000001  0.5605099999999997  1.0000
  C   C60       1.0  0.1305700000000001  0.72669  0.6025199999999997  1.0000
  C   C61       1.0  0.12369000000000008  0.59742  0.73692  1.0000
  C   C62       1.0  0.06660000000000005  0.56912  0.8344  1.0000
  C   C63       1.0  0.09841  0.55702  0.68386  1.0000
  N   N1        1.0  0.58684  0.13003999999999996  0.58772  1.0000
  N   N2        1.0  0.7001700000000001  0.10813000000000002  0.69531  1.0000
  N   N3        1.0  0.5882000000000001  0.58676  0.12983999999999998  1.0000
  N   N4        1.0  0.69571  0.70011  0.10818  1.0000
  N   N5        1.0  0.13008  0.5876900000000002  0.5870899999999998  1.0000
  N   N6        1.0  0.10811  0.6953100000000001  0.7003999999999998  1.0000
  O   O1        1.0  0.2687800000000001  0.12794000000000008  0.6516399999999998  1.0000
  O   O2        1.0  0.2602  0.10975  0.52725  1.0000
  O   O3        1.0  0.5181  0.11883000000000002  0.26237999999999995  1.0000
  O   O4        1.0  0.64816  0.12282  0.27317  1.0000
  O   O5        1.0  0.009430000000000072  0.1618800000000001  0.7528499999999998  1.0000
  O   O6        1.0  0.7498700000000001  0.15566  0.013989999999999997  1.0000
  O   O7        1.0  0.99752  0.16134  0.62196  1.0000
  O   O8        1.0  0.62528  0.13621  0.007029999999999999  1.0000
  O   O9        1.0  0.65192  0.2687800000000001  0.12766999999999998  1.0000
  O   O10       1.0  0.52702  0.26014  0.11048  1.0000
  O   O11       1.0  0.26192999999999994  0.51681  0.12227  1.0000
  O   O12       1.0  0.27352000000000004  0.64823  0.12197999999999999  1.0000
  O   O13       1.0  0.7526900000000001  0.009410000000000016  0.16231999999999994  1.0000
  O   O14       1.0  0.01397999999999999  0.74961  0.15709  1.0000
  O   O15       1.0  0.6224300000000004  0.99794  0.1596  1.0000
  O   O16       1.0  0.007419999999999877  0.6258700000000004  0.13569999999999993  1.0000
  O   O17       1.0  0.12861000000000003  0.65112  0.26876999999999995  1.0000
  O   O18       1.0  0.10808000000000004  0.52735  0.26135  1.0000
  O   O19       1.0  0.12005  0.26225  0.51766  1.0000
  O   O20       1.0  0.12253  0.27309999999999995  0.64831  1.0000
  O   O21       1.0  0.16100000000000012  0.75309  0.009919999999999997  1.0000
  O   O22       1.0  0.15569000000000013  0.01397000000000005  0.7501799999999997  1.0000
  O   O23       1.0  0.16183000000000003  0.62159  0.9982699999999999  1.0000
  O   O24       1.0  0.13571000000000003  0.007160000000000063  0.6258799999999998  1.0000
