data_image0
_chemical_formula_structural       Ce2H38C68O16
_chemical_formula_sum              "Ce2 H38 C68 O16"
_cell_length_a       9.78745
_cell_length_b       12.43183
_cell_length_c       15.93041
_cell_angle_alpha    88.44971
_cell_angle_beta     74.41073
_cell_angle_gamma    70.22215

_space_group_name_H-M_alt    "P 1"
_space_group_IT_number       1

loop_
  _space_group_symop_operation_xyz
  'x, y, z'

loop_
  _atom_site_type_symbol
  _atom_site_label
  _atom_site_symmetry_multiplicity
  _atom_site_fract_x
  _atom_site_fract_y
  _atom_site_fract_z
  _atom_site_occupancy
  Ce  Ce1       1.0  0.29153  0.97676  0.01767  1.0000
  Ce  Ce2       1.0  0.7036199999999999  0.030440000000000023  0.9816100000000002  1.0000
  H   H1        1.0  0.98964  0.8070400000000001  0.05021000000000001  1.0000
  H   H2        1.0  0.3426199999999999  0.28538  0.51509  1.0000
  H   H3        1.0  0.16863000000000003  0.70677  0.51644  1.0000
  H   H4        1.0  0.08556999999999998  0.49918000000000007  0.3262  1.0000
  H   H5        1.0  0.029979999999999986  0.60358  0.19806000000000007  1.0000
  H   H6        1.0  0.21006000000000008  0.85439  0.25711  1.0000
  H   H7        1.0  0.27096999999999993  0.74889  0.38452  1.0000
  H   H8        1.0  0.47144  0.39013000000000003  0.27674  1.0000
  H   H9        1.0  0.50735  0.24872000000000002  0.15864000000000003  1.0000
  H   H10       1.0  0.14885999999999996  0.14820000000000003  0.3178400000000001  1.0000
  H   H11       1.0  0.11926000000000003  0.28294  0.44088  1.0000
  H   H12       1.0  0.22030000000000002  0.25091  0.64693  1.0000
  H   H13       1.0  0.27365999999999985  0.14059000000000002  0.7731700000000002  1.0000
  H   H14       1.0  0.49583999999999995  0.36283000000000004  0.8289700000000002  1.0000
  H   H15       1.0  0.4355  0.47919000000000006  0.70607  1.0000
  H   H16       1.0  0.049439999999999956  0.56239  0.7530900000000003  1.0000
  H   H17       1.0  0.9824799999999998  0.69472  0.88337  1.0000
  H   H18       1.0  0.2741699999999999  0.8682  0.74024  1.0000
  H   H19       1.0  0.33100999999999986  0.74375  0.6065100000000002  1.0000
  H   H20       1.0  0.010039999999999912  0.19354000000000002  0.9486600000000002  1.0000
  H   H21       1.0  0.65733  0.71472  0.48493000000000014  1.0000
  H   H22       1.0  0.8313399999999999  0.29326  0.4835700000000001  1.0000
  H   H23       1.0  0.9144200000000001  0.50082  0.6738  1.0000
  H   H24       1.0  0.9701399999999998  0.39641  0.8019700000000002  1.0000
  H   H25       1.0  0.7899899999999997  0.14563  0.7429200000000001  1.0000
  H   H26       1.0  0.7290200000000001  0.2511  0.61556  1.0000
  H   H27       1.0  0.52861  0.61014  0.72341  1.0000
  H   H28       1.0  0.49233999999999994  0.75135  0.8416800000000002  1.0000
  H   H29       1.0  0.85142  0.85201  0.6822  1.0000
  H   H30       1.0  0.8805900000000001  0.7171900000000001  0.55934  1.0000
  H   H31       1.0  0.7797599999999999  0.74911  0.3531800000000001  1.0000
  H   H32       1.0  0.72586  0.85916  0.22688000000000005  1.0000
  H   H33       1.0  0.5042199999999999  0.63703  0.17111  1.0000
  H   H34       1.0  0.5645600000000001  0.5203  0.29415  1.0000
  H   H35       1.0  0.9505399999999999  0.43742000000000003  0.24695  1.0000
  H   H36       1.0  0.017539999999999997  0.30527  0.11659  1.0000
  H   H37       1.0  0.7257199999999998  0.13191  0.25979  1.0000
  H   H38       1.0  0.66911  0.25628  0.39353  1.0000
  C   C1        1.0  0.22502999999999987  0.55013  0.43921  1.0000
  C   C2        1.0  0.2699899999999999  0.42868  0.44067  1.0000
  C   C3        1.0  0.30128999999999995  0.37867000000000006  0.51645  1.0000
  C   C4        1.0  0.28417  0.44159  0.59303  1.0000
  C   C5        1.0  0.23467999999999997  0.56336  0.59247  1.0000
  C   C6        1.0  0.21031000000000002  0.61336  0.51523  1.0000
  C   C7        1.0  0.18653999999999993  0.61408  0.36387000000000014  1.0000
  C   C8        1.0  0.11548999999999998  0.57552  0.31091000000000013  1.0000
  C   C9        1.0  0.08325999999999999  0.63423  0.23921000000000006  1.0000
  C   C10       1.0  0.1179399999999999  0.73452  0.21916000000000005  1.0000
  C   C11       1.0  0.1833599999999999  0.7766400000000001  0.27325  1.0000
  C   C12       1.0  0.21587000000000006  0.71726  0.34486  1.0000
  C   C13       1.0  0.08753000000000002  0.79658  0.14186  1.0000
  C   C14       1.0  0.29077  0.34829000000000004  0.36662  1.0000
  C   C15       1.0  0.4002899999999999  0.33748  0.28643  1.0000
  C   C16       1.0  0.42004  0.25883  0.21973000000000006  1.0000
  C   C17       1.0  0.32819  0.19120000000000004  0.23057000000000005  1.0000
  C   C18       1.0  0.21966999999999995  0.20076000000000002  0.31087  1.0000
  C   C19       1.0  0.2039  0.27607  0.37884  1.0000
  C   C20       1.0  0.3402  0.1132  0.15719  1.0000
  C   C21       1.0  0.32063000000000014  0.37549  0.66813  1.0000
  C   C22       1.0  0.28031000000000006  0.27674999999999994  0.68656  1.0000
  C   C23       1.0  0.3096300000000001  0.21419  0.7573  1.0000
  C   C24       1.0  0.38647999999999993  0.24514  0.80977  1.0000
  C   C25       1.0  0.43297999999999986  0.34028  0.7897400000000001  1.0000
  C   C26       1.0  0.3984499999999999  0.40579  0.7209300000000002  1.0000
  C   C27       1.0  0.41719999999999985  0.175  0.8850800000000002  1.0000
  C   C28       1.0  0.19821000000000005  0.64131  0.6709  1.0000
  C   C29       1.0  0.09885999999999988  0.62932  0.7498900000000002  1.0000
  C   C30       1.0  0.06034  0.70376  0.82278  1.0000
  C   C31       1.0  0.12668000000000004  0.78817  0.82054  1.0000
  C   C32       1.0  0.22320999999999996  0.8025200000000001  0.7417700000000003  1.0000
  C   C33       1.0  0.25562999999999997  0.7316600000000001  0.66726  1.0000
  C   C34       1.0  0.09843999999999999  0.8573700000000001  0.90271  1.0000
  C   C35       1.0  0.7750399999999996  0.44987  0.5608100000000003  1.0000
  C   C36       1.0  0.72988  0.57138  0.55939  1.0000
  C   C37       1.0  0.6987299999999999  0.6214  0.48358  1.0000
  C   C38       1.0  0.7159000000000001  0.55846  0.407  1.0000
  C   C39       1.0  0.7652399999999999  0.4367  0.4075800000000001  1.0000
  C   C40       1.0  0.78971  0.38666000000000006  0.48478  1.0000
  C   C41       1.0  0.8134499999999999  0.3859000000000001  0.63615  1.0000
  C   C42       1.0  0.8845399999999998  0.42449000000000014  0.6890900000000002  1.0000
  C   C43       1.0  0.9168  0.36588000000000004  0.76077  1.0000
  C   C44       1.0  0.8820699999999999  0.26564  0.78091  1.0000
  C   C45       1.0  0.8166600000000002  0.2234  0.72684  1.0000
  C   C46       1.0  0.78423  0.2826600000000001  0.6551900000000003  1.0000
  C   C47       1.0  0.9129400000000001  0.20393000000000003  0.8577800000000002  1.0000
  C   C48       1.0  0.7091799999999998  0.6518000000000002  0.6334600000000002  1.0000
  C   C49       1.0  0.5997300000000001  0.6626600000000001  0.71366  1.0000
  C   C50       1.0  0.5795700000000001  0.74126  0.78043  1.0000
  C   C51       1.0  0.6718600000000001  0.80833  0.76936  1.0000
  C   C52       1.0  0.78036  0.79949  0.68908  1.0000
  C   C53       1.0  0.79606  0.72405  0.62131  1.0000
  C   C54       1.0  0.65991  0.8863100000000002  0.84255  1.0000
  C   C55       1.0  0.6793500000000001  0.6244  0.3319800000000001  1.0000
  C   C56       1.0  0.71989  0.72306  0.3135  1.0000
  C   C57       1.0  0.6898100000000001  0.78565  0.24295  1.0000
  C   C58       1.0  0.6121099999999999  0.7545400000000001  0.19099  1.0000
  C   C59       1.0  0.5666800000000001  0.65923  0.21073  1.0000
  C   C60       1.0  0.6016099999999999  0.5936900000000002  0.27936  1.0000
  C   C61       1.0  0.58145  0.8239800000000002  0.11522000000000003  1.0000
  C   C62       1.0  0.80189  0.35866  0.32915  1.0000
  C   C63       1.0  0.9011  0.37057000000000007  0.25007  1.0000
  C   C64       1.0  0.93949  0.29625  0.17713  1.0000
  C   C65       1.0  0.8732900000000001  0.21187  0.17933000000000004  1.0000
  C   C66       1.0  0.77652  0.19766000000000006  0.25819  1.0000
  C   C67       1.0  0.74438  0.26839  0.33274  1.0000
  C   C68       1.0  0.9020199999999999  0.14239  0.09735000000000003  1.0000
  O   O1        1.0  0.12973999999999997  0.87931  0.11788  1.0000
  O   O2        1.0  0.01232000000000003  0.75688  0.09956  1.0000
  O   O3        1.0  0.24122999999999994  0.06588  0.16504  1.0000
  O   O4        1.0  0.44603  0.0977  0.08508000000000003  1.0000
  O   O5        1.0  0.5341199999999999  0.17025000000000004  0.9082600000000002  1.0000
  O   O6        1.0  0.32587  0.12282  0.92047  1.0000
  O   O7        1.0  0.20502999999999985  0.8881000000000001  0.9128300000000003  1.0000
  O   O8        1.0  0.9707999999999997  0.87818  0.9608700000000002  1.0000
  O   O9        1.0  0.87117  0.12102000000000002  0.88215  1.0000
  O   O10       1.0  0.98777  0.24388  0.9000300000000002  1.0000
  O   O11       1.0  0.7606899999999998  0.93231  0.8325  1.0000
  O   O12       1.0  0.5540400000000001  0.90275  0.9147900000000002  1.0000
  O   O13       1.0  0.4643199999999999  0.82974  0.09177000000000003  1.0000
  O   O14       1.0  0.6760300000000001  0.87425  0.08092  1.0000
  O   O15       1.0  0.7948000000000001  0.11267000000000002  0.08720000000000003  1.0000
  O   O16       1.0  0.03115  0.11821  0.039840000000000014  1.0000
