data_image0
_chemical_formula_structural       Ho4H24C60N4O36
_chemical_formula_sum              "Ho4 H24 C60 N4 O36"
_cell_length_a       14.35088
_cell_length_b       14.38242
_cell_length_c       15.203209999999999
_cell_angle_alpha    97.38455
_cell_angle_beta     116.82673000000001
_cell_angle_gamma    112.8799

_space_group_name_H-M_alt    "P 1"
_space_group_IT_number       1

loop_
  _space_group_symop_operation_xyz
  'x, y, z'

loop_
  _atom_site_type_symbol
  _atom_site_label
  _atom_site_symmetry_multiplicity
  _atom_site_fract_x
  _atom_site_fract_y
  _atom_site_fract_z
  _atom_site_occupancy
  Ho  Ho1       1.0  0.51399  0.49312  0.62466  1.0000
  Ho  Ho2       1.0  0.3678399999999998  0.88672  0.87548  1.0000
  Ho  Ho3       1.0  0.48601  0.50689  0.37533  1.0000
  Ho  Ho4       1.0  0.63216  0.11329  0.12451  1.0000
  H   H1        1.0  0.20219999999999988  0.13591999999999999  0.45631999999999995  1.0000
  H   H2        1.0  0.09480000000000009  0.9891400000000002  0.08895  1.0000
  H   H3        1.0  0.23740999999999993  0.18823  0.19756999999999997  1.0000
  H   H4        1.0  0.8804699999999999  0.9684600000000002  0.16089  1.0000
  H   H5        1.0  0.5266999999999998  0.74441  0.87912  1.0000
  H   H6        1.0  0.81544  0.67157  0.9724600000000001  1.0000
  H   H7        1.0  0.18052999999999994  0.74641  0.04532  1.0000
  H   H8        1.0  0.4016399999999999  0.0064699999999999645  0.41305  1.0000
  H   H9        1.0  0.49176999999999993  0.04214  0.30429  1.0000
  H   H10       1.0  0.30744  0.71922  0.34047  1.0000
  H   H11       1.0  0.36378  0.6476000000000002  0.62108  1.0000
  H   H12       1.0  0.19915000000000008  0.8433100000000002  0.52868  1.0000
  H   H13       1.0  0.7978  0.8640800000000003  0.54368  1.0000
  H   H14       1.0  0.90521  0.010870000000000013  0.91105  1.0000
  H   H15       1.0  0.76259  0.8117700000000001  0.80243  1.0000
  H   H16       1.0  0.1195400000000001  0.0315400000000001  0.8391000000000001  1.0000
  H   H17       1.0  0.4733  0.25559  0.12088000000000002  1.0000
  H   H18       1.0  0.18456  0.32843  0.027530000000000002  1.0000
  H   H19       1.0  0.81948  0.25359  0.95468  1.0000
  H   H20       1.0  0.59836  0.9935300000000001  0.58694  1.0000
  H   H21       1.0  0.50823  0.95786  0.6957  1.0000
  H   H22       1.0  0.6925599999999997  0.28079000000000004  0.65953  1.0000
  H   H23       1.0  0.6362200000000002  0.3524000000000001  0.37892  1.0000
  H   H24       1.0  0.80085  0.15669  0.47132  1.0000
  C   C1        1.0  0.22624999999999998  0.17513  0.33281  1.0000
  C   C2        1.0  0.17810999999999996  0.10502000000000003  0.37556000000000006  1.0000
  C   C3        1.0  0.09522999999999997  0.99529  0.3131  1.0000
  C   C4        1.0  0.062200000000000005  0.95417  0.20806  1.0000
  C   C5        1.0  0.11772000000000002  0.023560000000000005  0.16867  1.0000
  C   C6        1.0  0.1976  0.13352  0.22957  1.0000
  C   C7        1.0  0.8608399999999998  0.82239  0.07489  1.0000
  C   C8        1.0  0.8206299999999999  0.8918400000000002  0.09366  1.0000
  C   C9        1.0  0.6995  0.8626100000000002  0.02504  1.0000
  C   C10       1.0  0.6197900000000001  0.7663600000000002  0.93509  1.0000
  C   C11       1.0  0.66319  0.69863  0.91678  1.0000
  C   C12       1.0  0.7829199999999997  0.7250300000000002  0.98722  1.0000
  C   C13       1.0  0.30814999999999987  0.29412  0.39531  1.0000
  C   C14       1.0  0.663  0.9391200000000001  0.05306  1.0000
  C   C15       1.0  0.58555  0.6008700000000002  0.81733  1.0000
  C   C16       1.0  0.34363  0.89477  0.16883  1.0000
  C   C17       1.0  0.23063  0.80347  0.12612  1.0000
  C   C18       1.0  0.18322999999999992  0.78265  0.18846000000000002  1.0000
  C   C19       1.0  0.2471499999999999  0.8547  0.29354  1.0000
  C   C20       1.0  0.35608  0.94988  0.33312  1.0000
  C   C21       1.0  0.40535000000000004  0.96959  0.27223  1.0000
  C   C22       1.0  0.24781  0.78625  0.42625  1.0000
  C   C23       1.0  0.29800999999999994  0.72694  0.40751  1.0000
  C   C24       1.0  0.33670999999999984  0.67393  0.47547999999999996  1.0000
  C   C25       1.0  0.33034999999999987  0.68472  0.56513  1.0000
  C   C26       1.0  0.28112  0.74636  0.58347  1.0000
  C   C27       1.0  0.23763000000000015  0.7961600000000002  0.51358  1.0000
  C   C28       1.0  0.40035  0.91449  0.10633  1.0000
  C   C29       1.0  0.38354999999999984  0.60814  0.4465  1.0000
  C   C30       1.0  0.28192  0.76736  0.68229  1.0000
  C   C31       1.0  0.7737499999999998  0.82487  0.66718  1.0000
  C   C32       1.0  0.8218899999999998  0.89498  0.62444  1.0000
  C   C33       1.0  0.9047699999999999  0.004710000000000015  0.6869  1.0000
  C   C34       1.0  0.9378099999999998  0.04582999999999998  0.79194  1.0000
  C   C35       1.0  0.8822799999999997  0.97644  0.8313199999999998  1.0000
  C   C36       1.0  0.8023999999999998  0.8664800000000003  0.77042  1.0000
  C   C37       1.0  0.13917000000000004  0.17761000000000007  0.9251000000000001  1.0000
  C   C38       1.0  0.17937999999999998  0.10816000000000002  0.90634  1.0000
  C   C39       1.0  0.30049999999999993  0.13739  0.97495  1.0000
  C   C40       1.0  0.38021  0.23364  0.06491  1.0000
  C   C41       1.0  0.33681  0.30137  0.08322  1.0000
  C   C42       1.0  0.21708  0.27497  0.01278  1.0000
  C   C43       1.0  0.6918499999999997  0.70589  0.60468  1.0000
  C   C44       1.0  0.33701000000000003  0.06089000000000004  0.9469400000000001  1.0000
  C   C45       1.0  0.4144499999999999  0.3991300000000001  0.18267  1.0000
  C   C46       1.0  0.6563799999999997  0.10523000000000009  0.83116  1.0000
  C   C47       1.0  0.76938  0.19653  0.87388  1.0000
  C   C48       1.0  0.81677  0.21735000000000004  0.81154  1.0000
  C   C49       1.0  0.7528499999999998  0.14530000000000007  0.70646  1.0000
  C   C50       1.0  0.64393  0.050120000000000026  0.66687  1.0000
  C   C51       1.0  0.59465  0.030410000000000024  0.72776  1.0000
  C   C52       1.0  0.75219  0.21376  0.57375  1.0000
  C   C53       1.0  0.70199  0.27307  0.59249  1.0000
  C   C54       1.0  0.6632900000000003  0.32607  0.52451  1.0000
  C   C55       1.0  0.6696499999999995  0.31528  0.43487  1.0000
  C   C56       1.0  0.71888  0.25364  0.41653  1.0000
  C   C57       1.0  0.76237  0.20384  0.48641  1.0000
  C   C58       1.0  0.59965  0.08551000000000002  0.89367  1.0000
  C   C59       1.0  0.6164599999999999  0.39186  0.55349  1.0000
  C   C60       1.0  0.71809  0.23264000000000004  0.31771  1.0000
  N   N1        1.0  0.04227000000000006  0.92628  0.36046000000000006  1.0000
  N   N2        1.0  0.06628  0.68242  0.14064  1.0000
  N   N3        1.0  0.95773  0.07372000000000002  0.63954  1.0000
  N   N4        1.0  0.9337299999999998  0.31758  0.85936  1.0000
  O   O1        1.0  0.33125999999999994  0.35337  0.3438800000000001  1.0000
  O   O2        1.0  0.351  0.3297100000000001  0.49439  1.0000
  O   O3        1.0  0.10605000000000002  0.95317  0.4581200000000001  1.0000
  O   O4        1.0  0.9380999999999997  0.84786  0.30033  1.0000
  O   O5        1.0  0.74165  0.026989999999999993  0.13371  1.0000
  O   O6        1.0  0.55209  0.91707  0.99631  1.0000
  O   O7        1.0  0.48803999999999986  0.58875  0.7386  1.0000
  O   O8        1.0  0.6213499999999997  0.5338300000000001  0.8059400000000001  1.0000
  O   O9        1.0  0.97964  0.84657  0.14209  1.0000
  O   O10       1.0  0.51072  0.99045  0.15707  1.0000
  O   O11       1.0  0.3366799999999999  0.8563400000000001  0.00754  1.0000
  O   O12       1.0  0.99474  0.6488600000000001  0.043149999999999994  1.0000
  O   O13       1.0  0.04819000000000004  0.63804  0.20048  1.0000
  O   O14       1.0  0.3872299999999999  0.60361  0.36413  1.0000
  O   O15       1.0  0.4207299999999999  0.55595  0.50416  1.0000
  O   O16       1.0  0.34843  0.74819  0.76062  1.0000
  O   O17       1.0  0.22585000000000002  0.8139600000000001  0.69397  1.0000
  O   O18       1.0  0.20496999999999993  0.83768  0.35916  1.0000
  O   O19       1.0  0.6687399999999998  0.64663  0.65612  1.0000
  O   O20       1.0  0.6490099999999999  0.6702900000000002  0.50561  1.0000
  O   O21       1.0  0.89395  0.046830000000000024  0.54187  1.0000
  O   O22       1.0  0.06190000000000004  0.15214  0.69966  1.0000
  O   O23       1.0  0.25834999999999997  0.97301  0.86628  1.0000
  O   O24       1.0  0.4479199999999999  0.08293000000000003  0.00368  1.0000
  O   O25       1.0  0.5119599999999997  0.41125  0.2614  1.0000
  O   O26       1.0  0.37865  0.46617  0.19405  1.0000
  O   O27       1.0  0.020369999999999874  0.15343999999999997  0.8579099999999998  1.0000
  O   O28       1.0  0.4892799999999999  0.00955000000000003  0.84292  1.0000
  O   O29       1.0  0.6633299999999999  0.14366  0.99245  1.0000
  O   O30       1.0  0.005270000000000031  0.3511400000000001  0.95684  1.0000
  O   O31       1.0  0.9518199999999999  0.3619600000000001  0.79952  1.0000
  O   O32       1.0  0.61278  0.39639  0.63586  1.0000
  O   O33       1.0  0.57928  0.44405  0.49583000000000005  1.0000
  O   O34       1.0  0.65157  0.25181  0.23938000000000004  1.0000
  O   O35       1.0  0.77415  0.18604  0.30603  1.0000
  O   O36       1.0  0.7950299999999998  0.16233  0.64084  1.0000
