data_image0
_chemical_formula_structural       Gd4Cu2H16C48N16O32
_chemical_formula_sum              "Gd4 Cu2 H16 C48 N16 O32"
_cell_length_a       5.96382
_cell_length_b       12.89527
_cell_length_c       23.18274
_cell_angle_alpha    90.17509
_cell_angle_beta     89.74686
_cell_angle_gamma    95.61217

_symmetry_space_group_name_H-M    'P 1'
_symmetry_Int_Tables_number       1

loop_
  _symmetry_equiv_pos_as_xyz
  'x,y,z'

loop_
  _atom_site_type_symbol
  _atom_site_label
  _atom_site_symmetry_multiplicity
  _atom_site_fract_x
  _atom_site_fract_y
  _atom_site_fract_z
  _atom_site_occupancy
  Gd  Gd1       1.0  0.017549999999999993  0.11789  0.31593  1.0000
  Gd  Gd2       1.0  0.48185  0.3829600000000001  0.8182399999999999  1.0000
  Gd  Gd3       1.0  0.51813  0.61702  0.18178  1.0000
  Gd  Gd4       1.0  0.98244  0.88212  0.68409  1.0000
  Cu  Cu1       1.0  0.99953  0.99975  0.00017  1.0000
  Cu  Cu2       1.0  0.50004  0.50002  0.50002  1.0000
  H   H1        1.0  0.30668  0.34869  0.60312  1.0000
  H   H2        1.0  0.51961  0.8765  0.82213  1.0000
  H   H3        1.0  0.013069999999999997  0.37771  0.67839  1.0000
  H   H4        1.0  0.48103  0.12353  0.17793999999999996  1.0000
  H   H5        1.0  0.18845  0.15135  0.10291999999999998  1.0000
  H   H6        1.0  0.98684  0.62231  0.32162  1.0000
  H   H7        1.0  0.46416  0.7347100000000002  0.65822  1.0000
  H   H8        1.0  0.69336  0.65136  0.39691  1.0000
  H   H9        1.0  0.88318  0.92833  0.19711  1.0000
  H   H10       1.0  0.81164  0.8486500000000002  0.89731  1.0000
  H   H11       1.0  0.53582  0.26528  0.34178  1.0000
  H   H12       1.0  0.03722  0.76545  0.15736  1.0000
  H   H13       1.0  0.6184300000000001  0.57183  0.6968799999999999  1.0000
  H   H14       1.0  0.38156  0.42817  0.30312  1.0000
  H   H15       1.0  0.11682000000000001  0.07167  0.8028999999999998  1.0000
  H   H16       1.0  0.9627799999999999  0.23454000000000003  0.84265  1.0000
  C   C1        1.0  0.67072  0.82665  0.09503  1.0000
  C   C2        1.0  0.4496200000000001  0.06797  0.14278  1.0000
  C   C3        1.0  0.55063  0.9320300000000001  0.85732  1.0000
  C   C4        1.0  0.63369  0.06771  0.9446  1.0000
  C   C5        1.0  0.2855  0.08420000000000001  0.10184  1.0000
  C   C6        1.0  0.96988  0.58358  0.5981  1.0000
  C   C7        1.0  0.98177  0.50991  0.19238999999999998  1.0000
  C   C8        1.0  0.82901  0.67496  0.59557  1.0000
  C   C9        1.0  0.59121  0.17426000000000005  0.73984  1.0000
  C   C10       1.0  0.47180000000000005  0.08245  0.9027099999999998  1.0000
  C   C11       1.0  0.32924  0.17337000000000005  0.90501  1.0000
  C   C12       1.0  0.7894200000000001  0.58386  0.3978499999999999  1.0000
  C   C13       1.0  0.8836599999999999  0.1924  0.8061  1.0000
  C   C14       1.0  0.7143599999999999  0.9157200000000002  0.8983599999999999  1.0000
  C   C15       1.0  0.1013  0.27757  0.20963  1.0000
  C   C16       1.0  0.65823  0.07666  0.7244799999999999  1.0000
  C   C17       1.0  0.89869  0.7224400000000001  0.79038  1.0000
  C   C18       1.0  0.13323  0.56831  0.55631  1.0000
  C   C19       1.0  0.53453  0.39957000000000004  0.28549  1.0000
  C   C20       1.0  0.18205000000000002  0.64027  0.50549  1.0000
  C   C21       1.0  0.15784  0.57517  0.7754999999999999  1.0000
  C   C22       1.0  0.46545  0.60043  0.71451  1.0000
  C   C23       1.0  0.59632  0.77339  0.2899  1.0000
  C   C24       1.0  0.030100000000000026  0.4164400000000001  0.4019  1.0000
  C   C25       1.0  0.018200000000000008  0.49008000000000007  0.8076  1.0000
  C   C26       1.0  0.3835799999999999  0.6917800000000002  0.69433  1.0000
  C   C27       1.0  0.6796699999999999  0.13983  0.99569  1.0000
  C   C28       1.0  0.51798  0.9917200000000002  0.69244  1.0000
  C   C29       1.0  0.34177  0.9233400000000003  0.27552  1.0000
  C   C30       1.0  0.17097999999999997  0.32505  0.4044400000000001  1.0000
  C   C31       1.0  0.61639  0.30822  0.30567  1.0000
  C   C32       1.0  0.32034  0.86018  0.0044  1.0000
  C   C33       1.0  0.04607000000000001  0.43316000000000004  0.64332  1.0000
  C   C34       1.0  0.03516000000000003  0.8991300000000002  0.21449  1.0000
  C   C35       1.0  0.96484  0.10087  0.78551  1.0000
  C   C36       1.0  0.3661200000000001  0.9322400000000001  0.05555  1.0000
  C   C37       1.0  0.21059  0.41617  0.60217  1.0000
  C   C38       1.0  0.08936999999999999  0.67225  0.76041  1.0000
  C   C39       1.0  0.11634000000000003  0.8075900000000003  0.19391  1.0000
  C   C40       1.0  0.9105899999999999  0.32775  0.23957999999999996  1.0000
  C   C41       1.0  0.8667800000000001  0.43171000000000004  0.4437  1.0000
  C   C42       1.0  0.95389  0.56687  0.35669  1.0000
  C   C43       1.0  0.81797  0.35974000000000006  0.49451999999999996  1.0000
  C   C44       1.0  0.52823  0.91756  0.09739  1.0000
  C   C45       1.0  0.48202  0.00828  0.30756  1.0000
  C   C46       1.0  0.4036800000000001  0.22660000000000002  0.7100999999999998  1.0000
  C   C47       1.0  0.40878999999999993  0.82574  0.26017  1.0000
  C   C48       1.0  0.84212  0.42483  0.2245  1.0000
  N   N1        1.0  0.20449  0.7297  0.71939  1.0000
  N   N2        1.0  0.8526000000000001  0.0445  0.74414  1.0000
  N   N3        1.0  0.64598  0.45607  0.24395  1.0000
  N   N4        1.0  0.7560700000000001  0.9857500000000002  0.94087  1.0000
  N   N5        1.0  0.5673199999999999  0.9842  0.14203  1.0000
  N   N6        1.0  0.29463  0.7693600000000002  0.21863  1.0000
  N   N7        1.0  0.70536  0.23064000000000004  0.78138  1.0000
  N   N8        1.0  0.9291499999999999  0.51721  0.64266  1.0000
  N   N9        1.0  0.7453499999999998  0.51388  0.44016  1.0000
  N   N10       1.0  0.07081  0.48281  0.35734  1.0000
  N   N11       1.0  0.354  0.54393  0.75605  1.0000
  N   N12       1.0  0.43292  0.0158  0.85806  1.0000
  N   N13       1.0  0.24345999999999998  0.01411  0.059359999999999996  1.0000
  N   N14       1.0  0.79548  0.2703  0.28061  1.0000
  N   N15       1.0  0.14739000000000002  0.9555  0.25587  1.0000
  N   N16       1.0  0.25467  0.48615  0.55986  1.0000
  O   O1        1.0  0.62357  0.92543  0.66605  1.0000
  O   O2        1.0  0.43159  0.78435  0.99956  1.0000
  O   O3        1.0  0.9212500000000001  0.7604900000000001  0.61996  1.0000
  O   O4        1.0  0.66874  0.8043000000000002  0.33705  1.0000
  O   O5        1.0  0.81928  0.6876700000000001  0.83618  1.0000
  O   O6        1.0  0.66081  0.38628  0.52908  1.0000
  O   O7        1.0  0.87535  0.57164  0.16306  1.0000
  O   O8        1.0  0.84094  0.80467  0.76314  1.0000
  O   O9        1.0  0.63492  0.6617700000000001  0.57726  1.0000
  O   O10       1.0  0.93228  0.28535  0.50017  1.0000
  O   O11       1.0  0.69314  0.01593  0.3001  1.0000
  O   O12       1.0  0.33127  0.1957  0.66295  1.0000
  O   O13       1.0  0.37642000000000003  0.07457  0.33395  1.0000
  O   O14       1.0  0.86579  0.84026  0.07694  1.0000
  O   O15       1.0  0.13413  0.15978  0.92305  1.0000
  O   O16       1.0  0.57892  0.74113  0.11927999999999998  1.0000
  O   O17       1.0  0.30686  0.98408  0.6998999999999999  1.0000
  O   O18       1.0  0.36508  0.33825000000000005  0.42274  1.0000
  O   O19       1.0  0.15906  0.19534000000000004  0.23687  1.0000
  O   O20       1.0  0.3392  0.61372  0.47093  1.0000
  O   O21       1.0  0.42115  0.2589  0.88077  1.0000
  O   O22       1.0  0.12464000000000003  0.42837000000000003  0.83694  1.0000
  O   O23       1.0  0.65929  0.69367  0.26071  1.0000
  O   O24       1.0  0.56861  0.21573  0.00047  1.0000
  O   O25       1.0  0.18072  0.31233  0.16383  1.0000
  O   O26       1.0  0.8096  0.47695  0.7973099999999999  1.0000
  O   O27       1.0  0.07872  0.23951000000000003  0.38006  1.0000
  O   O28       1.0  0.16984999999999997  0.8887  0.96876  1.0000
  O   O29       1.0  0.83024  0.11131000000000002  0.03131  1.0000
  O   O30       1.0  0.06773  0.7146700000000001  0.49983  1.0000
  O   O31       1.0  0.3407  0.30632  0.7392999999999998  1.0000
  O   O32       1.0  0.19037  0.52304  0.20268999999999998  1.0000
