data_image0
_chemical_formula_structural       Cd6H52C36N16
_chemical_formula_sum              "Cd6 H52 C36 N16"
_cell_length_a       9.30431
_cell_length_b       10.54245
_cell_length_c       17.33114
_cell_angle_alpha    90.0
_cell_angle_beta     90.0
_cell_angle_gamma    105.78858

_space_group_name_H-M_alt    "P 1"
_space_group_IT_number       1

loop_
  _space_group_symop_operation_xyz
  'x, y, z'

loop_
  _atom_site_type_symbol
  _atom_site_label
  _atom_site_symmetry_multiplicity
  _atom_site_fract_x
  _atom_site_fract_y
  _atom_site_fract_z
  _atom_site_occupancy
  Cd  Cd1       1.0  0.0  0.0  0.0  1.0000
  Cd  Cd2       1.0  0.0  0.0  0.5  1.0000
  Cd  Cd3       1.0  0.8231000000000002  0.6385000000000001  0.7499999999999998  1.0000
  Cd  Cd4       1.0  0.22933000000000003  0.32838  0.7499999999999998  1.0000
  Cd  Cd5       1.0  0.17689  0.3615  0.25  1.0000
  Cd  Cd6       1.0  0.7706600000000002  0.67162  0.25  1.0000
  H   H1        1.0  0.75739  0.05803  0.9185099999999998  1.0000
  H   H2        1.0  0.70743  0.9887800000000001  0.00239  1.0000
  H   H3        1.0  0.8198200000000001  0.21145000000000003  0.06178  1.0000
  H   H4        1.0  0.7774  0.2851000000000001  0.89437  1.0000
  H   H5        1.0  0.9501200000000001  0.31275  0.9433200000000002  1.0000
  H   H6        1.0  0.8741600000000002  0.46229000000000003  0.03615  1.0000
  H   H7        1.0  0.85865  0.5170500000000001  0.9412499999999999  1.0000
  H   H8        1.0  0.58427  0.41557  0.9429900000000001  1.0000
  H   H9        1.0  0.6373100000000002  0.52209  0.02265  1.0000
  H   H10       1.0  0.45631  0.30561  0.06132  1.0000
  H   H11       1.0  0.6293  0.33327  0.10931  1.0000
  H   H12       1.0  0.54821  0.10209  0.061029999999999994  1.0000
  H   H13       1.0  0.53332  0.15915  0.96597  1.0000
  H   H14       1.0  0.2426100000000001  0.9419700000000002  0.41851  1.0000
  H   H15       1.0  0.29256  0.011220000000000003  0.5024  1.0000
  H   H16       1.0  0.18017  0.78855  0.56178  1.0000
  H   H17       1.0  0.22260000000000002  0.71489  0.39437  1.0000
  H   H18       1.0  0.04988  0.68725  0.44332  1.0000
  H   H19       1.0  0.12584000000000004  0.53771  0.5361499999999999  1.0000
  H   H20       1.0  0.14135  0.48295  0.44125  1.0000
  H   H21       1.0  0.41573000000000004  0.5844300000000001  0.44299  1.0000
  H   H22       1.0  0.3626900000000001  0.4779100000000001  0.52265  1.0000
  H   H23       1.0  0.5436900000000001  0.6943900000000001  0.56132  1.0000
  H   H24       1.0  0.3707  0.66672  0.60931  1.0000
  H   H25       1.0  0.45179000000000014  0.8979100000000002  0.56103  1.0000
  H   H26       1.0  0.46668  0.84085  0.46597  1.0000
  H   H27       1.0  0.2426100000000001  0.9419700000000002  0.08149  1.0000
  H   H28       1.0  0.29256  0.011220000000000003  0.9975999999999999  1.0000
  H   H29       1.0  0.18017  0.78855  0.93821  1.0000
  H   H30       1.0  0.22260000000000002  0.71489  0.10563  1.0000
  H   H31       1.0  0.04988  0.68725  0.05667999999999999  1.0000
  H   H32       1.0  0.12584000000000004  0.53771  0.9638499999999999  1.0000
  H   H33       1.0  0.14135  0.48295  0.058750000000000004  1.0000
  H   H34       1.0  0.41573000000000004  0.5844300000000001  0.05701  1.0000
  H   H35       1.0  0.3626900000000001  0.4779100000000001  0.97735  1.0000
  H   H36       1.0  0.5436900000000001  0.6943900000000001  0.9386799999999998  1.0000
  H   H37       1.0  0.3707  0.66672  0.89069  1.0000
  H   H38       1.0  0.45179000000000014  0.8979100000000002  0.93896  1.0000
  H   H39       1.0  0.46668  0.84085  0.03402999999999999  1.0000
  H   H40       1.0  0.75739  0.05803  0.58148  1.0000
  H   H41       1.0  0.70743  0.9887800000000001  0.4976  1.0000
  H   H42       1.0  0.8198200000000001  0.21145000000000003  0.43821  1.0000
  H   H43       1.0  0.7774  0.2851000000000001  0.60563  1.0000
  H   H44       1.0  0.9501200000000001  0.31275  0.55668  1.0000
  H   H45       1.0  0.8741600000000002  0.46229000000000003  0.46385000000000004  1.0000
  H   H46       1.0  0.85865  0.5170500000000001  0.55875  1.0000
  H   H47       1.0  0.58427  0.41557  0.557  1.0000
  H   H48       1.0  0.6373100000000002  0.52209  0.47735  1.0000
  H   H49       1.0  0.45631  0.30561  0.43868  1.0000
  H   H50       1.0  0.6293  0.33327  0.39069  1.0000
  H   H51       1.0  0.54821  0.10209  0.43897  1.0000
  H   H52       1.0  0.53332  0.15915  0.53403  1.0000
  C   C1        1.0  0.87423  0.76771  0.85264  1.0000
  C   C2        1.0  0.19149000000000002  0.21597000000000002  0.85719  1.0000
  C   C3        1.0  0.76022  0.19263  0.00633  1.0000
  C   C4        1.0  0.83105  0.30612  0.9514499999999999  1.0000
  C   C5        1.0  0.81068  0.43681  0.9821400000000001  1.0000
  C   C6        1.0  0.6463300000000001  0.42856  0.99783  1.0000
  C   C7        1.0  0.57547  0.31389  0.05236  1.0000
  C   C8        1.0  0.5950000000000001  0.18355  0.02072  1.0000
  C   C9        1.0  0.12577  0.23229000000000002  0.35264  1.0000
  C   C10       1.0  0.8085100000000002  0.7840300000000001  0.3572  1.0000
  C   C11       1.0  0.23978000000000008  0.8073700000000001  0.50633  1.0000
  C   C12       1.0  0.16895  0.69388  0.45144999999999996  1.0000
  C   C13       1.0  0.18932  0.56319  0.48213999999999996  1.0000
  C   C14       1.0  0.3536700000000001  0.57144  0.49783  1.0000
  C   C15       1.0  0.4245200000000001  0.6861  0.55236  1.0000
  C   C16       1.0  0.40500000000000014  0.81645  0.52072  1.0000
  C   C17       1.0  0.12577  0.23229000000000002  0.14736  1.0000
  C   C18       1.0  0.8085100000000002  0.7840300000000001  0.1428  1.0000
  C   C19       1.0  0.23978000000000008  0.8073700000000001  0.99366  1.0000
  C   C20       1.0  0.16895  0.69388  0.04855  1.0000
  C   C21       1.0  0.18932  0.56319  0.01785  1.0000
  C   C22       1.0  0.3536700000000001  0.57144  0.00217  1.0000
  C   C23       1.0  0.4245200000000001  0.6861  0.94764  1.0000
  C   C24       1.0  0.40500000000000014  0.81645  0.97927  1.0000
  C   C25       1.0  0.87423  0.76771  0.64736  1.0000
  C   C26       1.0  0.19149000000000002  0.21597000000000002  0.6428  1.0000
  C   C27       1.0  0.76022  0.19263  0.49365999999999993  1.0000
  C   C28       1.0  0.83105  0.30612  0.54855  1.0000
  C   C29       1.0  0.81068  0.43681  0.51785  1.0000
  C   C30       1.0  0.6463300000000001  0.42856  0.50216  1.0000
  C   C31       1.0  0.57547  0.31389  0.4476399999999999  1.0000
  C   C32       1.0  0.5950000000000001  0.18355  0.47928000000000004  1.0000
  C   C33       1.0  0.58604  0.52255  0.7499999999999998  1.0000
  C   C34       1.0  0.9824700000000001  0.51497  0.7499999999999998  1.0000
  C   C35       1.0  0.41395999999999994  0.47744  0.25  1.0000
  C   C36       1.0  0.01753000000000003  0.48503000000000007  0.25  1.0000
  N   N1        1.0  0.9106800000000003  0.8413700000000001  0.90411  1.0000
  N   N2        1.0  0.1611  0.14739  0.91129  1.0000
  N   N3        1.0  0.78172  0.06678  0.9762199999999999  1.0000
  N   N4        1.0  0.08932000000000002  0.15863  0.40411  1.0000
  N   N5        1.0  0.8389  0.85261  0.41129  1.0000
  N   N6        1.0  0.21828000000000009  0.9332200000000002  0.4762199999999999  1.0000
  N   N7        1.0  0.08932000000000002  0.15863  0.09589  1.0000
  N   N8        1.0  0.8389  0.85261  0.0887  1.0000
  N   N9        1.0  0.21828000000000009  0.9332200000000002  0.02378  1.0000
  N   N10       1.0  0.9106800000000003  0.8413700000000001  0.59589  1.0000
  N   N11       1.0  0.1611  0.14739  0.5887  1.0000
  N   N12       1.0  0.78172  0.06678  0.52378  1.0000
  N   N13       1.0  0.46009  0.46261  0.7499999999999998  1.0000
  N   N14       1.0  0.07218000000000001  0.4557300000000001  0.7499999999999998  1.0000
  N   N15       1.0  0.5399100000000001  0.5373900000000001  0.25  1.0000
  N   N16       1.0  0.9278200000000001  0.54427  0.25  1.0000
