data_image0
_chemical_formula_structural       Zn6H16C48O40
_chemical_formula_sum              "Zn6 H16 C48 O40"
_cell_length_a       9.34313
_cell_length_b       14.980779999999998
_cell_length_c       18.01631
_cell_angle_alpha    90.12636000000002
_cell_angle_beta     95.78229
_cell_angle_gamma    90.01315

_space_group_name_H-M_alt    "P 1"
_space_group_IT_number       1

loop_
  _space_group_symop_operation_xyz
  'x, y, z'

loop_
  _atom_site_type_symbol
  _atom_site_label
  _atom_site_symmetry_multiplicity
  _atom_site_fract_x
  _atom_site_fract_y
  _atom_site_fract_z
  _atom_site_occupancy
  Zn  Zn1       1.0  0.92725  0.6092  0.33501  1.0000
  Zn  Zn2       1.0  0.07086000000000003  0.11329999999999997  0.16478  1.0000
  Zn  Zn3       1.0  0.07274000000000003  0.3908  0.66499  1.0000
  Zn  Zn4       1.0  0.9291300000000001  0.8866999999999998  0.83522  1.0000
  Zn  Zn5       1.0  0.0  0.4999999999999999  0.5  1.0000
  Zn  Zn6       1.0  0.99999  0.9999899999999999  1e-05  1.0000
  H   H1        1.0  0.5532699999999999  0.3472499999999999  0.46002  1.0000
  H   H2        1.0  0.25772  0.36953  0.43357  1.0000
  H   H3        1.0  0.8731300000000001  0.8925499999999997  0.4226  1.0000
  H   H4        1.0  0.8459900000000001  0.00307  0.54373  1.0000
  H   H5        1.0  0.44615  0.8475  0.04042  1.0000
  H   H6        1.0  0.74072  0.87218  0.06564  1.0000
  H   H7        1.0  0.1277  0.39462999999999987  0.07719  1.0000
  H   H8        1.0  0.15373  0.5054699999999998  0.95642  1.0000
  H   H9        1.0  0.44672  0.6527599999999998  0.53998  1.0000
  H   H10       1.0  0.74227  0.63048  0.56643  1.0000
  H   H11       1.0  0.12686  0.10745999999999997  0.5774  1.0000
  H   H12       1.0  0.15400000000000003  0.9969399999999998  0.45627000000000006  1.0000
  H   H13       1.0  0.55384  0.15250999999999995  0.9595799999999999  1.0000
  H   H14       1.0  0.2592700000000001  0.12782  0.9343600000000001  1.0000
  H   H15       1.0  0.87229  0.60538  0.9228100000000001  1.0000
  H   H16       1.0  0.8462600000000001  0.4945299999999999  0.04358000000000001  1.0000
  C   C1        1.0  0.70768  0.5051399999999998  0.40791  1.0000
  C   C2        1.0  0.5550800000000001  0.48048  0.40958  1.0000
  C   C3        1.0  0.49314  0.40328  0.43499  1.0000
  C   C4        1.0  0.34332  0.41448999999999997  0.42163  1.0000
  C   C5        1.0  0.32155  0.49892  0.39082  1.0000
  C   C6        1.0  0.19154  0.55052  0.3665  1.0000
  C   C7        1.0  0.94024  0.7062499999999998  0.47234  1.0000
  C   C8        1.0  0.9198000000000001  0.7922299999999998  0.5103  1.0000
  C   C9        1.0  0.8856600000000001  0.8764799999999998  0.48156000000000004  1.0000
  C   C10       1.0  0.8725500000000002  0.9326599999999998  0.54335  1.0000
  C   C11       1.0  0.9001000000000001  0.8797699999999998  0.60662  1.0000
  C   C12       1.0  0.9100600000000001  0.9026299999999998  0.68671  1.0000
  C   C13       1.0  0.28921  0.0064199999999999995  0.09352  1.0000
  C   C14       1.0  0.44176000000000004  0.9808399999999998  0.09139  1.0000
  C   C15       1.0  0.5046900000000001  0.9041899999999998  0.06552  1.0000
  C   C16       1.0  0.6546100000000002  0.9165599999999999  0.07811  1.0000
  C   C17       1.0  0.67567  0.0010299999999999997  0.10931  1.0000
  C   C18       1.0  0.8061300000000002  0.05243999999999999  0.13430000000000003  1.0000
  C   C19       1.0  0.06027  0.20876  0.02721  1.0000
  C   C20       1.0  0.08102  0.29436  0.989  1.0000
  C   C21       1.0  0.1155  0.3785699999999999  0.01817  1.0000
  C   C22       1.0  0.1284  0.43486999999999987  0.95671  1.0000
  C   C23       1.0  0.10088  0.3821099999999999  0.89319  1.0000
  C   C24       1.0  0.0923  0.40603  0.81342  1.0000
  C   C25       1.0  0.29231  0.49486999999999987  0.5920900000000001  1.0000
  C   C26       1.0  0.4449100000000001  0.5195199999999998  0.59042  1.0000
  C   C27       1.0  0.50685  0.5967299999999998  0.56501  1.0000
  C   C28       1.0  0.6566600000000004  0.5855199999999998  0.57837  1.0000
  C   C29       1.0  0.67843  0.50109  0.60918  1.0000
  C   C30       1.0  0.80845  0.44949  0.6335  1.0000
  C   C31       1.0  0.05975000000000001  0.2937499999999999  0.52766  1.0000
  C   C32       1.0  0.08019000000000001  0.20777999999999994  0.48969999999999997  1.0000
  C   C33       1.0  0.11432000000000002  0.12352999999999997  0.51844  1.0000
  C   C34       1.0  0.12744000000000003  0.06735  0.45665  1.0000
  C   C35       1.0  0.09989  0.12022999999999998  0.39338  1.0000
  C   C36       1.0  0.08993  0.09737  0.31329  1.0000
  C   C37       1.0  0.7107700000000001  0.9935799999999998  0.9064799999999998  1.0000
  C   C38       1.0  0.55822  0.019160000000000003  0.90861  1.0000
  C   C39       1.0  0.49529000000000006  0.09580999999999999  0.93448  1.0000
  C   C40       1.0  0.34538  0.08344999999999998  0.9218899999999999  1.0000
  C   C41       1.0  0.3243200000000001  0.9989799999999999  0.89069  1.0000
  C   C42       1.0  0.19386  0.9475699999999998  0.8657  1.0000
  C   C43       1.0  0.9397200000000001  0.79125  0.97279  1.0000
  C   C44       1.0  0.91897  0.7056399999999998  0.011  1.0000
  C   C45       1.0  0.88448  0.6214299999999998  0.98183  1.0000
  C   C46       1.0  0.87159  0.5651399999999998  0.04329  1.0000
  C   C47       1.0  0.89911  0.6179  0.10681  1.0000
  C   C48       1.0  0.9076900000000001  0.5939699999999998  0.18658  1.0000
  O   O1        1.0  0.73555  0.5625899999999998  0.35967000000000005  1.0000
  O   O2        1.0  0.7937400000000001  0.4645299999999999  0.4557  1.0000
  O   O3        1.0  0.4509600000000001  0.53915  0.38185  1.0000
  O   O4        1.0  0.19867000000000004  0.6162899999999998  0.32513  1.0000
  O   O5        1.0  0.06985  0.52199  0.38858  1.0000
  O   O6        1.0  0.9499000000000001  0.71459  0.40254000000000006  1.0000
  O   O7        1.0  0.9426400000000001  0.6356099999999998  0.51096  1.0000
  O   O8        1.0  0.92931  0.79392  0.58672  1.0000
  O   O9        1.0  0.93741  0.9822999999999997  0.7041700000000001  1.0000
  O   O10       1.0  0.8922  0.8392699999999997  0.73312  1.0000
  O   O11       1.0  0.264  0.06666  0.14029  1.0000
  O   O12       1.0  0.2006  0.9643299999999998  0.0478  1.0000
  O   O13       1.0  0.54563  0.04011  0.11882999999999999  1.0000
  O   O14       1.0  0.80014  0.11626999999999997  0.17815  1.0000
  O   O15       1.0  0.9278300000000002  0.026029999999999994  0.11079  1.0000
  O   O16       1.0  0.04999000000000001  0.21841  0.09697000000000001  1.0000
  O   O17       1.0  0.05794000000000001  0.13769  0.9890400000000001  1.0000
  O   O18       1.0  0.07145  0.2959599999999999  0.9125  1.0000
  O   O19       1.0  0.06245  0.4854699999999999  0.79637  1.0000
  O   O20       1.0  0.11454000000000002  0.34359  0.7667000000000002  1.0000
  O   O21       1.0  0.26443000000000005  0.43741  0.64033  1.0000
  O   O22       1.0  0.20625  0.5354799999999997  0.5443  1.0000
  O   O23       1.0  0.5490300000000002  0.4608599999999999  0.61814  1.0000
  O   O24       1.0  0.8013200000000003  0.38371  0.67487  1.0000
  O   O25       1.0  0.9301300000000001  0.4780199999999999  0.61142  1.0000
  O   O26       1.0  0.05009000000000001  0.28542  0.59746  1.0000
  O   O27       1.0  0.05734000000000001  0.3643899999999999  0.48904000000000003  1.0000
  O   O28       1.0  0.07068  0.20608999999999994  0.41328  1.0000
  O   O29       1.0  0.06258000000000001  0.017709999999999993  0.2958200000000001  1.0000
  O   O30       1.0  0.10779000000000001  0.16074  0.26688  1.0000
  O   O31       1.0  0.73599  0.9333499999999998  0.85971  1.0000
  O   O32       1.0  0.79939  0.03568  0.9522000000000002  1.0000
  O   O33       1.0  0.45436  0.9598899999999998  0.88117  1.0000
  O   O34       1.0  0.19985000000000006  0.8837299999999998  0.8218500000000001  1.0000
  O   O35       1.0  0.07216  0.9739799999999997  0.88921  1.0000
  O   O36       1.0  0.9500000000000001  0.7815899999999998  0.90303  1.0000
  O   O37       1.0  0.94204  0.8623199999999999  0.01096  1.0000
  O   O38       1.0  0.92854  0.70405  0.0875  1.0000
  O   O39       1.0  0.9375400000000002  0.5145399999999999  0.20363000000000003  1.0000
  O   O40       1.0  0.8854400000000001  0.65641  0.2333  1.0000
