data_image0
_chemical_formula_structural       Mg8H16C48S8O32
_chemical_formula_sum              "Mg8 H16 C48 S8 O32"
_cell_length_a       11.89728
_cell_length_b       13.56346
_cell_length_c       15.338569999999999
_cell_angle_alpha    90.03959000000002
_cell_angle_beta     93.9373
_cell_angle_gamma    90.07511

_space_group_name_H-M_alt    "P 1"
_space_group_IT_number       1

loop_
  _space_group_symop_operation_xyz
  'x, y, z'

loop_
  _atom_site_type_symbol
  _atom_site_label
  _atom_site_symmetry_multiplicity
  _atom_site_fract_x
  _atom_site_fract_y
  _atom_site_fract_z
  _atom_site_occupancy
  Mg  Mg1       1.0  0.43232  0.34538000000000013  0.03178  1.0000
  Mg  Mg2       1.0  0.51074  0.09827000000000002  0.06564  1.0000
  Mg  Mg3       1.0  0.06985  0.84684  0.46812  1.0000
  Mg  Mg4       1.0  0.9887100000000002  0.59843  0.4347699999999999  1.0000
  Mg  Mg5       1.0  0.56767  0.65463  0.96822  1.0000
  Mg  Mg6       1.0  0.48926  0.90174  0.9343599999999997  1.0000
  Mg  Mg7       1.0  0.9301500000000003  0.15316000000000005  0.53187  1.0000
  Mg  Mg8       1.0  0.01129  0.40157  0.56523  1.0000
  H   H1        1.0  0.32996  0.82858  0.27617999999999987  1.0000
  H   H2        1.0  0.46221000000000007  0.75743  0.15635999999999994  1.0000
  H   H3        1.0  0.67107  0.45683  0.16050999999999996  1.0000
  H   H4        1.0  0.79831  0.51983  0.29859999999999987  1.0000
  H   H5        1.0  0.17168000000000003  0.32798  0.22188  1.0000
  H   H6        1.0  0.0385  0.26041  0.34213  1.0000
  H   H7        1.0  0.8312699999999998  0.95735  0.33933999999999986  1.0000
  H   H8        1.0  0.70246  0.01923  0.20193  1.0000
  H   H9        1.0  0.67003  0.17143  0.7238099999999997  1.0000
  H   H10       1.0  0.53778  0.24257  0.8436399999999998  1.0000
  H   H11       1.0  0.32893  0.54317  0.8394899999999997  1.0000
  H   H12       1.0  0.20169  0.4801700000000001  0.70139  1.0000
  H   H13       1.0  0.8283200000000001  0.6720200000000002  0.77812  1.0000
  H   H14       1.0  0.9615  0.73959  0.65787  1.0000
  H   H15       1.0  0.16873  0.04265  0.66066  1.0000
  H   H16       1.0  0.29754  0.98078  0.79807  1.0000
  C   C1        1.0  0.17856  0.6919800000000003  0.3503799999999999  1.0000
  C   C2        1.0  0.26144  0.68072  0.2841899999999999  1.0000
  C   C3        1.0  0.3824199999999999  0.61621  0.17346999999999996  1.0000
  C   C4        1.0  0.44031  0.55333  0.11231999999999998  1.0000
  C   C5        1.0  0.63866  0.24986  0.14022  1.0000
  C   C6        1.0  0.7042600000000001  0.30732  0.2074  1.0000
  C   C7        1.0  0.82137  0.36513  0.33534  1.0000
  C   C8        1.0  0.89426  0.37080000000000013  0.41495999999999994  1.0000
  C   C9        1.0  0.33162  0.7529200000000001  0.2533  1.0000
  C   C10       1.0  0.40087  0.71578  0.19021999999999994  1.0000
  C   C11       1.0  0.71283  0.40976  0.21011  1.0000
  C   C12       1.0  0.7802599999999998  0.44295  0.2830399999999999  1.0000
  C   C13       1.0  0.3205  0.18802  0.14788  1.0000
  C   C14       1.0  0.2363  0.17851  0.21343999999999994  1.0000
  C   C15       1.0  0.11389  0.11718  0.32511  1.0000
  C   C16       1.0  0.05586  0.05507  0.38709  1.0000
  C   C17       1.0  0.86137  0.7505  0.36166  1.0000
  C   C18       1.0  0.79672  0.80751  0.29371  1.0000
  C   C19       1.0  0.6789  0.86429  0.16543999999999995  1.0000
  C   C20       1.0  0.60535  0.8708  0.08602  1.0000
  C   C21       1.0  0.16822  0.25228  0.24451  1.0000
  C   C22       1.0  0.09819  0.21705  0.30802999999999997  1.0000
  C   C23       1.0  0.78865  0.9099200000000001  0.29021999999999987  1.0000
  C   C24       1.0  0.72083  0.9423900000000001  0.21731  1.0000
  C   C25       1.0  0.82144  0.30803  0.6496199999999998  1.0000
  C   C26       1.0  0.73856  0.31928  0.7157999999999998  1.0000
  C   C27       1.0  0.61758  0.38379  0.8265299999999998  1.0000
  C   C28       1.0  0.55969  0.44668  0.88768  1.0000
  C   C29       1.0  0.36134  0.7501400000000001  0.8597799999999998  1.0000
  C   C30       1.0  0.29574  0.6926900000000002  0.7926  1.0000
  C   C31       1.0  0.17863  0.63487  0.6646499999999997  1.0000
  C   C32       1.0  0.10573999999999999  0.62921  0.5850399999999998  1.0000
  C   C33       1.0  0.66838  0.24708000000000002  0.7467  1.0000
  C   C34       1.0  0.59913  0.28422  0.80978  1.0000
  C   C35       1.0  0.28717  0.5902400000000001  0.78989  1.0000
  C   C36       1.0  0.21974  0.55706  0.71696  1.0000
  C   C37       1.0  0.6795000000000001  0.8119900000000001  0.8521199999999998  1.0000
  C   C38       1.0  0.76369  0.8215000000000001  0.7865599999999998  1.0000
  C   C39       1.0  0.8861099999999998  0.88283  0.67489  1.0000
  C   C40       1.0  0.94414  0.94493  0.6129  1.0000
  C   C41       1.0  0.13863  0.24951  0.6383399999999998  1.0000
  C   C42       1.0  0.20328  0.19249  0.7062899999999998  1.0000
  C   C43       1.0  0.32109999999999994  0.13571  0.8345599999999997  1.0000
  C   C44       1.0  0.39465  0.12921  0.9139799999999998  1.0000
  C   C45       1.0  0.83178  0.74772  0.7554799999999998  1.0000
  C   C46       1.0  0.90181  0.78295  0.6919699999999998  1.0000
  C   C47       1.0  0.21135  0.09008  0.7097799999999997  1.0000
  C   C48       1.0  0.2791699999999999  0.05762  0.7826899999999998  1.0000
  S   S1        1.0  0.27916  0.568  0.23465  1.0000
  S   S2        1.0  0.77753  0.25141  0.29456  1.0000
  S   S3        1.0  0.21557  0.06664  0.26368  1.0000
  S   S4        1.0  0.72241  0.7508500000000002  0.20710999999999993  1.0000
  S   S5        1.0  0.72084  0.43201000000000006  0.76535  1.0000
  S   S6        1.0  0.22247  0.74859  0.70543  1.0000
  S   S7        1.0  0.78443  0.93336  0.7363199999999999  1.0000
  S   S8        1.0  0.27759  0.24915  0.79289  1.0000
  O   O1        1.0  0.40019  0.46688  0.09971  1.0000
  O   O2        1.0  0.91969  0.29526  0.46117999999999987  1.0000
  O   O3        1.0  0.64009  0.1552  0.14309  1.0000
  O   O4        1.0  0.93811  0.45464  0.4412399999999999  1.0000
  O   O5        1.0  0.11664999999999999  0.61563  0.3629799999999999  1.0000
  O   O6        1.0  0.17313000000000003  0.77443  0.38905  1.0000
  O   O7        1.0  0.52689  0.58889  0.07835999999999997  1.0000
  O   O8        1.0  0.58105  0.2967100000000001  0.08119999999999997  1.0000
  O   O9        1.0  0.09683  0.9696500000000002  0.4016899999999999  1.0000
  O   O10       1.0  0.57699  0.7956700000000002  0.03978999999999999  1.0000
  O   O11       1.0  0.85768  0.65572  0.3595399999999999  1.0000
  O   O12       1.0  0.56435  0.95552  0.05981  1.0000
  O   O13       1.0  0.38089  0.11099  0.13532  1.0000
  O   O14       1.0  0.32794  0.27031  0.10913  1.0000
  O   O15       1.0  0.9681300000000002  0.09026  0.41978  1.0000
  O   O16       1.0  0.91974  0.79778  0.42016  1.0000
  O   O17       1.0  0.59981  0.53312  0.90029  1.0000
  O   O18       1.0  0.08031  0.70474  0.53882  1.0000
  O   O19       1.0  0.35991  0.8448  0.85691  1.0000
  O   O20       1.0  0.06189000000000001  0.54536  0.55876  1.0000
  O   O21       1.0  0.88335  0.38437  0.63702  1.0000
  O   O22       1.0  0.8268700000000002  0.22557  0.61095  1.0000
  O   O23       1.0  0.47310000000000013  0.4111200000000001  0.9216299999999998  1.0000
  O   O24       1.0  0.41895  0.70329  0.9188  1.0000
  O   O25       1.0  0.90317  0.03035  0.5983099999999998  1.0000
  O   O26       1.0  0.4230099999999999  0.20434000000000005  0.9601999999999998  1.0000
  O   O27       1.0  0.14231999999999997  0.34429  0.6404599999999998  1.0000
  O   O28       1.0  0.43565  0.04448  0.9401899999999997  1.0000
  O   O29       1.0  0.61911  0.88901  0.8646699999999998  1.0000
  O   O30       1.0  0.67206  0.72969  0.89087  1.0000
  O   O31       1.0  0.031870000000000016  0.9097500000000002  0.58022  1.0000
  O   O32       1.0  0.08026  0.20223  0.57984  1.0000
