data_image0
_chemical_formula_structural       Co4H36C36N8O16
_chemical_formula_sum              "Co4 H36 C36 N8 O16"
_cell_length_a       7.04802
_cell_length_b       7.77846
_cell_length_c       22.114629999999995
_cell_angle_alpha    90.0
_cell_angle_beta     90.08777
_cell_angle_gamma    90.0

_space_group_name_H-M_alt    "P 1"
_space_group_IT_number       1

loop_
  _space_group_symop_operation_xyz
  'x, y, z'

loop_
  _atom_site_type_symbol
  _atom_site_label
  _atom_site_symmetry_multiplicity
  _atom_site_fract_x
  _atom_site_fract_y
  _atom_site_fract_z
  _atom_site_occupancy
  Co  Co1       1.0  0.45357999999999987  0.24577  0.71032  1.0000
  Co  Co2       1.0  0.54642  0.24577  0.28969  1.0000
  Co  Co3       1.0  0.9543999999999999  0.75522  0.79092  1.0000
  Co  Co4       1.0  0.045599999999999995  0.75522  0.20908  1.0000
  H   H1        1.0  0.66293  0.13045  0.7957099999999999  1.0000
  H   H2        1.0  0.61626  0.33685  0.81372  1.0000
  H   H3        1.0  0.4434499999999999  0.09697  0.87721  1.0000
  H   H4        1.0  0.3561399999999999  0.39602  0.88929  1.0000
  H   H5        1.0  0.14878999999999995  0.27352  0.8788400000000001  1.0000
  H   H6        1.0  0.51082  0.3333599999999999  0.58112  1.0000
  H   H7        1.0  0.32047999999999993  0.36881999999999987  0.48590999999999995  1.0000
  H   H8        1.0  0.8263199999999998  0.22106999999999993  0.59  1.0000
  H   H9        1.0  0.03398  0.20897  0.67958  1.0000
  H   H10       1.0  0.33706999999999987  0.13045  0.20429  1.0000
  H   H11       1.0  0.38374  0.33685  0.18628  1.0000
  H   H12       1.0  0.55655  0.09697  0.12279000000000001  1.0000
  H   H13       1.0  0.64386  0.39602  0.11071  1.0000
  H   H14       1.0  0.85121  0.27352  0.12116  1.0000
  H   H15       1.0  0.4891799999999999  0.3333599999999999  0.41888  1.0000
  H   H16       1.0  0.67952  0.36881999999999987  0.51409  1.0000
  H   H17       1.0  0.17367999999999995  0.22106999999999993  0.41  1.0000
  H   H18       1.0  0.9660199999999998  0.20897  0.32042  1.0000
  H   H19       1.0  0.16160999999999998  0.87086  0.70524  1.0000
  H   H20       1.0  0.11460999999999998  0.66445  0.6874  1.0000
  H   H21       1.0  0.9423299999999998  0.90452  0.62376  1.0000
  H   H22       1.0  0.8562899999999998  0.60516  0.61121  1.0000
  H   H23       1.0  0.6483299999999997  0.7266999999999998  0.62119  1.0000
  H   H24       1.0  0.00963  0.6675099999999998  0.91898  1.0000
  H   H25       1.0  0.82029  0.6312799999999997  0.014  1.0000
  H   H26       1.0  0.32533  0.77967  0.91007  1.0000
  H   H27       1.0  0.53232  0.7908699999999997  0.8201699999999998  1.0000
  H   H28       1.0  0.8383899999999999  0.87086  0.29477  1.0000
  H   H29       1.0  0.8853899999999999  0.66445  0.3126  1.0000
  H   H30       1.0  0.05767  0.90452  0.3762400000000001  1.0000
  H   H31       1.0  0.14371999999999996  0.60516  0.3888  1.0000
  H   H32       1.0  0.35167  0.7266999999999998  0.37882  1.0000
  H   H33       1.0  0.99037  0.6675099999999998  0.08102  1.0000
  H   H34       1.0  0.17970999999999995  0.6312799999999997  0.986  1.0000
  H   H35       1.0  0.67467  0.77967  0.08993  1.0000
  H   H36       1.0  0.4676799999999999  0.7908699999999997  0.17983  1.0000
  C   C1        1.0  0.27355  0.03816999999999999  0.79956  1.0000
  C   C2        1.0  0.39727999999999997  0.16518  0.8362200000000001  1.0000
  C   C3        1.0  0.27738999999999997  0.31924999999999987  0.85581  1.0000
  C   C4        1.0  0.21344999999999995  0.4437299999999999  0.80625  1.0000
  C   C5        1.0  0.35890999999999995  0.30853  0.57962  1.0000
  C   C6        1.0  0.25237999999999994  0.32679999999999987  0.52735  1.0000
  C   C7        1.0  0.056599999999999984  0.29207  0.5281  1.0000
  C   C8        1.0  0.97658  0.25045  0.58451  1.0000
  C   C9        1.0  0.0924  0.23918999999999996  0.63532  1.0000
  C   C10       1.0  0.7264499999999998  0.03816999999999999  0.20044  1.0000
  C   C11       1.0  0.60272  0.16518  0.16378  1.0000
  C   C12       1.0  0.72261  0.31924999999999987  0.14419  1.0000
  C   C13       1.0  0.7865499999999997  0.4437299999999999  0.19375  1.0000
  C   C14       1.0  0.6410899999999998  0.30853  0.42038  1.0000
  C   C15       1.0  0.7476199999999998  0.32679999999999987  0.47266  1.0000
  C   C16       1.0  0.9433999999999998  0.29207  0.47190000000000004  1.0000
  C   C17       1.0  0.023419999999999993  0.25045  0.4154900000000001  1.0000
  C   C18       1.0  0.9075999999999997  0.23918999999999996  0.36468000000000006  1.0000
  C   C19       1.0  0.7702699999999998  0.9621099999999998  0.70072  1.0000
  C   C20       1.0  0.8953399999999998  0.8357099999999997  0.66449  1.0000
  C   C21       1.0  0.7766799999999998  0.6811599999999998  0.64459  1.0000
  C   C22       1.0  0.71312  0.5557  0.69394  1.0000
  C   C23       1.0  0.8576899999999997  0.69213  0.92033  1.0000
  C   C24       1.0  0.75191  0.67375  0.9726100000000001  1.0000
  C   C25       1.0  0.55618  0.70859  0.97186  1.0000
  C   C26       1.0  0.4756299999999999  0.7501099999999998  0.9154500000000001  1.0000
  C   C27       1.0  0.5906599999999997  0.76103  0.8645099999999999  1.0000
  C   C28       1.0  0.22973  0.9621099999999998  0.29928  1.0000
  C   C29       1.0  0.10465999999999998  0.8357099999999997  0.33551  1.0000
  C   C30       1.0  0.22331999999999994  0.6811599999999998  0.35541  1.0000
  C   C31       1.0  0.2868799999999999  0.5557  0.30607  1.0000
  C   C32       1.0  0.14231  0.69213  0.07967  1.0000
  C   C33       1.0  0.24809999999999993  0.67375  0.02739  1.0000
  C   C34       1.0  0.44381999999999994  0.70859  0.02814  1.0000
  C   C35       1.0  0.5243699999999998  0.7501099999999998  0.08455  1.0000
  C   C36       1.0  0.40934  0.76103  0.13549  1.0000
  N   N1        1.0  0.55866  0.22325999999999993  0.79926  1.0000
  N   N2        1.0  0.28279999999999994  0.26212999999999986  0.63316  1.0000
  N   N3        1.0  0.4413399999999999  0.22325999999999993  0.20074  1.0000
  N   N4        1.0  0.7171999999999998  0.26212999999999986  0.36684  1.0000
  N   N5        1.0  0.057099999999999984  0.7781399999999998  0.70182  1.0000
  N   N6        1.0  0.78095  0.7382199999999998  0.86674  1.0000
  N   N7        1.0  0.9428999999999997  0.7781399999999998  0.29818  1.0000
  N   N8        1.0  0.21905999999999995  0.7382199999999998  0.13326  1.0000
  O   O1        1.0  0.15928999999999993  0.9423399999999997  0.82803  1.0000
  O   O2        1.0  0.29509  0.040289999999999986  0.7421  1.0000
  O   O3        1.0  0.25566  0.42537999999999987  0.7509799999999999  1.0000
  O   O4        1.0  0.1134  0.56693  0.8272399999999999  1.0000
  O   O5        1.0  0.8407099999999997  0.9423399999999997  0.17198  1.0000
  O   O6        1.0  0.7049099999999999  0.040289999999999986  0.2579  1.0000
  O   O7        1.0  0.7443399999999998  0.42537999999999987  0.24901999999999996  1.0000
  O   O8        1.0  0.8865999999999998  0.56693  0.17276  1.0000
  O   O9        1.0  0.6578099999999998  0.058239999999999986  0.67149  1.0000
  O   O10       1.0  0.7897299999999998  0.9589  0.75833  1.0000
  O   O11       1.0  0.7526099999999999  0.57573  0.74934  1.0000
  O   O12       1.0  0.61825  0.4293  0.67248  1.0000
  O   O13       1.0  0.34219  0.058239999999999986  0.32851  1.0000
  O   O14       1.0  0.21026999999999996  0.9589  0.24167  1.0000
  O   O15       1.0  0.24738999999999997  0.57573  0.25066  1.0000
  O   O16       1.0  0.38175  0.4293  0.32753  1.0000
