data_image0
_chemical_formula_structural       La4H32C64O32
_chemical_formula_sum              "La4 H32 C64 O32"
_cell_length_a       9.76812
_cell_length_b       13.67643
_cell_length_c       14.73795
_cell_angle_alpha    90.0
_cell_angle_beta     90.0
_cell_angle_gamma    90.0

_space_group_name_H-M_alt    "P 1"
_space_group_IT_number       1

loop_
  _space_group_symop_operation_xyz
  'x, y, z'

loop_
  _atom_site_type_symbol
  _atom_site_label
  _atom_site_symmetry_multiplicity
  _atom_site_fract_x
  _atom_site_fract_y
  _atom_site_fract_z
  _atom_site_occupancy
  La  La1       1.0  0.75  0.88325  0.0  1.0000
  La  La2       1.0  0.75  0.61675  0.5  1.0000
  La  La3       1.0  0.25  0.11675  0.0  1.0000
  La  La4       1.0  0.25  0.3832499999999999  0.5  1.0000
  H   H1        1.0  0.24031000000000002  0.03022  0.57234  1.0000
  H   H2        1.0  0.11358999999999998  0.88906  0.50022  1.0000
  H   H3        1.0  0.19182  0.07479  0.73195  1.0000
  H   H4        1.0  0.89506  0.84311  0.7503400000000001  1.0000
  H   H5        1.0  0.25969  0.03022  0.42766  1.0000
  H   H6        1.0  0.38641  0.88906  0.4997800000000001  1.0000
  H   H7        1.0  0.30819  0.07479  0.26804  1.0000
  H   H8        1.0  0.60494  0.84311  0.24966000000000005  1.0000
  H   H9        1.0  0.25969  0.46978  0.07234  1.0000
  H   H10       1.0  0.38641  0.6109299999999999  0.00022  1.0000
  H   H11       1.0  0.30819  0.4252  0.23195000000000002  1.0000
  H   H12       1.0  0.60494  0.65688  0.25034  1.0000
  H   H13       1.0  0.24031000000000002  0.46978  0.9276600000000003  1.0000
  H   H14       1.0  0.11358999999999998  0.6109299999999999  0.9997700000000002  1.0000
  H   H15       1.0  0.19182  0.42521  0.7680400000000001  1.0000
  H   H16       1.0  0.89506  0.65688  0.74966  1.0000
  H   H17       1.0  0.75969  0.96977  0.42766  1.0000
  H   H18       1.0  0.88641  0.11094  0.4997800000000001  1.0000
  H   H19       1.0  0.80819  0.9252000000000001  0.26804  1.0000
  H   H20       1.0  0.10494  0.15689  0.24966000000000005  1.0000
  H   H21       1.0  0.74031  0.96977  0.57234  1.0000
  H   H22       1.0  0.61359  0.11094  0.50022  1.0000
  H   H23       1.0  0.69182  0.9252000000000001  0.73195  1.0000
  H   H24       1.0  0.39506  0.15689  0.7503400000000001  1.0000
  H   H25       1.0  0.74031  0.53022  0.9276600000000003  1.0000
  H   H26       1.0  0.61359  0.38905999999999996  0.9997700000000002  1.0000
  H   H27       1.0  0.69182  0.57479  0.7680400000000001  1.0000
  H   H28       1.0  0.39506  0.34311  0.74966  1.0000
  H   H29       1.0  0.75969  0.53022  0.07234  1.0000
  H   H30       1.0  0.88641  0.38905999999999996  0.00022  1.0000
  H   H31       1.0  0.80819  0.57479  0.23195000000000002  1.0000
  H   H32       1.0  0.10494  0.34311  0.25034  1.0000
  C   C1        1.0  0.9703499999999999  0.88389  0.7112900000000002  1.0000
  C   C2        1.0  0.9967700000000002  0.85867  0.6206300000000002  1.0000
  C   C3        1.0  0.01551  0.98857  0.84779  1.0000
  C   C4        1.0  0.16516  0.98827  0.61033  1.0000
  C   C5        1.0  0.04134000000000001  0.96154  0.7512400000000002  1.0000
  C   C6        1.0  0.09524  0.91051  0.5703300000000002  1.0000
  C   C7        1.0  0.1385  0.0139  0.70044  1.0000
  C   C8        1.0  0.91688  0.77868  0.5771700000000002  1.0000
  C   C9        1.0  0.52965  0.88389  0.28871000000000013  1.0000
  C   C10       1.0  0.50323  0.85867  0.37937  1.0000
  C   C11       1.0  0.48449999999999993  0.98857  0.15221  1.0000
  C   C12       1.0  0.33484  0.98827  0.3896700000000001  1.0000
  C   C13       1.0  0.4586700000000001  0.96154  0.24876  1.0000
  C   C14       1.0  0.40476  0.91051  0.42967000000000005  1.0000
  C   C15       1.0  0.3615  0.0139  0.29956  1.0000
  C   C16       1.0  0.58312  0.77868  0.4228300000000001  1.0000
  C   C17       1.0  0.52965  0.6161000000000001  0.21129  1.0000
  C   C18       1.0  0.50323  0.64133  0.12063  1.0000
  C   C19       1.0  0.48449999999999993  0.51143  0.34779  1.0000
  C   C20       1.0  0.33484  0.51173  0.11033  1.0000
  C   C21       1.0  0.4586700000000001  0.53845  0.25124  1.0000
  C   C22       1.0  0.40476  0.58949  0.07033  1.0000
  C   C23       1.0  0.3615  0.4861  0.20044  1.0000
  C   C24       1.0  0.58312  0.72132  0.07717  1.0000
  C   C25       1.0  0.9703499999999999  0.6161000000000001  0.78871  1.0000
  C   C26       1.0  0.9967700000000002  0.64133  0.8793700000000002  1.0000
  C   C27       1.0  0.01551  0.51143  0.6522100000000001  1.0000
  C   C28       1.0  0.16516  0.51173  0.88967  1.0000
  C   C29       1.0  0.04134000000000001  0.53845  0.7487600000000002  1.0000
  C   C30       1.0  0.09524  0.58949  0.9296700000000002  1.0000
  C   C31       1.0  0.1385  0.4861  0.79956  1.0000
  C   C32       1.0  0.91688  0.72132  0.9228300000000003  1.0000
  C   C33       1.0  0.02965  0.11610000000000001  0.28871000000000013  1.0000
  C   C34       1.0  0.00323  0.14133  0.37937  1.0000
  C   C35       1.0  0.9845000000000002  0.011430000000000001  0.15221  1.0000
  C   C36       1.0  0.83484  0.01173  0.3896700000000001  1.0000
  C   C37       1.0  0.95867  0.03845  0.24876  1.0000
  C   C38       1.0  0.90476  0.08949000000000001  0.42967000000000005  1.0000
  C   C39       1.0  0.8615  0.9861  0.29956  1.0000
  C   C40       1.0  0.08312  0.22132  0.4228300000000001  1.0000
  C   C41       1.0  0.47035  0.11610000000000001  0.7112900000000002  1.0000
  C   C42       1.0  0.49677  0.14133  0.6206300000000002  1.0000
  C   C43       1.0  0.51551  0.011430000000000001  0.84779  1.0000
  C   C44       1.0  0.6651600000000001  0.01173  0.61033  1.0000
  C   C45       1.0  0.54134  0.03845  0.7512400000000002  1.0000
  C   C46       1.0  0.59524  0.08949000000000001  0.5703300000000002  1.0000
  C   C47       1.0  0.6385  0.9861  0.70044  1.0000
  C   C48       1.0  0.41688  0.22132  0.5771700000000002  1.0000
  C   C49       1.0  0.47035  0.3839  0.78871  1.0000
  C   C50       1.0  0.49677  0.35867000000000004  0.8793700000000002  1.0000
  C   C51       1.0  0.51551  0.48857  0.6522100000000001  1.0000
  C   C52       1.0  0.6651600000000001  0.48827  0.88967  1.0000
  C   C53       1.0  0.54134  0.46155  0.7487600000000002  1.0000
  C   C54       1.0  0.59524  0.41051  0.9296700000000002  1.0000
  C   C55       1.0  0.6385  0.5139  0.79956  1.0000
  C   C56       1.0  0.41688  0.27868  0.9228300000000003  1.0000
  C   C57       1.0  0.02965  0.3839  0.21129  1.0000
  C   C58       1.0  0.00323  0.35867000000000004  0.12063  1.0000
  C   C59       1.0  0.9845000000000002  0.48857  0.34779  1.0000
  C   C60       1.0  0.83484  0.48827  0.11033  1.0000
  C   C61       1.0  0.95867  0.46155  0.25124  1.0000
  C   C62       1.0  0.90476  0.41051  0.07033  1.0000
  C   C63       1.0  0.8615  0.5139  0.20044  1.0000
  C   C64       1.0  0.08312  0.27868  0.07717  1.0000
  O   O1        1.0  0.90851  0.95747  0.88695  1.0000
  O   O2        1.0  0.10386  0.04285  0.88695  1.0000
  O   O3        1.0  0.96547  0.73337  0.50907  1.0000
  O   O4        1.0  0.79848  0.75721  0.6095000000000003  1.0000
  O   O5        1.0  0.59149  0.95747  0.11305  1.0000
  O   O6        1.0  0.39614000000000005  0.04285  0.11305  1.0000
  O   O7        1.0  0.5345300000000001  0.73337  0.4909300000000001  1.0000
  O   O8        1.0  0.70152  0.75721  0.3904900000000001  1.0000
  O   O9        1.0  0.59149  0.54252  0.38695  1.0000
  O   O10       1.0  0.39614000000000005  0.45715  0.38695  1.0000
  O   O11       1.0  0.5345300000000001  0.76663  0.009070000000000003  1.0000
  O   O12       1.0  0.70152  0.74279  0.10950000000000001  1.0000
  O   O13       1.0  0.90851  0.54252  0.61305  1.0000
  O   O14       1.0  0.10386  0.45715  0.61305  1.0000
  O   O15       1.0  0.96547  0.76663  0.99093  1.0000
  O   O16       1.0  0.79848  0.74279  0.8904900000000002  1.0000
  O   O17       1.0  0.09149  0.04252  0.11305  1.0000
  O   O18       1.0  0.8961399999999999  0.95715  0.11305  1.0000
  O   O19       1.0  0.03453  0.26663  0.4909300000000001  1.0000
  O   O20       1.0  0.20152  0.24279  0.3904900000000001  1.0000
  O   O21       1.0  0.40851000000000004  0.04252  0.88695  1.0000
  O   O22       1.0  0.60386  0.95715  0.88695  1.0000
  O   O23       1.0  0.46547  0.26663  0.50907  1.0000
  O   O24       1.0  0.29848  0.24279  0.6095000000000003  1.0000
  O   O25       1.0  0.40851000000000004  0.45748  0.61305  1.0000
  O   O26       1.0  0.60386  0.54285  0.61305  1.0000
  O   O27       1.0  0.46547  0.23336999999999997  0.99093  1.0000
  O   O28       1.0  0.29848  0.25721  0.8904900000000002  1.0000
  O   O29       1.0  0.09149  0.45748  0.38695  1.0000
  O   O30       1.0  0.8961399999999999  0.54285  0.38695  1.0000
  O   O31       1.0  0.03453  0.23336999999999997  0.009070000000000003  1.0000
  O   O32       1.0  0.20152  0.25721  0.10950000000000001  1.0000
