data_image0
_chemical_formula_structural       Cu8H48C58S8N16O8
_chemical_formula_sum              "Cu8 H48 C58 S8 N16 O8"
_cell_length_a       10.80792
_cell_length_b       13.33351
_cell_length_c       13.332569999999999
_cell_angle_alpha    90.01396
_cell_angle_beta     90.0
_cell_angle_gamma    90.0

_symmetry_space_group_name_H-M    'P 1'
_symmetry_Int_Tables_number       1

loop_
  _symmetry_equiv_pos_as_xyz
  'x,y,z'

loop_
  _atom_site_type_symbol
  _atom_site_label
  _atom_site_symmetry_multiplicity
  _atom_site_fract_x
  _atom_site_fract_y
  _atom_site_fract_z
  _atom_site_occupancy
  Cu  Cu1       1.0  0.7593700000000002  0.34474999999999995  0.72924  1.0000
  Cu  Cu2       1.0  0.7593700000000002  0.15524999999999994  0.77076  1.0000
  Cu  Cu3       1.0  0.2594  0.27058  0.84481  1.0000
  Cu  Cu4       1.0  0.2594  0.22943  0.65519  1.0000
  Cu  Cu5       1.0  0.24063  0.6552499999999998  0.27076  1.0000
  Cu  Cu6       1.0  0.24064  0.84475  0.22924  1.0000
  Cu  Cu7       1.0  0.7406000000000001  0.72942  0.15519  1.0000
  Cu  Cu8       1.0  0.7406000000000001  0.7705799999999999  0.34480999999999995  1.0000
  H   H1        1.0  0.53104  0.4751  0.78309  1.0000
  H   H2        1.0  0.49938  0.68099  0.5329  1.0000
  H   H3        1.0  0.68479  0.59985  0.4594199999999999  1.0000
  H   H4        1.0  0.78642  0.45787  0.55075  1.0000
  H   H5        1.0  0.39283000000000007  0.7599299999999999  0.63786  1.0000
  H   H6        1.0  0.27716  0.6689399999999999  0.60853  1.0000
  H   H7        1.0  0.53104  0.0249  0.7169099999999999  1.0000
  H   H8        1.0  0.49938  0.8190199999999999  0.9671  1.0000
  H   H9        1.0  0.6848  0.90015  0.04058  1.0000
  H   H10       1.0  0.78642  0.04213  0.94926  1.0000
  H   H11       1.0  0.39283000000000007  0.74008  0.86214  1.0000
  H   H12       1.0  0.27716  0.83106  0.89147  1.0000
  H   H13       1.0  0.03097  0.21690999999999996  0.97499  1.0000
  H   H14       1.0  0.99931  0.4670799999999999  0.18096999999999996  1.0000
  H   H15       1.0  0.18470000000000003  0.54057  0.09985  1.0000
  H   H16       1.0  0.28646000000000005  0.44917  0.95792  1.0000
  H   H17       1.0  0.8929000000000001  0.36213  0.25989  1.0000
  H   H18       1.0  0.77724  0.39146999999999993  0.16898  1.0000
  H   H19       1.0  0.03097  0.28309  0.52501  1.0000
  H   H20       1.0  0.99931  0.03292  0.31903  1.0000
  H   H21       1.0  0.18470000000000003  0.95943  0.40015  1.0000
  H   H22       1.0  0.28646000000000005  0.05083  0.54208  1.0000
  H   H23       1.0  0.8929000000000001  0.13787  0.24011  1.0000
  H   H24       1.0  0.77724  0.10852999999999999  0.33102  1.0000
  H   H25       1.0  0.4689600000000001  0.5249  0.21691  1.0000
  H   H26       1.0  0.50062  0.31901  0.4671  1.0000
  H   H27       1.0  0.31521  0.40015  0.54059  1.0000
  H   H28       1.0  0.21358000000000005  0.54213  0.44925  1.0000
  H   H29       1.0  0.60717  0.24007999999999996  0.36214  1.0000
  H   H30       1.0  0.72284  0.33106  0.39146999999999993  1.0000
  H   H31       1.0  0.4689600000000001  0.9751  0.28309  1.0000
  H   H32       1.0  0.50062  0.18099  0.0329  1.0000
  H   H33       1.0  0.31521  0.09986  0.95942  1.0000
  H   H34       1.0  0.21358000000000005  0.9578699999999999  0.05075  1.0000
  H   H35       1.0  0.60717  0.25993  0.13786  1.0000
  H   H36       1.0  0.72284  0.16894  0.10852999999999999  1.0000
  H   H37       1.0  0.96904  0.78309  0.02501  1.0000
  H   H38       1.0  0.0007000000000000001  0.53292  0.81903  1.0000
  H   H39       1.0  0.8153  0.45944  0.90015  1.0000
  H   H40       1.0  0.71355  0.55083  0.04207999999999999  1.0000
  H   H41       1.0  0.10710000000000001  0.6378699999999999  0.74012  1.0000
  H   H42       1.0  0.22276000000000004  0.60853  0.83102  1.0000
  H   H43       1.0  0.96904  0.71691  0.47499  1.0000
  H   H44       1.0  0.0007000000000000001  0.96708  0.6809699999999999  1.0000
  H   H45       1.0  0.8153  0.040569999999999995  0.59985  1.0000
  H   H46       1.0  0.71355  0.9491699999999998  0.45792  1.0000
  H   H47       1.0  0.10710000000000001  0.86213  0.75989  1.0000
  H   H48       1.0  0.22276000000000004  0.89147  0.66898  1.0000
  C   C1        1.0  0.54361  0.28804  0.8744599999999999  1.0000
  C   C2        1.0  0.5634400000000002  0.50458  0.71158  1.0000
  C   C3        1.0  0.5020800000000001  0.58522  0.66541  1.0000
  C   C4        1.0  0.54431  0.62  0.57265  1.0000
  C   C5        1.0  0.6480800000000001  0.574  0.53084  1.0000
  C   C6        1.0  0.7050800000000002  0.49536  0.58083  1.0000
  C   C7        1.0  0.33227  0.70184  0.66937  1.0000
  C   C8        1.0  0.54361  0.21197  0.62554  1.0000
  C   C9        1.0  0.5634400000000002  0.99542  0.78843  1.0000
  C   C10       1.0  0.5020800000000001  0.91478  0.83459  1.0000
  C   C11       1.0  0.54431  0.8799999999999998  0.92735  1.0000
  C   C12       1.0  0.6480800000000001  0.926  0.9691599999999999  1.0000
  C   C13       1.0  0.7050800000000002  0.00464  0.9191699999999998  1.0000
  C   C14       1.0  0.33227  0.79817  0.83063  1.0000
  C   C15       1.0  0.0436  0.12553  0.78801  1.0000
  C   C16       1.0  0.06341000000000001  0.28842  0.00451  1.0000
  C   C17       1.0  0.00206  0.33456  0.08518999999999999  1.0000
  C   C18       1.0  0.04427  0.42734  0.11997999999999999  1.0000
  C   C19       1.0  0.14806  0.46912  0.07402  1.0000
  C   C20       1.0  0.20510000000000003  0.41913  0.99539  1.0000
  C   C21       1.0  0.83231  0.3306  0.20183  1.0000
  C   C22       1.0  0.043590000000000004  0.37447  0.7119899999999999  1.0000
  C   C23       1.0  0.06341000000000001  0.21158  0.49549  1.0000
  C   C24       1.0  0.00206  0.16544  0.41481  1.0000
  C   C25       1.0  0.04427  0.07267  0.38003  1.0000
  C   C26       1.0  0.14806  0.03088  0.42598  1.0000
  C   C27       1.0  0.20510000000000003  0.08087  0.50461  1.0000
  C   C28       1.0  0.83231  0.1694  0.29817  1.0000
  C   C29       1.0  0.45639  0.7119599999999999  0.12554  1.0000
  C   C30       1.0  0.43656  0.49542  0.28843  1.0000
  C   C31       1.0  0.49792000000000003  0.41477999999999987  0.33459  1.0000
  C   C32       1.0  0.4556900000000001  0.38  0.42735  1.0000
  C   C33       1.0  0.35192000000000007  0.42599999999999993  0.46916  1.0000
  C   C34       1.0  0.29492  0.50464  0.41917  1.0000
  C   C35       1.0  0.66773  0.29816  0.33063  1.0000
  C   C36       1.0  0.45639  0.78804  0.37446  1.0000
  C   C37       1.0  0.43656  0.00458  0.21157  1.0000
  C   C38       1.0  0.49792000000000003  0.08522  0.16540999999999997  1.0000
  C   C39       1.0  0.4556900000000001  0.12  0.07265  1.0000
  C   C40       1.0  0.35192000000000007  0.074  0.03084  1.0000
  C   C41       1.0  0.29492  0.99536  0.08083  1.0000
  C   C42       1.0  0.66773  0.20184  0.16937  1.0000
  C   C43       1.0  0.9564100000000001  0.8744699999999999  0.21199  1.0000
  C   C44       1.0  0.9366000000000001  0.71158  0.99549  1.0000
  C   C45       1.0  0.9979400000000002  0.66544  0.91481  1.0000
  C   C46       1.0  0.95573  0.57267  0.88003  1.0000
  C   C47       1.0  0.8519400000000003  0.53088  0.92598  1.0000
  C   C48       1.0  0.79491  0.58087  0.00461  1.0000
  C   C49       1.0  0.1677  0.6694  0.79817  1.0000
  C   C50       1.0  0.9564100000000001  0.62553  0.28801  1.0000
  C   C51       1.0  0.9366000000000001  0.78842  0.50451  1.0000
  C   C52       1.0  0.9979400000000002  0.83457  0.5852  1.0000
  C   C53       1.0  0.95573  0.92734  0.61998  1.0000
  C   C54       1.0  0.8519400000000003  0.9691199999999999  0.57402  1.0000
  C   C55       1.0  0.79491  0.91913  0.49538999999999994  1.0000
  C   C56       1.0  0.1677  0.8306  0.70183  1.0000
  C   C57       1.0  0.24998000000000004  0.7499999999999999  0.75  1.0000
  C   C58       1.0  0.7500300000000001  0.25  0.25  1.0000
  S   S1        1.0  0.69591  0.29024  0.8872  1.0000
  S   S2        1.0  0.69591  0.20975999999999997  0.6128  1.0000
  S   S3        1.0  0.19590000000000002  0.11275  0.79015  1.0000
  S   S4        1.0  0.19590000000000002  0.38725  0.70985  1.0000
  S   S5        1.0  0.30409  0.70976  0.1128  1.0000
  S   S6        1.0  0.30409  0.79024  0.3872  1.0000
  S   S7        1.0  0.8041  0.88725  0.20984999999999998  1.0000
  S   S8        1.0  0.8041  0.61275  0.29015  1.0000
  N   N1        1.0  0.43464  0.28468  0.86693  1.0000
  N   N2        1.0  0.6630400000000001  0.46079  0.67011  1.0000
  N   N3        1.0  0.43464  0.21532999999999994  0.63307  1.0000
  N   N4        1.0  0.66305  0.039209999999999995  0.8298899999999999  1.0000
  N   N5        1.0  0.9346400000000001  0.1331  0.7847  1.0000
  N   N6        1.0  0.16308  0.32983999999999997  0.9608  1.0000
  N   N7        1.0  0.93465  0.36689999999999995  0.7153  1.0000
  N   N8        1.0  0.16308  0.17016  0.53921  1.0000
  N   N9        1.0  0.56536  0.71533  0.13307  1.0000
  N   N10       1.0  0.33696  0.53921  0.32989  1.0000
  N   N11       1.0  0.56536  0.78467  0.36693  1.0000
  N   N12       1.0  0.33696  0.96079  0.17010999999999998  1.0000
  N   N13       1.0  0.06536  0.8669  0.2153  1.0000
  N   N14       1.0  0.83692  0.6701599999999998  0.0392  1.0000
  N   N15       1.0  0.06536  0.6331  0.2847  1.0000
  N   N16       1.0  0.83692  0.82984  0.4608  1.0000
  O   O1        1.0  0.40465000000000007  0.62452  0.71754  1.0000
  O   O2        1.0  0.40465000000000007  0.87548  0.7824699999999999  1.0000
  O   O3        1.0  0.90464  0.28244  0.12449  1.0000
  O   O4        1.0  0.90464  0.21756  0.37551  1.0000
  O   O5        1.0  0.59535  0.37548  0.28246  1.0000
  O   O6        1.0  0.59535  0.12452  0.21754  1.0000
  O   O7        1.0  0.09536  0.7175599999999999  0.87552  1.0000
  O   O8        1.0  0.09536  0.78245  0.62449  1.0000
