data_image0
_chemical_formula_structural       Zn8P8H52C44N16O24
_chemical_formula_sum              "Zn8 P8 H52 C44 N16 O24"
_cell_length_a       9.78308
_cell_length_b       10.776470000000002
_cell_length_c       17.64949
_cell_angle_alpha    90.0
_cell_angle_beta     90.0
_cell_angle_gamma    93.26498

_symmetry_space_group_name_H-M    'P 1'
_symmetry_Int_Tables_number       1

loop_
  _symmetry_equiv_pos_as_xyz
  'x,y,z'

loop_
  _atom_site_type_symbol
  _atom_site_label
  _atom_site_symmetry_multiplicity
  _atom_site_fract_x
  _atom_site_fract_y
  _atom_site_fract_z
  _atom_site_occupancy
  Zn  Zn1       1.0  0.76992  0.50453  0.82811  1.0000
  Zn  Zn2       1.0  0.99337  0.19206999999999996  0.8276  1.0000
  Zn  Zn3       1.0  0.23008  0.99547  0.3281100000000001  1.0000
  Zn  Zn4       1.0  0.00664  0.30793  0.3276  1.0000
  Zn  Zn5       1.0  0.23008  0.49547  0.17189000000000004  1.0000
  Zn  Zn6       1.0  0.006640000000000003  0.80793  0.1724  1.0000
  Zn  Zn7       1.0  0.76992  0.00453  0.6718900000000002  1.0000
  Zn  Zn8       1.0  0.99336  0.69207  0.6724000000000001  1.0000
  P   P1        1.0  0.6905900000000001  0.23576  0.77106  1.0000
  P   P2        1.0  0.07062  0.46894  0.78452  1.0000
  P   P3        1.0  0.30941  0.26423  0.27107  1.0000
  P   P4        1.0  0.9293800000000001  0.03105  0.28452  1.0000
  P   P5        1.0  0.30941  0.76423  0.22893  1.0000
  P   P6        1.0  0.9293800000000001  0.53105  0.21547000000000005  1.0000
  P   P7        1.0  0.6905900000000001  0.73576  0.7289300000000001  1.0000
  P   P8        1.0  0.07062  0.96894  0.71547  1.0000
  H   H1        1.0  0.56239  0.18815  0.79758  1.0000
  H   H2        1.0  0.1969700000000001  0.51918  0.81177  1.0000
  H   H3        1.0  0.50157  0.36697  0.8904800000000002  1.0000
  H   H4        1.0  0.8383400000000001  0.51925  0.01617  1.0000
  H   H5        1.0  0.66956  0.37201  0.11143  1.0000
  H   H6        1.0  0.34965  0.28208  0.0018  1.0000
  H   H7        1.0  0.42108000000000007  0.27344  0.09244000000000002  1.0000
  H   H8        1.0  0.66325  0.16715  0.9547400000000001  1.0000
  H   H9        1.0  0.7212000000000001  0.88545  0.86553  1.0000
  H   H10       1.0  0.7933900000000003  0.03151  0.8933200000000002  1.0000
  H   H11       1.0  0.81199  0.9641600000000001  0.07154  1.0000
  H   H12       1.0  0.93102  0.76127  0.8787100000000002  1.0000
  H   H13       1.0  0.07558  0.68693  0.00553  1.0000
  H   H14       1.0  0.43761000000000005  0.31185  0.29758  1.0000
  H   H15       1.0  0.80303  0.9808099999999998  0.31177  1.0000
  H   H16       1.0  0.49843000000000004  0.13303  0.3904800000000001  1.0000
  H   H17       1.0  0.16167  0.9807499999999999  0.51617  1.0000
  H   H18       1.0  0.33044  0.12798  0.61142  1.0000
  H   H19       1.0  0.65035  0.21792  0.5018  1.0000
  H   H20       1.0  0.57892  0.22656  0.59244  1.0000
  H   H21       1.0  0.33675  0.33285  0.45474  1.0000
  H   H22       1.0  0.27880000000000005  0.61455  0.36553000000000013  1.0000
  H   H23       1.0  0.20661000000000002  0.46849  0.39332  1.0000
  H   H24       1.0  0.18801  0.53584  0.5715400000000003  1.0000
  H   H25       1.0  0.06898  0.73873  0.37871  1.0000
  H   H26       1.0  0.9244200000000001  0.81307  0.50553  1.0000
  H   H27       1.0  0.43761000000000005  0.81185  0.20242  1.0000
  H   H28       1.0  0.80303  0.48080999999999996  0.18823  1.0000
  H   H29       1.0  0.49843000000000004  0.63303  0.10952  1.0000
  H   H30       1.0  0.16167  0.48075  0.9838300000000001  1.0000
  H   H31       1.0  0.33043999999999996  0.62798  0.88857  1.0000
  H   H32       1.0  0.65035  0.71792  0.99819  1.0000
  H   H33       1.0  0.57892  0.7265599999999999  0.90756  1.0000
  H   H34       1.0  0.33675  0.83285  0.04526  1.0000
  H   H35       1.0  0.27880000000000005  0.11455  0.13447000000000003  1.0000
  H   H36       1.0  0.20661000000000002  0.96849  0.10668  1.0000
  H   H37       1.0  0.18801  0.03584  0.92846  1.0000
  H   H38       1.0  0.06898  0.23873  0.12129000000000001  1.0000
  H   H39       1.0  0.9244200000000001  0.31307  0.99447  1.0000
  H   H40       1.0  0.56239  0.68815  0.7024200000000002  1.0000
  H   H41       1.0  0.19697  0.01918  0.6882300000000001  1.0000
  H   H42       1.0  0.50157  0.86697  0.60952  1.0000
  H   H43       1.0  0.8383300000000001  0.01925  0.48383000000000004  1.0000
  H   H44       1.0  0.66956  0.8720100000000001  0.38857000000000014  1.0000
  H   H45       1.0  0.34965  0.78208  0.49819  1.0000
  H   H46       1.0  0.42108000000000007  0.7734399999999999  0.40756  1.0000
  H   H47       1.0  0.66325  0.66715  0.54526  1.0000
  H   H48       1.0  0.7212000000000001  0.38545  0.6344700000000002  1.0000
  H   H49       1.0  0.7933900000000003  0.53151  0.60668  1.0000
  H   H50       1.0  0.81199  0.46416  0.42846000000000006  1.0000
  H   H51       1.0  0.93102  0.26127  0.6212800000000003  1.0000
  H   H52       1.0  0.07558  0.18693  0.49447  1.0000
  C   C1        1.0  0.57089  0.39032  0.9368000000000001  1.0000
  C   C2        1.0  0.74349  0.4661  0.00401  1.0000
  C   C3        1.0  0.661  0.39437999999999995  0.05192  1.0000
  C   C4        1.0  0.44276  0.25844  0.03209  1.0000
  C   C5        1.0  0.47466  0.12503  0.016090000000000007  1.0000
  C   C6        1.0  0.59067  0.0947  0.9753300000000001  1.0000
  C   C7        1.0  0.61735  0.9713499999999999  0.95869  1.0000
  C   C8        1.0  0.74474  0.9447799999999998  0.91486  1.0000
  C   C9        1.0  0.86395  0.89821  0.03717  1.0000
  C   C10       1.0  0.92898  0.7909599999999999  0.9372300000000002  1.0000
  C   C11       1.0  0.99925  0.75513  0.00025  1.0000
  C   C12       1.0  0.42912  0.10967999999999999  0.43680000000000013  1.0000
  C   C13       1.0  0.25651  0.0339  0.50401  1.0000
  C   C14       1.0  0.339  0.10562  0.55192  1.0000
  C   C15       1.0  0.55724  0.24155  0.5320900000000002  1.0000
  C   C16       1.0  0.52534  0.37497  0.51608  1.0000
  C   C17       1.0  0.40933  0.40529999999999994  0.47533  1.0000
  C   C18       1.0  0.3826500000000001  0.52865  0.45869  1.0000
  C   C19       1.0  0.25526  0.55522  0.41486  1.0000
  C   C20       1.0  0.13605  0.60179  0.53717  1.0000
  C   C21       1.0  0.07102  0.70904  0.4372300000000001  1.0000
  C   C22       1.0  0.0007499999999999929  0.7448699999999999  0.50025  1.0000
  C   C23       1.0  0.42912  0.60968  0.0632  1.0000
  C   C24       1.0  0.25651  0.5339  0.9959800000000002  1.0000
  C   C25       1.0  0.339  0.60562  0.9480800000000001  1.0000
  C   C26       1.0  0.55724  0.74155  0.96791  1.0000
  C   C27       1.0  0.52534  0.8749700000000001  0.98391  1.0000
  C   C28       1.0  0.40933  0.9053  0.02467  1.0000
  C   C29       1.0  0.3826500000000001  0.028649999999999995  0.04131  1.0000
  C   C30       1.0  0.25526  0.05522  0.08513  1.0000
  C   C31       1.0  0.13605000000000003  0.10179  0.9628300000000001  1.0000
  C   C32       1.0  0.07102  0.20904  0.06277  1.0000
  C   C33       1.0  0.0007499999999999986  0.24487  0.9997400000000001  1.0000
  C   C34       1.0  0.57089  0.89032  0.5632  1.0000
  C   C35       1.0  0.74349  0.9660999999999998  0.49599  1.0000
  C   C36       1.0  0.661  0.8943799999999998  0.44808  1.0000
  C   C37       1.0  0.44276  0.75844  0.46791000000000005  1.0000
  C   C38       1.0  0.4746600000000003  0.62503  0.48391000000000006  1.0000
  C   C39       1.0  0.59067  0.59469  0.52467  1.0000
  C   C40       1.0  0.61735  0.47134999999999994  0.54131  1.0000
  C   C41       1.0  0.7447400000000002  0.44478  0.58513  1.0000
  C   C42       1.0  0.86395  0.39820999999999995  0.4628300000000001  1.0000
  C   C43       1.0  0.92898  0.29096  0.56276  1.0000
  C   C44       1.0  0.99925  0.25513  0.4997500000000001  1.0000
  N   N1        1.0  0.68623  0.46205  0.93206  1.0000
  N   N2        1.0  0.55164  0.34813  0.00858  1.0000
  N   N3        1.0  0.84338  0.8808199999999999  0.9618200000000001  1.0000
  N   N4        1.0  0.9575000000000005  0.8223299999999999  0.06215000000000001  1.0000
  N   N5        1.0  0.31377  0.03795  0.43206  1.0000
  N   N6        1.0  0.44836  0.15187  0.50858  1.0000
  N   N7        1.0  0.15662  0.61918  0.46182000000000006  1.0000
  N   N8        1.0  0.0425  0.67766  0.56215  1.0000
  N   N9        1.0  0.31377  0.53795  0.06794  1.0000
  N   N10       1.0  0.44836  0.65187  0.99142  1.0000
  N   N11       1.0  0.15662  0.11917999999999998  0.03818  1.0000
  N   N12       1.0  0.0425  0.17767  0.9378500000000001  1.0000
  N   N13       1.0  0.68623  0.96205  0.56794  1.0000
  N   N14       1.0  0.55164  0.8481299999999999  0.49142  1.0000
  N   N15       1.0  0.84338  0.38082  0.53818  1.0000
  N   N16       1.0  0.9575100000000001  0.32233  0.43785  1.0000
  O   O1        1.0  0.79276  0.20139999999999997  0.83298  1.0000
  O   O2        1.0  0.67945  0.37725999999999993  0.76144  1.0000
  O   O3        1.0  0.71358  0.17426  0.6933  1.0000
  O   O4        1.0  0.9664600000000001  0.50027  0.8468900000000003  1.0000
  O   O5        1.0  0.04590000000000001  0.53022  0.7076000000000001  1.0000
  O   O6        1.0  0.08869  0.32888  0.77497  1.0000
  O   O7        1.0  0.20724000000000004  0.2986  0.33298  1.0000
  O   O8        1.0  0.32055000000000006  0.12274  0.26144  1.0000
  O   O9        1.0  0.28642  0.32573  0.1933  1.0000
  O   O10       1.0  0.03354000000000001  0.99973  0.34689  1.0000
  O   O11       1.0  0.9541000000000001  0.96978  0.2076  1.0000
  O   O12       1.0  0.9113100000000001  0.17112  0.27497  1.0000
  O   O13       1.0  0.20724000000000004  0.7986  0.16702  1.0000
  O   O14       1.0  0.32055000000000006  0.62274  0.23856  1.0000
  O   O15       1.0  0.28642  0.8257299999999999  0.3067  1.0000
  O   O16       1.0  0.03354000000000001  0.49972999999999995  0.15311  1.0000
  O   O17       1.0  0.9541000000000001  0.46978  0.2924  1.0000
  O   O18       1.0  0.9113100000000001  0.67112  0.22503  1.0000
  O   O19       1.0  0.79275  0.7014  0.66702  1.0000
  O   O20       1.0  0.67945  0.87725  0.7385600000000002  1.0000
  O   O21       1.0  0.71358  0.67426  0.8067000000000002  1.0000
  O   O22       1.0  0.9664600000000001  0.00027  0.65311  1.0000
  O   O23       1.0  0.04590000000000001  0.030219999999999997  0.7924  1.0000
  O   O24       1.0  0.08869  0.82888  0.72503  1.0000
