data_image0
_chemical_formula_structural       In6H36C60N18O26
_chemical_formula_sum              "In6 H36 C60 N18 O26"
_cell_length_a       13.9778
_cell_length_b       13.97791
_cell_length_c       18.7968
_cell_angle_alpha    89.99977
_cell_angle_beta     90.00045
_cell_angle_gamma    120.22987999999998

_space_group_name_H-M_alt    "P 1"
_space_group_IT_number       1

loop_
  _space_group_symop_operation_xyz
  'x, y, z'

loop_
  _atom_site_type_symbol
  _atom_site_label
  _atom_site_symmetry_multiplicity
  _atom_site_fract_x
  _atom_site_fract_y
  _atom_site_fract_z
  _atom_site_occupancy
  In  In1       1.0  0.24739000000000003  0.49534  0.25041  1.0000
  In  In2       1.0  0.24772  0.75227  0.25046  1.0000
  In  In3       1.0  0.50466  0.75261  0.25041  1.0000
  In  In4       1.0  0.7526200000000002  0.50467  0.74959  1.0000
  In  In5       1.0  0.7522800000000002  0.24773  0.74955  1.0000
  In  In6       1.0  0.4953400000000001  0.24739  0.74959  1.0000
  H   H1        1.0  0.32205000000000006  0.37061  0.44066  1.0000
  H   H2        1.0  0.04876  0.67747  0.44033999999999995  1.0000
  H   H3        1.0  0.62899  0.95156  0.44077999999999995  1.0000
  H   H4        1.0  0.67782  0.62966  0.94076  1.0000
  H   H5        1.0  0.9516400000000004  0.32267  0.9404399999999998  1.0000
  H   H6        1.0  0.37075  0.04805  0.94086  1.0000
  H   H7        1.0  0.9515600000000001  0.62899  0.5592199999999998  1.0000
  H   H8        1.0  0.37061000000000005  0.32205  0.55934  1.0000
  H   H9        1.0  0.67748  0.04877000000000001  0.5596599999999998  1.0000
  H   H10       1.0  0.048039999999999944  0.37073999999999996  0.05913999999999999  1.0000
  H   H11       1.0  0.62966  0.6778100000000001  0.059239999999999994  1.0000
  H   H12       1.0  0.32266  0.95163  0.05955999999999999  1.0000
  H   H13       1.0  0.67796  0.62939  0.55934  1.0000
  H   H14       1.0  0.95124  0.32253  0.5596599999999998  1.0000
  H   H15       1.0  0.3710100000000001  0.04845  0.5592199999999998  1.0000
  H   H16       1.0  0.32218  0.37034  0.059239999999999994  1.0000
  H   H17       1.0  0.04837000000000002  0.67733  0.05955999999999999  1.0000
  H   H18       1.0  0.6292500000000002  0.95195  0.05913999999999999  1.0000
  H   H19       1.0  0.04844000000000003  0.37101  0.44077999999999995  1.0000
  H   H20       1.0  0.6293900000000002  0.67795  0.44066  1.0000
  H   H21       1.0  0.32253  0.95123  0.44033999999999995  1.0000
  H   H22       1.0  0.9519600000000001  0.62926  0.94086  1.0000
  H   H23       1.0  0.37034  0.32219  0.94076  1.0000
  H   H24       1.0  0.67734  0.04838  0.9404399999999998  1.0000
  H   H25       1.0  0.13378  0.26786  0.36213  1.0000
  H   H26       1.0  0.13426999999999997  0.86572  0.3621  1.0000
  H   H27       1.0  0.73214  0.86622  0.36213  1.0000
  H   H28       1.0  0.8657400000000001  0.73119  0.8619699999999999  1.0000
  H   H29       1.0  0.8652700000000001  0.13474  0.86195  1.0000
  H   H30       1.0  0.26882  0.13427  0.8619699999999999  1.0000
  H   H31       1.0  0.86622  0.73214  0.63787  1.0000
  H   H32       1.0  0.26786  0.13379  0.63787  1.0000
  H   H33       1.0  0.8657300000000002  0.13428  0.6378999999999999  1.0000
  H   H34       1.0  0.13427  0.26881  0.13803  1.0000
  H   H35       1.0  0.7311900000000001  0.86573  0.13803  1.0000
  H   H36       1.0  0.1347300000000001  0.86526  0.13805  1.0000
  C   C1        1.0  0.39948  0.42636  0.46729999999999994  1.0000
  C   C2        1.0  0.02693000000000001  0.60027  0.46713999999999994  1.0000
  C   C3        1.0  0.5735200000000003  0.97325  0.46738  1.0000
  C   C4        1.0  0.6002600000000001  0.57361  0.96716  1.0000
  C   C5        1.0  0.9733000000000003  0.4000000000000001  0.9670199999999999  1.0000
  C   C6        1.0  0.42653  0.02653  0.9672499999999999  1.0000
  C   C7        1.0  0.97325  0.57352  0.53262  1.0000
  C   C8        1.0  0.4263600000000002  0.39948000000000006  0.5326999999999998  1.0000
  C   C9        1.0  0.6002700000000001  0.02694  0.53286  1.0000
  C   C10       1.0  0.026520000000000016  0.42652  0.03275  1.0000
  C   C11       1.0  0.57361  0.60025  0.03283999999999999  1.0000
  C   C12       1.0  0.4  0.97329  0.03298  1.0000
  C   C13       1.0  0.60052  0.57364  0.5326999999999998  1.0000
  C   C14       1.0  0.9730700000000002  0.3997299999999999  0.53286  1.0000
  C   C15       1.0  0.4264900000000001  0.026749999999999996  0.53262  1.0000
  C   C16       1.0  0.3997400000000001  0.42639  0.03283999999999999  1.0000
  C   C17       1.0  0.026709999999999994  0.6  0.03298  1.0000
  C   C18       1.0  0.57347  0.97347  0.03275  1.0000
  C   C19       1.0  0.02674999999999999  0.42648  0.46738  1.0000
  C   C20       1.0  0.5736500000000002  0.60052  0.46729999999999994  1.0000
  C   C21       1.0  0.39973  0.97306  0.46713999999999994  1.0000
  C   C22       1.0  0.9734799999999999  0.57348  0.9672499999999999  1.0000
  C   C23       1.0  0.4263900000000001  0.39975  0.9671699999999999  1.0000
  C   C24       1.0  0.6000100000000003  0.02671  0.9670199999999999  1.0000
  C   C25       1.0  0.4429300000000001  0.55707  0.3645699999999999  1.0000
  C   C26       1.0  0.4728900000000001  0.52711  0.43422999999999995  1.0000
  C   C27       1.0  0.11359000000000001  0.55673  0.36443  1.0000
  C   C28       1.0  0.05404000000000004  0.52696  0.43422999999999995  1.0000
  C   C29       1.0  0.44327  0.88641  0.36443  1.0000
  C   C30       1.0  0.47304  0.94595  0.43422999999999995  1.0000
  C   C31       1.0  0.5561500000000001  0.44386  0.8631299999999998  1.0000
  C   C32       1.0  0.52691  0.47309999999999997  0.9336599999999998  1.0000
  C   C33       1.0  0.8881300000000001  0.44412  0.8630399999999998  1.0000
  C   C34       1.0  0.9463500000000002  0.47323  0.9336599999999998  1.0000
  C   C35       1.0  0.55589  0.11188000000000001  0.8630399999999998  1.0000
  C   C36       1.0  0.5267800000000001  0.05366  0.9336599999999998  1.0000
  C   C37       1.0  0.88642  0.44327  0.63557  1.0000
  C   C38       1.0  0.94596  0.47304  0.56577  1.0000
  C   C39       1.0  0.55707  0.44293  0.6354299999999998  1.0000
  C   C40       1.0  0.52711  0.4728899999999999  0.56577  1.0000
  C   C41       1.0  0.5567400000000001  0.11359000000000001  0.63557  1.0000
  C   C42       1.0  0.52697  0.05405  0.56577  1.0000
  C   C43       1.0  0.11187000000000001  0.55588  0.13696  1.0000
  C   C44       1.0  0.053649999999999996  0.52677  0.06634  1.0000
  C   C45       1.0  0.44385  0.55614  0.13688  1.0000
  C   C46       1.0  0.4731  0.5269  0.06634  1.0000
  C   C47       1.0  0.4441100000000001  0.8881200000000001  0.13696  1.0000
  C   C48       1.0  0.47322  0.94634  0.06634  1.0000
  C   C49       1.0  0.12059000000000002  0.24179  0.3071  1.0000
  C   C50       1.0  0.12130000000000007  0.8787000000000001  0.30707  1.0000
  C   C51       1.0  0.7582100000000002  0.8794099999999999  0.3071  1.0000
  C   C52       1.0  0.87916  0.75771  0.8070299999999998  1.0000
  C   C53       1.0  0.87846  0.12154999999999999  0.8069999999999998  1.0000
  C   C54       1.0  0.2423  0.12084000000000002  0.8070299999999998  1.0000
  C   C55       1.0  0.87942  0.75821  0.6929  1.0000
  C   C56       1.0  0.24179000000000006  0.12059  0.6929  1.0000
  C   C57       1.0  0.87871  0.1213  0.69293  1.0000
  C   C58       1.0  0.12084  0.24229  0.19296999999999997  1.0000
  C   C59       1.0  0.75771  0.87916  0.19296999999999997  1.0000
  C   C60       1.0  0.12153999999999998  0.87845  0.19299999999999995  1.0000
  N   N1        1.0  0.15566000000000005  0.31161  0.25017  1.0000
  N   N2        1.0  0.15609999999999996  0.8438899999999999  0.25016  1.0000
  N   N3        1.0  0.6883900000000002  0.84434  0.25017  1.0000
  N   N4        1.0  0.8443500000000003  0.68839  0.74983  1.0000
  N   N5        1.0  0.8439000000000002  0.15611  0.74984  1.0000
  N   N6        1.0  0.31162  0.15566  0.74983  1.0000
  N   N7        1.0  0.06769000000000003  0.13632  0.28442  1.0000
  N   N8        1.0  0.06872000000000006  0.9312799999999999  0.28447  1.0000
  N   N9        1.0  0.86368  0.9323099999999999  0.28442  1.0000
  N   N10       1.0  0.9321600000000002  0.86339  0.7847699999999999  1.0000
  N   N11       1.0  0.9311400000000002  0.06887  0.7848099999999998  1.0000
  N   N12       1.0  0.13662000000000005  0.06784  0.7847699999999999  1.0000
  N   N13       1.0  0.9323100000000001  0.8636800000000001  0.71558  1.0000
  N   N14       1.0  0.13632  0.06769  0.71558  1.0000
  N   N15       1.0  0.93128  0.06873  0.7155299999999998  1.0000
  N   N16       1.0  0.06784  0.13661  0.21524  1.0000
  N   N17       1.0  0.8633900000000002  0.93216  0.21524  1.0000
  N   N18       1.0  0.06885999999999999  0.93113  0.21518999999999996  1.0000
  O   O1        1.0  0.3493700000000001  0.48628  0.3382  1.0000
  O   O2        1.0  0.13614000000000007  0.64993  0.3379  1.0000
  O   O3        1.0  0.5138300000000001  0.8638899999999999  0.3380399999999999  1.0000
  O   O4        1.0  0.64905  0.51483  0.8360699999999999  1.0000
  O   O5        1.0  0.8662000000000001  0.35145  0.83594  1.0000
  O   O6        1.0  0.4851300000000001  0.13358  0.83598  1.0000
  O   O7        1.0  0.86389  0.51384  0.6619599999999998  1.0000
  O   O8        1.0  0.48629  0.34937  0.6618  1.0000
  O   O9        1.0  0.6499300000000001  0.13614  0.6621  1.0000
  O   O10       1.0  0.13357  0.48512  0.16402  1.0000
  O   O11       1.0  0.5148300000000001  0.64904  0.16393  1.0000
  O   O12       1.0  0.35144  0.86619  0.16406  1.0000
  O   O13       1.0  0.65063  0.51372  0.6618  1.0000
  O   O14       1.0  0.8638700000000001  0.35007  0.6621  1.0000
  O   O15       1.0  0.48617  0.13611  0.6619599999999998  1.0000
  O   O16       1.0  0.3509500000000001  0.48517  0.16393  1.0000
  O   O17       1.0  0.13381  0.64856  0.16406  1.0000
  O   O18       1.0  0.5148800000000001  0.86642  0.16402  1.0000
  O   O19       1.0  0.13611000000000004  0.48617  0.3380399999999999  1.0000
  O   O20       1.0  0.5137200000000002  0.65063  0.3382  1.0000
  O   O21       1.0  0.35006999999999994  0.8638599999999999  0.3379  1.0000
  O   O22       1.0  0.8664300000000001  0.51488  0.83598  1.0000
  O   O23       1.0  0.48518  0.35095999999999994  0.8360699999999999  1.0000
  O   O24       1.0  0.64856  0.13381  0.83594  1.0000
  O   O25       1.0  0.3332400000000001  0.66676  0.24955  1.0000
  O   O26       1.0  0.66676  0.33324999999999994  0.75045  1.0000
