data_image0
_chemical_formula_structural       Co6H58C48N24
_chemical_formula_sum              "Co6 H58 C48 N24"
_cell_length_a       14.6531
_cell_length_b       14.697190000000003
_cell_length_c       14.704529999999998
_cell_angle_alpha    109.52123000000002
_cell_angle_beta     109.40131
_cell_angle_gamma    109.41524

_symmetry_space_group_name_H-M    'P 1'
_symmetry_Int_Tables_number       1

loop_
  _symmetry_equiv_pos_as_xyz
  'x,y,z'

loop_
  _atom_site_type_symbol
  _atom_site_label
  _atom_site_symmetry_multiplicity
  _atom_site_fract_x
  _atom_site_fract_y
  _atom_site_fract_z
  _atom_site_occupancy
  Co  Co1       1.0  0.50005  0.75045  0.25001  1.0000
  Co  Co2       1.0  0.50058  0.25016  0.75022  1.0000
  Co  Co3       1.0  0.24999999999999994  0.5001  0.75063  1.0000
  Co  Co4       1.0  0.7500799999999999  0.4996400000000001  0.24943000000000004  1.0000
  Co  Co5       1.0  0.24973999999999993  0.74985  0.5014  1.0000
  Co  Co6       1.0  0.74939  0.24961000000000005  0.49904  1.0000
  H   H1        1.0  0.5328799999999998  0.87777  0.11669000000000002  1.0000
  H   H2        1.0  0.7632999999999998  0.41874  0.88523  1.0000
  H   H3        1.0  0.23787999999999995  0.12197000000000005  0.65312  1.0000
  H   H4        1.0  0.3456699999999999  0.4670599999999999  0.58403  1.0000
  H   H5        1.0  0.11393000000000005  0.53229  0.87786  1.0000
  H   H6        1.0  0.6545499999999997  0.23847000000000004  0.12217000000000001  1.0000
  H   H7        1.0  0.8825699999999999  0.76266  0.415  1.0000
  H   H8        1.0  0.41845000000000004  0.8854200000000003  0.7635700000000001  1.0000
  H   H9        1.0  0.5833699999999997  0.34605  0.46789  1.0000
  H   H10       1.0  0.8786499999999998  0.11633000000000002  0.53065  1.0000
  H   H11       1.0  0.46864  0.34791000000000005  0.58546  1.0000
  H   H12       1.0  0.53249  0.11700000000000002  0.87829  1.0000
  H   H13       1.0  0.23546  0.65051  0.12015  1.0000
  H   H14       1.0  0.7629199999999998  0.88468  0.4168200000000001  1.0000
  H   H15       1.0  0.6530599999999999  0.12215000000000001  0.23762  1.0000
  H   H16       1.0  0.8817999999999999  0.4137600000000002  0.7612400000000001  1.0000
  H   H17       1.0  0.3457  0.5823600000000001  0.46777  1.0000
  H   H18       1.0  0.11481000000000013  0.8782200000000001  0.53453  1.0000
  H   H19       1.0  0.8784899999999999  0.53426  0.11664000000000001  1.0000
  H   H20       1.0  0.5853499999999998  0.47139999999999993  0.34886  1.0000
  H   H21       1.0  0.41566999999999993  0.7627300000000001  0.885  1.0000
  H   H22       1.0  0.12168  0.23804999999999998  0.65543  1.0000
  H   H23       1.0  0.3467399999999999  0.52092  0.08408000000000002  1.0000
  H   H24       1.0  0.3453799999999999  0.44989  0.95861  1.0000
  H   H25       1.0  0.22791  0.46261  0.95235  1.0000
  H   H26       1.0  0.7163599999999998  0.6332  0.14857  1.0000
  H   H27       1.0  0.74909  0.76768  0.24302000000000004  1.0000
  H   H28       1.0  0.61807  0.67998  0.11878  1.0000
  H   H29       1.0  0.50767  0.37931  0.06912  1.0000
  H   H30       1.0  0.49378999999999995  0.24553  0.01035  1.0000
  H   H31       1.0  0.43624999999999997  0.2924800000000001  0.92136  1.0000
  H   H32       1.0  0.56313  0.48804  0.86362  1.0000
  H   H33       1.0  0.4884499999999999  0.56258  0.865  1.0000
  H   H34       1.0  0.51053  0.51155  0.75138  1.0000
  H   H35       1.0  0.24626  0.7679500000000002  0.74852  1.0000
  H   H36       1.0  0.1509  0.63368  0.7156100000000001  1.0000
  H   H37       1.0  0.12167000000000003  0.68104  0.61801  1.0000
  H   H38       1.0  0.011380000000000008  0.24626000000000006  0.49456  1.0000
  H   H39       1.0  0.07015000000000006  0.38025  0.509  1.0000
  H   H40       1.0  0.9221  0.29302000000000006  0.43695  1.0000
  H   H41       1.0  0.86473  0.5626  0.48825  1.0000
  H   H42       1.0  0.8630399999999998  0.48784  0.56241  1.0000
  H   H43       1.0  0.7508399999999997  0.51201  0.51047  1.0000
  H   H44       1.0  0.9577  0.45031  0.34425  1.0000
  H   H45       1.0  0.08437999999999998  0.52231  0.34747  1.0000
  H   H46       1.0  0.95313  0.46497  0.22845  1.0000
  H   H47       1.0  0.50239  0.8882900000000001  0.55417  1.0000
  H   H48       1.0  0.5637399999999998  0.8360599999999999  0.47886  1.0000
  H   H49       1.0  0.4942999999999999  0.75845  0.52903  1.0000
  H   H50       1.0  0.3068000000000001  0.9279200000000002  0.43854000000000004  1.0000
  H   H51       1.0  0.37259  0.07627000000000002  0.51336  1.0000
  H   H52       1.0  0.2366  0.9927800000000002  0.48596  1.0000
  H   H53       1.0  0.7463299999999998  0.24584  0.7687  1.0000
  H   H54       1.0  0.7172699999999999  0.15308  0.63518  1.0000
  H   H55       1.0  0.6166799999999998  0.12065000000000001  0.67892  1.0000
  H   H56       1.0  0.51337  0.07715  0.37284  1.0000
  H   H57       1.0  0.4377899999999999  0.92876  0.30703  1.0000
  H   H58       1.0  0.48517  0.9935700000000004  0.23692  1.0000
  C   C1        1.0  0.47275  0.7905200000000002  0.05786  1.0000
  C   C2        1.0  0.53427  0.5917  0.32042  1.0000
  C   C3        1.0  0.73416  0.41638000000000003  0.9434800000000001  1.0000
  C   C4        1.0  0.26654  0.20944  0.68145  1.0000
  C   C5        1.0  0.3184899999999999  0.52728  0.58549  1.0000
  C   C6        1.0  0.05579000000000003  0.4717600000000001  0.79057  1.0000
  C   C7        1.0  0.6814799999999998  0.26697000000000004  0.20935000000000004  1.0000
  C   C8        1.0  0.94171  0.7339700000000001  0.41504  1.0000
  C   C9        1.0  0.2106000000000001  0.6774800000000002  0.26736  1.0000
  C   C10       1.0  0.41610999999999976  0.94349  0.73427  1.0000
  C   C11       1.0  0.5849399999999998  0.31895000000000007  0.52806  1.0000
  C   C12       1.0  0.7910499999999998  0.05752  0.47133  1.0000
  C   C13       1.0  0.5282099999999997  0.31977  0.58602  1.0000
  C   C14       1.0  0.47271999999999986  0.057920000000000034  0.79103  1.0000
  C   C15       1.0  0.2647699999999999  0.67872  0.20758  1.0000
  C   C16       1.0  0.7338900000000002  0.9431000000000003  0.41486  1.0000
  C   C17       1.0  0.68089  0.20957000000000006  0.26637  1.0000
  C   C18       1.0  0.9411  0.4135200000000001  0.7328900000000002  1.0000
  C   C19       1.0  0.3185599999999999  0.58436  0.52812  1.0000
  C   C20       1.0  0.056330000000000026  0.79099  0.4738200000000001  1.0000
  C   C21       1.0  0.7911599999999998  0.4735000000000001  0.05783  1.0000
  C   C22       1.0  0.5874399999999997  0.53091  0.32079  1.0000
  C   C23       1.0  0.41490999999999995  0.73371  0.94349  1.0000
  C   C24       1.0  0.20918999999999993  0.26679  0.68237  1.0000
  C   C25       1.0  0.3694  0.61354  0.00014  1.0000
  C   C26       1.0  0.31965000000000005  0.50632  0.99904  1.0000
  C   C27       1.0  0.6318199999999998  0.63096  0.24223000000000006  1.0000
  C   C28       1.0  0.6816099999999998  0.68056  0.18533  1.0000
  C   C29       1.0  0.6137899999999997  0.36994  0.00010000000000000002  1.0000
  C   C30       1.0  0.5071899999999998  0.31891  0.00014  1.0000
  C   C31       1.0  0.38646999999999987  0.3865000000000001  0.75706  1.0000
  C   C32       1.0  0.49283  0.49280000000000007  0.8121100000000001  1.0000
  C   C33       1.0  0.24395999999999995  0.63009  0.63075  1.0000
  C   C34       1.0  0.18794999999999995  0.68098  0.68114  1.0000
  C   C35       1.0  0.9999499999999999  0.36989  0.61401  1.0000
  C   C36       1.0  0.0008899999999999828  0.31957  0.50805  1.0000
  C   C37       1.0  0.7561599999999998  0.38664  0.38622  1.0000
  C   C38       1.0  0.8115199999999999  0.4929  0.4925  1.0000
  C   C39       1.0  0.9996499999999999  0.61452  0.37002  1.0000
  C   C40       1.0  0.9989699999999999  0.5075800000000003  0.31986  1.0000
  C   C41       1.0  0.38608  0.75591  0.3859600000000001  1.0000
  C   C42       1.0  0.4922999999999999  0.81255  0.4926  1.0000
  C   C43       1.0  0.3703599999999999  0.99987  0.61396  1.0000
  C   C44       1.0  0.3188399999999999  0.99927  0.50743  1.0000
  C   C45       1.0  0.6303599999999998  0.24437000000000006  0.63037  1.0000
  C   C46       1.0  0.68059  0.18824999999999995  0.68099  1.0000
  C   C47       1.0  0.6134999999999998  2.000000000001123e-05  0.36965000000000003  1.0000
  C   C48       1.0  0.50681  0.99988  0.3188  1.0000
  N   N1        1.0  0.44346  0.71449  0.09353  1.0000
  N   N2        1.0  0.55997  0.65362  0.27282  1.0000
  N   N3        1.0  0.62217  0.35057  0.90706  1.0000
  N   N4        1.0  0.37855000000000005  0.2851800000000001  0.72843  1.0000
  N   N5        1.0  0.27171  0.55658  0.65062  1.0000
  N   N6        1.0  0.09286999999999998  0.44368000000000013  0.71542  1.0000
  N   N7        1.0  0.7286700000000002  0.3787300000000001  0.28509  1.0000
  N   N8        1.0  0.9060099999999999  0.62249  0.34923  1.0000
  N   N9        1.0  0.28346  0.72517  0.37801  1.0000
  N   N10       1.0  0.3510599999999999  0.9068299999999999  0.62238  1.0000
  N   N11       1.0  0.6497999999999998  0.27169  0.55655  1.0000
  N   N12       1.0  0.71488  0.09331000000000006  0.44233000000000006  1.0000
  N   N13       1.0  0.55734  0.27299  0.6509  1.0000
  N   N14       1.0  0.4435099999999999  0.09343999999999995  0.71496  1.0000
  N   N15       1.0  0.37799  0.7289900000000001  0.285  1.0000
  N   N16       1.0  0.6217499999999999  0.9068700000000002  0.35023000000000004  1.0000
  N   N17       1.0  0.7278199999999998  0.28528  0.37810000000000005  1.0000
  N   N18       1.0  0.9059399999999996  0.34893  0.62137  1.0000
  N   N19       1.0  0.2718499999999999  0.64966  0.55723  1.0000
  N   N20       1.0  0.09288000000000002  0.71546  0.44492  1.0000
  N   N21       1.0  0.7149999999999997  0.44359  0.09341  1.0000
  N   N22       1.0  0.65073  0.55734  0.27055  1.0000
  N   N23       1.0  0.34932000000000013  0.6220100000000002  0.9071800000000001  1.0000
  N   N24       1.0  0.28502999999999995  0.37860000000000005  0.72976  1.0000
