data_image0
_chemical_formula_structural       Er4H24C48O24
_chemical_formula_sum              "Er4 H24 C48 O24"
_cell_length_a       11.22905
_cell_length_b       10.92929
_cell_length_c       18.32743
_cell_angle_alpha    106.0139
_cell_angle_beta     90.16059000000001
_cell_angle_gamma    120.7657

_symmetry_space_group_name_H-M    'P 1'
_symmetry_Int_Tables_number       1

loop_
  _symmetry_equiv_pos_as_xyz
  'x,y,z'

loop_
  _atom_site_type_symbol
  _atom_site_label
  _atom_site_symmetry_multiplicity
  _atom_site_fract_x
  _atom_site_fract_y
  _atom_site_fract_z
  _atom_site_occupancy
  Er  Er1       1.0  0.06027999999999994  0.9936499999999999  0.89992  1.0000
  Er  Er2       1.0  0.06948000000000001  0.006610000000000031  0.60141  1.0000
  Er  Er3       1.0  0.9397  0.0062299999999999925  0.10355999999999999  1.0000
  Er  Er4       1.0  0.9302799999999998  0.9936899999999999  0.4000899999999999  1.0000
  H   H1        1.0  0.3470099999999999  0.3723799999999998  0.21959999999999993  1.0000
  H   H2        1.0  0.57481  0.62208  0.28084  1.0000
  H   H3        1.0  0.48553  0.34602999999999995  0.00078  1.0000
  H   H4        1.0  0.7086399999999999  0.5967599999999998  0.06075  1.0000
  H   H5        1.0  0.96101  0.67156  0.10402  1.0000
  H   H6        1.0  0.07933  0.56794  0.88348  1.0000
  H   H7        1.0  0.9753  0.6288499999999998  0.28124  1.0000
  H   H8        1.0  0.9529300000000002  0.37878  0.22004  1.0000
  H   H9        1.0  0.14076  0.65409  0.50009  1.0000
  H   H10       1.0  0.11157999999999998  0.40248999999999996  0.44021  1.0000
  H   H11       1.0  0.28873  0.3292  0.39649  1.0000
  H   H12       1.0  0.5101  0.43295999999999996  0.61785  1.0000
  H   H13       1.0  0.65285  0.62825  0.78216  1.0000
  H   H14       1.0  0.42552  0.37858  0.7204  1.0000
  H   H15       1.0  0.51267  0.65307  0.0004899999999999998  1.0000
  H   H16       1.0  0.29008999999999996  0.4018499999999999  0.9400899999999999  1.0000
  H   H17       1.0  0.03834999999999994  0.3278099999999999  0.8969599999999999  1.0000
  H   H18       1.0  0.92009  0.43133  0.11744999999999998  1.0000
  H   H19       1.0  0.025099999999999935  0.37111999999999995  0.71878  1.0000
  H   H20       1.0  0.04716999999999983  0.6209299999999996  0.7804999999999997  1.0000
  H   H21       1.0  0.85951  0.34735999999999995  0.50038  1.0000
  H   H22       1.0  0.88895  0.59896  0.56075  1.0000
  H   H23       1.0  0.71118  0.67071  0.60358  1.0000
  H   H24       1.0  0.4898  0.56695  0.38226  1.0000
  C   C1        1.0  0.42802000000000007  0.42204  0.18605  1.0000
  C   C2        1.0  0.55271  0.55974  0.21972  1.0000
  C   C3        1.0  0.041759999999999874  0.7750199999999999  0.9828  1.0000
  C   C4        1.0  0.50629  0.40703999999999996  0.06189999999999999  1.0000
  C   C5        1.0  0.6525099999999999  0.6238999999999999  0.17407999999999996  1.0000
  C   C6        1.0  0.63004  0.54608  0.09528  1.0000
  C   C7        1.0  0.9775800000000001  0.59574  0.058989999999999994  1.0000
  C   C8        1.0  0.40356  0.3465  0.10671  1.0000
  C   C9        1.0  0.044419999999999925  0.5371599999999999  0.9344699999999999  1.0000
  C   C10       1.0  0.78019  0.7778499999999998  0.20938999999999994  1.0000
  C   C11       1.0  0.26367  0.20834999999999995  0.06885  1.0000
  C   C12       1.0  0.022449999999999862  0.6345499999999997  0.9927499999999999  1.0000
  C   C13       1.0  0.006650000000000019  0.57889  0.31485  1.0000
  C   C14       1.0  0.9932099999999999  0.44078999999999996  0.2811799999999999  1.0000
  C   C15       1.0  0.26545  0.22796  0.51894  1.0000
  C   C16       1.0  0.10013999999999987  0.5931499999999997  0.43899999999999995  1.0000
  C   C17       1.0  0.028299999999999978  0.37605999999999995  0.3269899999999999  1.0000
  C   C18       1.0  0.08396  0.45366  0.40569  1.0000
  C   C19       1.0  0.3814099999999999  0.4044899999999999  0.44146999999999986  1.0000
  C   C20       1.0  0.05816999999999988  0.6543399999999998  0.39421  1.0000
  C   C21       1.0  0.50668  0.4632299999999999  0.5665  1.0000
  C   C22       1.0  0.001389999999999994  0.22181  0.29235  1.0000
  C   C23       1.0  0.05770999999999994  0.7932799999999998  0.43247999999999986  1.0000
  C   C24       1.0  0.3870700000000001  0.3667099999999999  0.50825  1.0000
  C   C25       1.0  0.57164  0.57811  0.81554  1.0000
  C   C26       1.0  0.4471299999999999  0.4403099999999998  0.7815799999999999  1.0000
  C   C27       1.0  0.9583000000000002  0.22458  0.01804  1.0000
  C   C28       1.0  0.4923999999999999  0.5920799999999998  0.9394  1.0000
  C   C29       1.0  0.34725  0.37539000000000006  0.82706  1.0000
  C   C30       1.0  0.3689899999999999  0.4528899999999999  0.9057799999999998  1.0000
  C   C31       1.0  0.02175000000000001  0.40365  0.94195  1.0000
  C   C32       1.0  0.5957499999999999  0.6530099999999999  0.8949999999999998  1.0000
  C   C33       1.0  0.9549100000000001  0.46218  0.06645999999999999  1.0000
  C   C34       1.0  0.22015999999999994  0.22117999999999988  0.79164  1.0000
  C   C35       1.0  0.7359  0.79056  0.9334  1.0000
  C   C36       1.0  0.97699  0.3648999999999999  0.008219999999999996  1.0000
  C   C37       1.0  0.9938800000000001  0.42148999999999986  0.68539  1.0000
  C   C38       1.0  0.007139999999999997  0.55939  0.71933  1.0000
  C   C39       1.0  0.7344499999999999  0.7718599999999999  0.48129999999999995  1.0000
  C   C40       1.0  0.9004000000000001  0.40812  0.56148  1.0000
  C   C41       1.0  0.97198  0.6246199999999998  0.6739099999999999  1.0000
  C   C42       1.0  0.91668  0.54763  0.59511  1.0000
  C   C43       1.0  0.61853  0.59528  0.5586  1.0000
  C   C44       1.0  0.9422800000000001  0.3465  0.60605  1.0000
  C   C45       1.0  0.49326000000000003  0.53657  0.4335699999999999  1.0000
  C   C46       1.0  0.99727  0.7781499999999999  0.7095599999999999  1.0000
  C   C47       1.0  0.94218  0.20734999999999998  0.56763  1.0000
  C   C48       1.0  0.61292  0.63302  0.49184  1.0000
  O   O1        1.0  0.24511000000000002  0.14180000000000006  0.99677  1.0000
  O   O2        1.0  0.08940999999999995  0.8107599999999999  0.92399  1.0000
  O   O3        1.0  0.0054899999999999125  0.8525899999999998  0.03266  1.0000
  O   O4        1.0  0.8003999999999998  0.8416599999999997  0.28139999999999993  1.0000
  O   O5        1.0  0.16853  0.16853  0.11079  1.0000
  O   O6        1.0  0.86181  0.83678  0.1641  1.0000
  O   O7        1.0  0.10739999999999988  0.8596399999999998  0.5045699999999997  1.0000
  O   O8        1.0  0.27796999999999994  0.1930699999999999  0.57811  1.0000
  O   O9        1.0  0.1512  0.15117  0.46939999999999993  1.0000
  O   O10       1.0  0.96132  0.15981  0.2199  1.0000
  O   O11       1.0  0.0023499999999998223  0.8343599999999997  0.3911599999999999  1.0000
  O   O12       1.0  0.01997999999999997  0.16089999999999993  0.3379  1.0000
  O   O13       1.0  0.75473  0.8558499999999998  0.00576  1.0000
  O   O14       1.0  0.91055  0.18795  0.07660999999999997  1.0000
  O   O15       1.0  0.99535  0.14836999999999997  0.9678599999999999  1.0000
  O   O16       1.0  0.19912999999999992  0.1601299999999999  0.71924  1.0000
  O   O17       1.0  0.83077  0.8308700000000001  0.89139  1.0000
  O   O18       1.0  0.13995999999999995  0.15930999999999984  0.8365699999999998  1.0000
  O   O19       1.0  0.89214  0.14137999999999998  0.49557  1.0000
  O   O20       1.0  0.72162  0.8067899999999999  0.4222  1.0000
  O   O21       1.0  0.84894  0.8489  0.53073  1.0000
  O   O22       1.0  0.03285000000000001  0.8372  0.7821399999999997  1.0000
  O   O23       1.0  0.99719  0.16525  0.60846  1.0000
  O   O24       1.0  0.9810099999999999  0.8411599999999999  0.66438  1.0000
