data_image0
_chemical_formula_structural       Cu4H32C56O16
_chemical_formula_sum              "Cu4 H32 C56 O16"
_cell_length_a       12.86637
_cell_length_b       14.524419999999997
_cell_length_c       14.521120000000002
_cell_angle_alpha    78.57286999999998
_cell_angle_beta     63.59449000000001
_cell_angle_gamma    63.56622000000001

_symmetry_space_group_name_H-M    'P 1'
_symmetry_Int_Tables_number       1

loop_
  _symmetry_equiv_pos_as_xyz
  'x,y,z'

loop_
  _atom_site_type_symbol
  _atom_site_label
  _atom_site_symmetry_multiplicity
  _atom_site_fract_x
  _atom_site_fract_y
  _atom_site_fract_z
  _atom_site_occupancy
  Cu  Cu1       1.0  0.06219000000000004  0.59132  0.47774999999999995  1.0000
  Cu  Cu2       1.0  0.13414000000000006  0.4082399999999999  0.51925  1.0000
  Cu  Cu3       1.0  0.9031900000000003  0.9801399999999998  0.90941  1.0000
  Cu  Cu4       1.0  0.78984  0.02154  0.09226  1.0000
  H   H1        1.0  0.1209  0.27001  0.30432  1.0000
  H   H2        1.0  0.10085999999999999  0.21925999999999995  0.16092  1.0000
  H   H3        1.0  0.9202999999999998  0.5393  0.09277999999999999  1.0000
  H   H4        1.0  0.9478700000000001  0.58862  0.23245  1.0000
  H   H5        1.0  0.02739000000000008  0.4702899999999999  0.9320699999999997  1.0000
  H   H6        1.0  0.007440000000000046  0.4175699999999999  0.79024  1.0000
  H   H7        1.0  0.96697  0.26144  0.80825  1.0000
  H   H8        1.0  0.9539  0.21536  0.11382999999999999  1.0000
  H   H9        1.0  0.69364  0.72984  0.6966499999999999  1.0000
  H   H10       1.0  0.48057000000000005  0.7795199999999998  0.8413099999999998  1.0000
  H   H11       1.0  0.5538399999999999  0.4591999999999999  0.90772  1.0000
  H   H12       1.0  0.7694600000000003  0.4105299999999999  0.7669399999999998  1.0000
  H   H13       1.0  0.4287199999999999  0.5284  0.0703  1.0000
  H   H14       1.0  0.21377  0.5814  0.21172999999999997  1.0000
  H   H15       1.0  0.03475  0.73768  0.19427  1.0000
  H   H16       1.0  0.28190000000000004  0.78395  0.8885899999999999  1.0000
  H   H17       1.0  0.6407  0.80389  0.22972999999999993  1.0000
  H   H18       1.0  0.5717699999999998  0.65948  0.27949  1.0000
  H   H19       1.0  0.71176  0.59339  0.9590299999999998  1.0000
  H   H20       1.0  0.7871900000000001  0.7338699999999999  0.9105599999999999  1.0000
  H   H21       1.0  0.74979  0.43175  0.0274  1.0000
  H   H22       1.0  0.67707  0.28988  0.08021999999999999  1.0000
  H   H23       1.0  0.48088  0.30716  0.23663999999999996  1.0000
  H   H24       1.0  0.4214599999999999  0.6125399999999999  0.28357  1.0000
  H   H25       1.0  0.6741100000000001  0.19633999999999993  0.77001  1.0000
  H   H26       1.0  0.51085  0.34017999999999987  0.71923  1.0000
  H   H27       1.0  0.26174999999999987  0.40848  0.03924999999999999  1.0000
  H   H28       1.0  0.4286799999999999  0.26824  0.08862999999999997  1.0000
  H   H29       1.0  0.20750000000000005  0.5700099999999998  0.96931  1.0000
  H   H30       1.0  0.045610000000000164  0.71138  0.9162699999999999  1.0000
  H   H31       1.0  0.022980000000000222  0.6931599999999998  0.7603099999999998  1.0000
  H   H32       1.0  0.31606  0.38726999999999995  0.71513  1.0000
  C   C1        1.0  0.051160000000000115  0.4595299999999999  0.3618499999999999  1.0000
  C   C2        1.0  0.035550000000000026  0.43215999999999993  0.27698  1.0000
  C   C3        1.0  0.07758000000000004  0.32788999999999996  0.25711  1.0000
  C   C4        1.0  0.06509  0.30018  0.1775  1.0000
  C   C5        1.0  0.008830000000000025  0.3755999999999999  0.11667999999999999  1.0000
  C   C6        1.0  0.96684  0.47997999999999996  0.13733  1.0000
  C   C7        1.0  0.9807599999999999  0.50809  0.21614  1.0000
  C   C8        1.0  0.99571  0.34524  0.03245  1.0000
  C   C9        1.0  0.0077800000000001895  0.4027899999999999  0.9409599999999998  1.0000
  C   C10       1.0  0.9973200000000002  0.37314999999999987  0.8608299999999999  1.0000
  C   C11       1.0  0.9748500000000001  0.28556999999999994  0.87023  1.0000
  C   C12       1.0  0.9599299999999998  0.22871  0.96179  1.0000
  C   C13       1.0  0.9698400000000001  0.2587  0.04239  1.0000
  C   C14       1.0  0.9256699999999998  0.14012  0.97583  1.0000
  C   C15       1.0  0.8728700000000001  0.53978  0.63673  1.0000
  C   C16       1.0  0.7448199999999999  0.56716  0.72253  1.0000
  C   C17       1.0  0.6620500000000002  0.6713399999999998  0.74353  1.0000
  C   C18       1.0  0.5424000000000001  0.6986599999999997  0.8240099999999999  1.0000
  C   C19       1.0  0.5009299999999997  0.6231499999999998  0.8848  1.0000
  C   C20       1.0  0.58475  0.51891  0.8632399999999999  1.0000
  C   C21       1.0  0.7054999999999999  0.49111999999999995  0.78359  1.0000
  C   C22       1.0  0.3727700000000001  0.65357  0.9694699999999998  1.0000
  C   C23       1.0  0.35061  0.59605  0.06103  1.0000
  C   C24       1.0  0.22990000000000013  0.6258399999999998  0.14116  1.0000
  C   C25       1.0  0.12890999999999997  0.71367  0.13204  1.0000
  C   C26       1.0  0.14876000000000003  0.7708299999999998  0.04064  1.0000
  C   C27       1.0  0.2698000000000001  0.74043  0.9599199999999998  1.0000
  C   C28       1.0  0.03997999999999998  0.86048  0.026749999999999993  1.0000
  C   C29       1.0  0.76056  0.8628599999999998  0.04019  1.0000
  C   C30       1.0  0.71795  0.77765  0.06729  1.0000
  C   C31       1.0  0.65579  0.7569999999999999  0.17145  1.0000
  C   C32       1.0  0.6164700000000001  0.6768399999999998  0.19865999999999998  1.0000
  C   C33       1.0  0.63609  0.61633  0.12290999999999999  1.0000
  C   C34       1.0  0.6983500000000001  0.6377699999999997  0.01866  1.0000
  C   C35       1.0  0.7396400000000002  0.7170699999999998  0.99104  1.0000
  C   C36       1.0  0.59302  0.53178  0.15304  1.0000
  C   C37       1.0  0.66264  0.44052999999999987  0.09513999999999999  1.0000
  C   C38       1.0  0.6225899999999999  0.36033  0.12478999999999997  1.0000
  C   C39       1.0  0.51269  0.3692799999999999  0.21274999999999997  1.0000
  C   C40       1.0  0.44081  0.4606  0.27  1.0000
  C   C41       1.0  0.4807299999999999  0.54126  0.23996999999999993  1.0000
  C   C42       1.0  0.31771000000000005  0.4745099999999999  0.35885999999999996  1.0000
  C   C43       1.0  0.6621599999999997  0.13832  0.96014  1.0000
  C   C44       1.0  0.56148  0.22346  0.93237  1.0000
  C   C45       1.0  0.58358  0.24353999999999998  0.8280599999999999  1.0000
  C   C46       1.0  0.49141  0.32347  0.8002  1.0000
  C   C47       1.0  0.37407999999999997  0.3845499999999999  0.87542  1.0000
  C   C48       1.0  0.3527600000000003  0.36377  0.97982  1.0000
  C   C49       1.0  0.44555000000000006  0.28459999999999996  0.00804  1.0000
  C   C50       1.0  0.27657000000000004  0.4688799999999999  0.84475  1.0000
  C   C51       1.0  0.19697  0.56062  0.9019  1.0000
  C   C52       1.0  0.10615999999999999  0.6407  0.87202  1.0000
  C   C53       1.0  0.09302000000000013  0.6310999999999999  0.78453  1.0000
  C   C54       1.0  0.1699199999999998  0.53942  0.72789  1.0000
  C   C55       1.0  0.26053  0.4587999999999999  0.75829  1.0000
  C   C56       1.0  0.15065000000000017  0.5252499999999999  0.6387299999999998  1.0000
  O   O1        1.0  0.03923000000000009  0.55142  0.3654699999999999  1.0000
  O   O2        1.0  0.07747000000000002  0.3870499999999999  0.42541  1.0000
  O   O3        1.0  0.87083  0.11478999999999998  0.06912  1.0000
  O   O4        1.0  0.9495399999999999  0.09814999999999997  0.8950499999999999  1.0000
  O   O5        1.0  0.95753  0.44826  0.63319  1.0000
  O   O6        1.0  0.8893600000000002  0.6120299999999999  0.57241  1.0000
  O   O7        1.0  0.054150000000000004  0.8874499999999999  0.9335799999999999  1.0000
  O   O8        1.0  0.9400400000000002  0.9022099999999997  0.10726  1.0000
  O   O9        1.0  0.8420099999999999  0.86616  0.94877  1.0000
  O   O10       1.0  0.71255  0.9270899999999997  0.11240999999999998  1.0000
  O   O11       1.0  0.23723999999999992  0.5678  0.38435  1.0000
  O   O12       1.0  0.29958000000000007  0.39376999999999995  0.40097999999999995  1.0000
  O   O13       1.0  0.6545800000000003  0.13484  0.05178  1.0000
  O   O14       1.0  0.7518  0.07408999999999999  0.88808  1.0000
  O   O15       1.0  0.19159999999999996  0.43194999999999995  0.61223  1.0000
  O   O16       1.0  0.09234999999999997  0.60582  0.59713  1.0000
