data_image0
_chemical_formula_structural       Cu4H24C52N12O16
_chemical_formula_sum              "Cu4 H24 C52 N12 O16"
_cell_length_a       4.51562
_cell_length_b       9.50173
_cell_length_c       24.519440000000003
_cell_angle_alpha    90.03833000000002
_cell_angle_beta     90.1463
_cell_angle_gamma    82.78045

_symmetry_space_group_name_H-M    'P 1'
_symmetry_Int_Tables_number       1

loop_
  _symmetry_equiv_pos_as_xyz
  'x,y,z'

loop_
  _atom_site_type_symbol
  _atom_site_label
  _atom_site_symmetry_multiplicity
  _atom_site_fract_x
  _atom_site_fract_y
  _atom_site_fract_z
  _atom_site_occupancy
  Cu  Cu1       1.0  0.66886  0.07422  0.8276099999999998  1.0000
  Cu  Cu2       1.0  0.3328  0.40102  0.32636  1.0000
  Cu  Cu3       1.0  0.32783000000000007  0.90251  0.17232  1.0000
  Cu  Cu4       1.0  0.6732700000000001  0.5708899999999999  0.67377  1.0000
  H   H1        1.0  0.49491000000000007  0.9925899999999999  0.71151  1.0000
  H   H2        1.0  0.72388  0.03529  0.61968  1.0000
  H   H3        1.0  0.33104999999999996  0.27061  0.90346  1.0000
  H   H4        1.0  0.7235099999999999  0.85434  0.91321  1.0000
  H   H5        1.0  0.54011  0.68253  0.9826799999999998  1.0000
  H   H6        1.0  0.8545800000000001  0.35556  0.9552099999999999  1.0000
  H   H7        1.0  0.50496  0.48324999999999996  0.20955  1.0000
  H   H8        1.0  0.2696700000000001  0.44122  0.11808999999999997  1.0000
  H   H9        1.0  0.67608  0.20425  0.40203  1.0000
  H   H10       1.0  0.27584  0.61897  0.4128999999999999  1.0000
  H   H11       1.0  0.45568999999999993  0.7902  0.48356999999999994  1.0000
  H   H12       1.0  0.15526  0.12053  0.4533  1.0000
  H   H13       1.0  0.51582  0.9786399999999998  0.28837  1.0000
  H   H14       1.0  0.28242  0.93949  0.38  1.0000
  H   H15       1.0  0.66161  0.70889  0.09661  1.0000
  H   H16       1.0  0.26712  0.12482999999999998  0.08674999999999997  1.0000
  H   H17       1.0  0.45117  0.297  0.01713  1.0000
  H   H18       1.0  0.13714  0.62393  0.04476999999999999  1.0000
  H   H19       1.0  0.4898499999999999  0.49356  0.7898099999999998  1.0000
  H   H20       1.0  0.72216  0.53454  0.88152  1.0000
  H   H21       1.0  0.33528  0.76476  0.59795  1.0000
  H   H22       1.0  0.73573  0.34999  0.58724  1.0000
  H   H23       1.0  0.55642  0.17876  0.51627  1.0000
  H   H24       1.0  0.85804  0.84888  0.5462  1.0000
  C   C1        1.0  0.05226999999999999  0.26973  0.80211  1.0000
  C   C2        1.0  0.99063  0.20333  0.74777  1.0000
  C   C3        1.0  0.65456  0.06787  0.70632  1.0000
  C   C4        1.0  0.79594  0.08718  0.65605  1.0000
  C   C5        1.0  0.11683  0.22829  0.69609  1.0000
  C   C6        1.0  0.24919  0.3641  0.6805  1.0000
  C   C7        1.0  0.33038  0.16986  0.9244399999999999  1.0000
  C   C8        1.0  0.54734  0.9331599999999999  0.9286099999999999  1.0000
  C   C9        1.0  0.3397200000000001  0.8990399999999998  0.96786  1.0000
  C   C10       1.0  0.10070000000000001  0.14700999999999997  0.95999  1.0000
  C   C11       1.0  0.10717999999999998  0.00516  0.9821099999999998  1.0000
  C   C12       1.0  0.35354  0.76158  0.99292  1.0000
  C   C13       1.0  0.8650199999999999  0.25102  0.97366  1.0000
  C   C14       1.0  0.95006  0.20565  0.30006  1.0000
  C   C15       1.0  0.010360000000000003  0.27288  0.24610999999999994  1.0000
  C   C16       1.0  0.34537  0.4077199999999999  0.20456  1.0000
  C   C17       1.0  0.1999  0.38882  0.15442999999999998  1.0000
  C   C18       1.0  0.87961  0.24841999999999997  0.19473  1.0000
  C   C19       1.0  0.7497200000000002  0.11131999999999999  0.17968999999999993  1.0000
  C   C20       1.0  0.67525  0.30482  0.42328  1.0000
  C   C21       1.0  0.45335999999999993  0.5406  0.42824999999999996  1.0000
  C   C22       1.0  0.6596000000000001  0.57454  0.46806  1.0000
  C   C23       1.0  0.90419  0.32774  0.45917  1.0000
  C   C24       1.0  0.89423  0.46896  0.48208  1.0000
  C   C25       1.0  0.64359  0.71157  0.49363  1.0000
  C   C26       1.0  0.14215999999999998  0.2243  0.47251  1.0000
  C   C27       1.0  0.94793  0.70587  0.19784999999999997  1.0000
  C   C28       1.0  0.015079999999999993  0.77036  0.25222  1.0000
  C   C29       1.0  0.35543  0.9038199999999998  0.29359  1.0000
  C   C30       1.0  0.21158  0.8864  0.34382999999999997  1.0000
  C   C31       1.0  0.8893600000000003  0.74578  0.30392  1.0000
  C   C32       1.0  0.761  0.60946  0.31986  1.0000
  C   C33       1.0  0.66167  0.80957  0.07554  1.0000
  C   C34       1.0  0.44375  0.04623  0.07135  1.0000
  C   C35       1.0  0.65164  0.08051999999999998  0.03215  1.0000
  C   C36       1.0  0.8912  0.8325399999999998  0.04001  1.0000
  C   C37       1.0  0.8843400000000001  0.9744399999999999  0.017909999999999995  1.0000
  C   C38       1.0  0.63796  0.21793999999999997  0.00702  1.0000
  C   C39       1.0  0.12679  0.72849  0.02633  1.0000
  C   C40       1.0  0.05158000000000001  0.7687  0.6998599999999999  1.0000
  C   C41       1.0  0.9873  0.7032199999999998  0.75399  1.0000
  C   C42       1.0  0.64929  0.569  0.7951  1.0000
  C   C43       1.0  0.7927699999999999  0.58761  0.8454099999999999  1.0000
  C   C44       1.0  0.11333000000000001  0.7287499999999999  0.80567  1.0000
  C   C45       1.0  0.24031999999999992  0.86642  0.82074  1.0000
  C   C46       1.0  0.33613  0.66415  0.57671  1.0000
  C   C47       1.0  0.55806  0.42832  0.57189  1.0000
  C   C48       1.0  0.35139  0.39413  0.5321799999999999  1.0000
  C   C49       1.0  0.10708000000000002  0.6411  0.54089  1.0000
  C   C50       1.0  0.11646999999999998  0.49963  0.51821  1.0000
  C   C51       1.0  0.36791000000000007  0.25725999999999993  0.50642  1.0000
  C   C52       1.0  0.8698400000000001  0.7446899999999999  0.52738  1.0000
  N   N1        1.0  0.77259  0.11977  0.75124  1.0000
  N   N2        1.0  0.018089999999999995  0.16387  0.65098  1.0000
  N   N3        1.0  0.53111  0.061779999999999995  0.90576  1.0000
  N   N4        1.0  0.22917999999999997  0.35605  0.24959  1.0000
  N   N5        1.0  0.97583  0.3131  0.14953999999999998  1.0000
  N   N6        1.0  0.47219  0.41251  0.4048499999999999  1.0000
  N   N7        1.0  0.23488000000000006  0.8529399999999999  0.24869999999999995  1.0000
  N   N8        1.0  0.98705  0.81128  0.34889  1.0000
  N   N9        1.0  0.46038  0.9175199999999999  0.09413999999999997  1.0000
  N   N10       1.0  0.7683599999999999  0.62016  0.7502799999999997  1.0000
  N   N11       1.0  0.01567999999999999  0.66392  0.85068  1.0000
  N   N12       1.0  0.53907  0.55655  0.59519  1.0000
  O   O1        1.0  0.87176  0.24350999999999998  0.8408999999999998  1.0000
  O   O2        1.0  0.25175  0.34829  0.8070399999999999  1.0000
  O   O3        1.0  0.48705000000000015  0.4002199999999999  0.70148  1.0000
  O   O4        1.0  0.08502  0.43469  0.6461099999999999  1.0000
  O   O5        1.0  0.13303  0.23002  0.33886  1.0000
  O   O6        1.0  0.74866  0.12815  0.3046  1.0000
  O   O7        1.0  0.51529  0.07239  0.20083999999999996  1.0000
  O   O8        1.0  0.9161500000000001  0.04231  0.14535  1.0000
  O   O9        1.0  0.12763  0.7319  0.1589  1.0000
  O   O10       1.0  0.74536  0.6289099999999999  0.19303  1.0000
  O   O11       1.0  0.52584  0.57059  0.29887  1.0000
  O   O12       1.0  0.9284599999999997  0.54183  0.35455999999999993  1.0000
  O   O13       1.0  0.8714999999999999  0.74228  0.6608799999999998  1.0000
  O   O14       1.0  0.25121  0.84719  0.69534  1.0000
  O   O15       1.0  0.47334000000000004  0.9061200000000001  0.79939  1.0000
  O   O16       1.0  0.07241  0.9353  0.8549599999999999  1.0000
