data_image0
_chemical_formula_structural       Lu4Cu2H16C48N16O32
_chemical_formula_sum              "Lu4 Cu2 H16 C48 N16 O32"
_cell_length_a       5.8277
_cell_length_b       12.43539
_cell_length_c       23.75437
_cell_angle_alpha    89.99502
_cell_angle_beta     90.01742
_cell_angle_gamma    96.18553999999999

_space_group_name_H-M_alt    "P 1"
_space_group_IT_number       1

loop_
  _space_group_symop_operation_xyz
  'x, y, z'

loop_
  _atom_site_type_symbol
  _atom_site_label
  _atom_site_symmetry_multiplicity
  _atom_site_fract_x
  _atom_site_fract_y
  _atom_site_fract_z
  _atom_site_occupancy
  Lu  Lu1       1.0  0.022939999999999988  0.61899  0.67766  1.0000
  Lu  Lu2       1.0  0.47679999999999995  0.88342  0.17743000000000003  1.0000
  Lu  Lu3       1.0  0.9770599999999998  0.381  0.32234  1.0000
  Lu  Lu4       1.0  0.5232  0.11658999999999999  0.8225800000000001  1.0000
  Cu  Cu1       1.0  0.4999799999999998  0.9999899999999999  0.50001  1.0000
  Cu  Cu2       1.0  0.0  0.5  0.0  1.0000
  H   H1        1.0  0.37217  0.93537  0.70041  1.0000
  H   H2        1.0  0.5287  0.77191  0.6567500000000001  1.0000
  H   H3        1.0  0.6719499999999999  0.15503  0.6016000000000001  1.0000
  H   H4        1.0  0.9630899999999999  0.12752  0.6777300000000002  1.0000
  H   H5        1.0  0.12716  0.56445  0.20072000000000004  1.0000
  H   H6        1.0  0.97276  0.7288  0.15699  1.0000
  H   H7        1.0  0.8265299999999999  0.34627  0.10150000000000003  1.0000
  H   H8        1.0  0.5348999999999999  0.37263  0.17750000000000002  1.0000
  H   H9        1.0  0.62782  0.06462  0.29959  1.0000
  H   H10       1.0  0.47129  0.22807999999999998  0.34325000000000006  1.0000
  H   H11       1.0  0.32804  0.84496  0.3984  1.0000
  H   H12       1.0  0.03690999999999998  0.8724699999999999  0.32227  1.0000
  H   H13       1.0  0.8728599999999999  0.43553999999999987  0.79928  1.0000
  H   H14       1.0  0.02727  0.27118  0.8430100000000001  1.0000
  H   H15       1.0  0.17347  0.65371  0.8985  1.0000
  H   H16       1.0  0.46511  0.6273699999999999  0.8225  1.0000
  C   C1        1.0  0.10818999999999995  0.77225  0.78363  1.0000
  C   C2        1.0  0.914  0.82719  0.7567100000000002  1.0000
  C   C3        1.0  0.8424499999999998  0.92484  0.77583  1.0000
  C   C4        1.0  0.98552  0.0096  0.81006  1.0000
  C   C5        1.0  0.52843  0.90444  0.7163900000000002  1.0000
  C   C6        1.0  0.6128699999999998  0.8127699999999998  0.69293  1.0000
  C   C7        1.0  0.18063  0.82636  0.59352  1.0000
  C   C8        1.0  0.03687  0.9202499999999999  0.5968  1.0000
  C   C9        1.0  0.87162  0.9334899999999999  0.55557  1.0000
  C   C10       1.0  0.82394  0.8561799999999998  0.5068900000000001  1.0000
  C   C11       1.0  0.77733  0.08792999999999997  0.60098  1.0000
  C   C12       1.0  0.94167  0.07197  0.6421900000000001  1.0000
  C   C13       1.0  0.38996  0.7290899999999998  0.28322  1.0000
  C   C14       1.0  0.5845399999999998  0.67324  0.25681  1.0000
  C   C15       1.0  0.65652  0.57538  0.27592  1.0000
  C   C16       1.0  0.51493  0.48976  0.30985  1.0000
  C   C17       1.0  0.97077  0.59577  0.21637000000000003  1.0000
  C   C18       1.0  0.88722  0.68782  0.19309000000000004  1.0000
  C   C19       1.0  0.31920999999999994  0.67459  0.09346  1.0000
  C   C20       1.0  0.46271  0.58056  0.09709000000000001  1.0000
  C   C21       1.0  0.6278200000000002  0.56743  0.05575000000000001  1.0000
  C   C22       1.0  0.6737  0.64405  0.006710000000000001  1.0000
  C   C23       1.0  0.7229699999999999  0.41379  0.10136  1.0000
  C   C24       1.0  0.5580499999999999  0.42915  0.14244  1.0000
  C   C25       1.0  0.8918  0.22774999999999998  0.21637000000000003  1.0000
  C   C26       1.0  0.08598999999999997  0.1728  0.24329000000000006  1.0000
  C   C27       1.0  0.15753  0.07515  0.22416  1.0000
  C   C28       1.0  0.014459999999999923  0.9903899999999998  0.18992  1.0000
  C   C29       1.0  0.47155  0.09556  0.28361  1.0000
  C   C30       1.0  0.3871199999999999  0.18721999999999997  0.30707000000000007  1.0000
  C   C31       1.0  0.81936  0.17363  0.40648000000000006  1.0000
  C   C32       1.0  0.9631299999999998  0.07974  0.4032000000000001  1.0000
  C   C33       1.0  0.12837  0.0665  0.44443000000000005  1.0000
  C   C34       1.0  0.17605  0.14381  0.49311000000000005  1.0000
  C   C35       1.0  0.22266999999999995  0.9120599999999999  0.3990200000000001  1.0000
  C   C36       1.0  0.05832999999999993  0.9280299999999999  0.35781  1.0000
  C   C37       1.0  0.61004  0.2709  0.7167600000000001  1.0000
  C   C38       1.0  0.41546  0.32676  0.7431900000000001  1.0000
  C   C39       1.0  0.34345999999999993  0.42462  0.7240800000000001  1.0000
  C   C40       1.0  0.48507999999999996  0.5102399999999999  0.6901400000000001  1.0000
  C   C41       1.0  0.029239999999999985  0.40422  0.78362  1.0000
  C   C42       1.0  0.11279999999999997  0.31217  0.80691  1.0000
  C   C43       1.0  0.68077  0.32535  0.9065500000000001  1.0000
  C   C44       1.0  0.53732  0.41941  0.9029100000000001  1.0000
  C   C45       1.0  0.37217  0.43255  0.9442400000000002  1.0000
  C   C46       1.0  0.32628  0.35593  0.9932800000000003  1.0000
  C   C47       1.0  0.27703999999999995  0.5862  0.8986400000000002  1.0000
  C   C48       1.0  0.44194  0.57083  0.8575600000000001  1.0000
  N   N1        1.0  0.7976999999999997  0.7715  0.7147900000000003  1.0000
  N   N2        1.0  0.64098  0.9585799999999998  0.75877  1.0000
  N   N3        1.0  0.06997999999999997  0.9881  0.64107  1.0000
  N   N4        1.0  0.743  0.01642  0.55874  1.0000
  N   N5        1.0  0.70289  0.7291299999999997  0.21524000000000004  1.0000
  N   N6        1.0  0.858  0.54188  0.25876  1.0000
  N   N7        1.0  0.43042999999999987  0.51323  0.14161  1.0000
  N   N8        1.0  0.75863  0.48536  0.059220000000000016  1.0000
  N   N9        1.0  0.20227999999999996  0.22848999999999997  0.28522  1.0000
  N   N10       1.0  0.35901  0.04141  0.24123000000000006  1.0000
  N   N11       1.0  0.93002  0.011889999999999996  0.35893  1.0000
  N   N12       1.0  0.25698999999999994  0.9835699999999998  0.4412600000000001  1.0000
  N   N13       1.0  0.29712  0.27087  0.78476  1.0000
  N   N14       1.0  0.14198999999999998  0.4581299999999999  0.74124  1.0000
  N   N15       1.0  0.56954  0.4867299999999999  0.85839  1.0000
  N   N16       1.0  0.24135999999999994  0.51463  0.9407800000000002  1.0000
  O   O1        1.0  0.16985  0.69188  0.75361  1.0000
  O   O2        1.0  0.18613  0.80132  0.8299100000000003  1.0000
  O   O3        1.0  0.8748899999999995  0.07471  0.8373200000000002  1.0000
  O   O4        1.0  0.20218999999999998  0.020169999999999997  0.8038900000000002  1.0000
  O   O5        1.0  0.37765  0.83873  0.57425  1.0000
  O   O6        1.0  0.08601  0.73797  0.6178500000000001  1.0000
  O   O7        1.0  0.93442  0.77673  0.50405  1.0000
  O   O8        1.0  0.6713199999999999  0.8835999999999998  0.47125  1.0000
  O   O9        1.0  0.33127  0.80975  0.25275  1.0000
  O   O10       1.0  0.30815999999999993  0.6996499999999999  0.32897  1.0000
  O   O11       1.0  0.62487  0.42392  0.3369500000000001  1.0000
  O   O12       1.0  0.29801  0.48016  0.30427  1.0000
  O   O13       1.0  0.12414  0.66295  0.07297000000000001  1.0000
  O   O14       1.0  0.4135999999999999  0.7624399999999999  0.11836000000000002  1.0000
  O   O15       1.0  0.56777  0.72509  0.004570000000000001  1.0000
  O   O16       1.0  0.82056  0.61387  0.9702900000000001  1.0000
  O   O17       1.0  0.83014  0.30812  0.24639000000000003  1.0000
  O   O18       1.0  0.81387  0.19868999999999998  0.17009  1.0000
  O   O19       1.0  0.12512  0.92529  0.16266  1.0000
  O   O20       1.0  0.7978099999999999  0.9798199999999999  0.19611  1.0000
  O   O21       1.0  0.62235  0.16126  0.42575000000000013  1.0000
  O   O22       1.0  0.91398  0.26203  0.38215  1.0000
  O   O23       1.0  0.06557999999999999  0.22325999999999993  0.49595  1.0000
  O   O24       1.0  0.32867  0.11638999999999998  0.52875  1.0000
  O   O25       1.0  0.6686900000000001  0.19023  0.74724  1.0000
  O   O26       1.0  0.6917699999999999  0.30033  0.6710100000000001  1.0000
  O   O27       1.0  0.37513  0.57609  0.66306  1.0000
  O   O28       1.0  0.7019899999999999  0.51984  0.6957300000000001  1.0000
  O   O29       1.0  0.8757799999999999  0.33694999999999997  0.9270400000000001  1.0000
  O   O30       1.0  0.58624  0.23753999999999997  0.8816400000000002  1.0000
  O   O31       1.0  0.43222  0.27489  0.9954400000000002  1.0000
  O   O32       1.0  0.17944  0.38612  0.029700000000000004  1.0000
