data_image0
_chemical_formula_structural       Cd4H50C64N8O12
_chemical_formula_sum              "Cd4 H50 C64 N8 O12"
_cell_length_a       11.26528
_cell_length_b       11.266020000000001
_cell_length_c       12.42928
_cell_angle_alpha    93.29856
_cell_angle_beta     93.28072
_cell_angle_gamma    100.24559

_symmetry_space_group_name_H-M    'P 1'
_symmetry_Int_Tables_number       1

loop_
  _symmetry_equiv_pos_as_xyz
  'x,y,z'

loop_
  _atom_site_type_symbol
  _atom_site_label
  _atom_site_symmetry_multiplicity
  _atom_site_fract_x
  _atom_site_fract_y
  _atom_site_fract_z
  _atom_site_occupancy
  Cd  Cd1       1.0  0.21477999999999994  0.62218  0.85835  1.0000
  Cd  Cd2       1.0  0.26736  0.8869  0.61513  1.0000
  Cd  Cd3       1.0  0.6222299999999997  0.21458999999999998  0.36149  1.0000
  Cd  Cd4       1.0  0.8879299999999999  0.26821  0.11551  1.0000
  H   H1        1.0  0.62102  0.02549000000000001  0.9637300000000001  1.0000
  H   H2        1.0  0.5056  0.91064  0.90216  1.0000
  H   H3        1.0  0.5344899999999999  0.9215400000000001  0.04465  1.0000
  H   H4        1.0  0.3529699999999999  0.43258  0.08116  1.0000
  H   H5        1.0  0.50523  0.4312  0.05311  1.0000
  H   H6        1.0  0.45199  0.37637999999999994  0.17382  1.0000
  H   H7        1.0  0.04492  0.10681000000000002  0.91529  1.0000
  H   H8        1.0  0.05910999999999998  0.9728399999999999  0.9782  1.0000
  H   H9        1.0  0.09578999999999996  0.98716  0.8431  1.0000
  H   H10       1.0  0.03119999999999999  0.7762  0.89441  1.0000
  H   H11       1.0  0.81387  0.76768  0.91089  1.0000
  H   H12       1.0  0.7673699999999998  0.37614999999999993  0.8667300000000001  1.0000
  H   H13       1.0  0.9903399999999996  0.4025  0.85125  1.0000
  H   H14       1.0  0.65937  0.73988  0.9912099999999999  1.0000
  H   H15       1.0  0.43976  0.73974  0.9848500000000001  1.0000
  H   H16       1.0  0.35862  0.39842  0.8285399999999999  1.0000
  H   H17       1.0  0.57596  0.38466  0.82113  1.0000
  H   H18       1.0  0.43633999999999995  0.7278799999999999  0.69029  1.0000
  H   H19       1.0  0.65483  0.72523  0.71387  1.0000
  H   H20       1.0  0.72002  0.10266999999999998  0.63709  1.0000
  H   H21       1.0  0.4967199999999999  0.08833  0.61959  1.0000
  H   H22       1.0  0.8173399999999998  0.7128  0.66281  1.0000
  H   H23       1.0  0.03242  0.71269  0.63992  1.0000
  H   H24       1.0  0.11533999999999997  0.08736  0.65595  1.0000
  H   H25       1.0  0.90258  0.10561  0.6829  1.0000
  H   H26       1.0  0.02524000000000003  0.62099  0.4614  1.0000
  H   H27       1.0  0.9102299999999999  0.5049299999999999  0.40123  1.0000
  H   H28       1.0  0.92144  0.53601  0.54339  1.0000
  H   H29       1.0  0.43289  0.35609  0.58332  1.0000
  H   H30       1.0  0.43014  0.5076  0.55304  1.0000
  H   H31       1.0  0.37577999999999995  0.45598999999999995  0.6744000000000001  1.0000
  H   H32       1.0  0.10761999999999998  0.04523  0.41884  1.0000
  H   H33       1.0  0.9716899999999998  0.059480000000000005  0.47847  1.0000
  H   H34       1.0  0.9899399999999998  0.09594999999999998  0.34375  1.0000
  H   H35       1.0  0.77654  0.03099  0.39596  1.0000
  H   H36       1.0  0.76804  0.8135399999999999  0.41136  1.0000
  H   H37       1.0  0.3765199999999999  0.76695  0.36593  1.0000
  H   H38       1.0  0.40286  0.99003  0.3515499999999999  1.0000
  H   H39       1.0  0.7402699999999998  0.65946  0.49113  1.0000
  H   H40       1.0  0.7395699999999998  0.43987  0.48643  1.0000
  H   H41       1.0  0.39861  0.35816  0.32949  1.0000
  H   H42       1.0  0.3850899999999999  0.5755  0.32087  1.0000
  H   H43       1.0  0.72865  0.4371399999999999  0.19161  1.0000
  H   H44       1.0  0.7258799999999997  0.65568  0.21449  1.0000
  H   H45       1.0  0.1028  0.72072  0.13566  1.0000
  H   H46       1.0  0.08866999999999998  0.49766999999999995  0.11889  1.0000
  H   H47       1.0  0.7132799999999998  0.81846  0.16374  1.0000
  H   H48       1.0  0.7134099999999998  0.03373  0.14137  1.0000
  H   H49       1.0  0.08805999999999999  0.1158  0.15517  1.0000
  H   H50       1.0  0.10626999999999998  0.90306  0.18164  1.0000
  C   C1        1.0  0.27614  0.8778  0.92851  1.0000
  C   C2        1.0  0.31638  0.012399999999999993  0.9562  1.0000
  C   C3        1.0  0.43979  0.05742  0.98415  1.0000
  C   C4        1.0  0.5304399999999999  0.9745099999999999  0.9732  1.0000
  C   C5        1.0  0.47477  0.17826  0.026230000000000003  1.0000
  C   C6        1.0  0.60479  0.22059999999999996  0.07172  1.0000
  C   C7        1.0  0.38843  0.25478  0.03542  1.0000
  C   C8        1.0  0.4260499999999999  0.38058  0.08811  1.0000
  C   C9        1.0  0.26672  0.21083  0.99806  1.0000
  C   C10       1.0  0.17324  0.29501  0.99827  1.0000
  C   C11       1.0  0.22997999999999996  0.08862  0.95964  1.0000
  C   C12       1.0  0.10065999999999999  0.03689  0.92191  1.0000
  C   C13       1.0  0.9694499999999998  0.68983  0.88865  1.0000
  C   C14       1.0  0.8475999999999998  0.68361  0.8993600000000002  1.0000
  C   C15       1.0  0.7688899999999999  0.57019  0.89173  1.0000
  C   C16       1.0  0.8218199999999998  0.46661  0.87129  1.0000
  C   C17       1.0  0.9450700000000001  0.4795400000000001  0.86239  1.0000
  C   C18       1.0  0.6401799999999997  0.56501  0.9002300000000001  1.0000
  C   C19       1.0  0.5972899999999999  0.66389  0.9500400000000001  1.0000
  C   C20       1.0  0.47528999999999993  0.66513  0.94738  1.0000
  C   C21       1.0  0.42978999999999995  0.4738  0.85756  1.0000
  C   C22       1.0  0.55117  0.46654  0.8566500000000001  1.0000
  C   C23       1.0  0.50341  0.808  0.67976  1.0000
  C   C24       1.0  0.62555  0.8078900000000001  0.69173  1.0000
  C   C25       1.0  0.7092  0.9132000000000001  0.67392  1.0000
  C   C26       1.0  0.66154  0.01835  0.6524100000000002  1.0000
  C   C27       1.0  0.5380799999999999  0.011920000000000002  0.64137  1.0000
  C   C28       1.0  0.83692  0.91019  0.67077  1.0000
  C   C29       1.0  0.87866  0.7987  0.6618099999999999  1.0000
  C   C30       1.0  0.9987199999999999  0.79714  0.64805  1.0000
  C   C31       1.0  0.04471999999999999  0.00802  0.65839  1.0000
  C   C32       1.0  0.9258199999999998  0.016149999999999994  0.6724099999999998  1.0000
  C   C33       1.0  0.8778799999999998  0.2762899999999999  0.42756  1.0000
  C   C34       1.0  0.012320000000000006  0.31666000000000005  0.45706  1.0000
  C   C35       1.0  0.05714  0.44029  0.48417  1.0000
  C   C36       1.0  0.9742699999999996  0.53073  0.472  1.0000
  C   C37       1.0  0.17806  0.47595999999999994  0.52588  1.0000
  C   C38       1.0  0.22059  0.60698  0.56838  1.0000
  C   C39       1.0  0.25467  0.38991  0.5362  1.0000
  C   C40       1.0  0.38024  0.42874999999999996  0.58898  1.0000
  C   C41       1.0  0.21106999999999995  0.26785  0.49964  1.0000
  C   C42       1.0  0.29541999999999996  0.17438  0.50002  1.0000
  C   C43       1.0  0.08875999999999999  0.23047  0.46147999999999995  1.0000
  C   C44       1.0  0.03752999999999999  0.10098999999999998  0.42359  1.0000
  C   C45       1.0  0.6901999999999998  0.9692  0.38957  1.0000
  C   C46       1.0  0.68399  0.84723  0.39966  1.0000
  C   C47       1.0  0.5705399999999999  0.76856  0.39150999999999997  1.0000
  C   C48       1.0  0.46697  0.82141  0.37088  1.0000
  C   C49       1.0  0.4799199999999999  0.9448000000000001  0.36265  1.0000
  C   C50       1.0  0.5653  0.63988  0.4002  1.0000
  C   C51       1.0  0.66412  0.59728  0.45039  1.0000
  C   C52       1.0  0.6650399999999999  0.47525  0.44867  1.0000
  C   C53       1.0  0.4739099999999999  0.42939  0.35846  1.0000
  C   C54       1.0  0.46682999999999997  0.5508  0.35677  1.0000
  C   C55       1.0  0.8086799999999998  0.50417  0.18052  1.0000
  C   C56       1.0  0.80847  0.62637  0.19211  1.0000
  C   C57       1.0  0.9136199999999998  0.70994  0.17366999999999996  1.0000
  C   C58       1.0  0.018670000000000003  0.66236  0.15169  1.0000
  C   C59       1.0  0.01232000000000003  0.53887  0.14107  1.0000
  C   C60       1.0  0.91067  0.8377099999999998  0.17057  1.0000
  C   C61       1.0  0.7992299999999999  0.8795999999999999  0.16231  1.0000
  C   C62       1.0  0.7977999999999998  0.99981  0.14893  1.0000
  C   C63       1.0  0.00869  0.04537  0.15811  1.0000
  C   C64       1.0  0.016769999999999986  0.9263699999999999  0.17179  1.0000
  N   N1        1.0  0.019200000000000005  0.58987  0.87191  1.0000
  N   N2        1.0  0.39148999999999995  0.57359  0.8987300000000001  1.0000
  N   N3        1.0  0.45960999999999996  0.90752  0.6525900000000001  1.0000
  N   N4        1.0  0.08113  0.89971  0.64327  1.0000
  N   N5        1.0  0.59024  0.01891  0.37288  1.0000
  N   N6        1.0  0.57342  0.39132000000000006  0.40045  1.0000
  N   N7        1.0  0.9081499999999999  0.46042  0.15312  1.0000
  N   N8        1.0  0.9004299999999998  0.08196  0.14382  1.0000
  O   O1        1.0  0.26508  0.8361500000000001  0.82913  1.0000
  O   O2        1.0  0.25577999999999995  0.8084100000000001  0.00503  1.0000
  O   O3        1.0  0.6909399999999999  0.23538  0.0083  1.0000
  O   O4        1.0  0.6240099999999998  0.23688  0.17424000000000003  1.0000
  O   O5        1.0  0.17607999999999993  0.36922  0.92587  1.0000
  O   O6        1.0  0.09816  0.28263  0.07297  1.0000
  O   O7        1.0  0.8369299999999997  0.26588999999999996  0.32809999999999995  1.0000
  O   O8        1.0  0.8072999999999998  0.25514  0.50332  1.0000
  O   O9        1.0  0.23547999999999997  0.69098  0.50295  1.0000
  O   O10       1.0  0.23673999999999995  0.62993  0.6707400000000001  1.0000
  O   O11       1.0  0.36917999999999995  0.17639999999999997  0.42726  1.0000
  O   O12       1.0  0.28343  0.0999  0.57508  1.0000
