data_image0
_chemical_formula_structural       Cd4H40C48N20O4
_chemical_formula_sum              "Cd4 H40 C48 N20 O4"
_cell_length_a       10.10099
_cell_length_b       10.689299999999998
_cell_length_c       22.1745
_cell_angle_alpha    89.99865000000001
_cell_angle_beta     90.0
_cell_angle_gamma    90.03767

_symmetry_space_group_name_H-M    'P 1'
_symmetry_Int_Tables_number       1

loop_
  _symmetry_equiv_pos_as_xyz
  'x,y,z'

loop_
  _atom_site_type_symbol
  _atom_site_label
  _atom_site_symmetry_multiplicity
  _atom_site_fract_x
  _atom_site_fract_y
  _atom_site_fract_z
  _atom_site_occupancy
  Cd  Cd1       1.0  0.03295  0.61085  0.90031  1.0000
  Cd  Cd2       1.0  0.96688  0.11101999999999997  0.59981  1.0000
  Cd  Cd3       1.0  0.53312  0.88901  0.09979000000000002  1.0000
  Cd  Cd4       1.0  0.46704000000000007  0.38913  0.40030000000000004  1.0000
  H   H1        1.0  0.72872  0.9210299999999999  0.58569  1.0000
  H   H2        1.0  0.7672700000000001  0.4789599999999999  0.68697  1.0000
  H   H3        1.0  0.23265000000000002  0.9789799999999997  0.81302  1.0000
  H   H4        1.0  0.62132  0.45234  0.53456  1.0000
  H   H5        1.0  0.6260500000000001  0.47418  0.63825  1.0000
  H   H6        1.0  0.27093  0.42091  0.91449  1.0000
  H   H7        1.0  0.7747  0.54833  0.61456  1.0000
  H   H8        1.0  0.71873  0.6894899999999999  0.746  1.0000
  H   H9        1.0  0.04754  0.92966  0.70441  1.0000
  H   H10       1.0  0.64004  0.16946  0.40493  1.0000
  H   H11       1.0  0.60906  0.76444  0.64998  1.0000
  H   H12       1.0  0.95244  0.42983  0.79563  1.0000
  H   H13       1.0  0.2253  0.048299999999999996  0.88544  1.0000
  H   H14       1.0  0.37878  0.9523099999999999  0.9653899999999999  1.0000
  H   H15       1.0  0.21893000000000004  0.54216  0.026459999999999997  1.0000
  H   H16       1.0  0.7808  0.0422  0.47354  1.0000
  H   H17       1.0  0.37388  0.97424  0.86172  1.0000
  H   H18       1.0  0.28116  0.18998  0.75396  1.0000
  H   H19       1.0  0.39066000000000006  0.26463999999999993  0.85012  1.0000
  H   H20       1.0  0.35999  0.66932  0.09505  1.0000
  H   H21       1.0  0.12609  0.02575  0.36173  1.0000
  H   H22       1.0  0.45245  0.07032  0.20439  1.0000
  H   H23       1.0  0.8739300000000002  0.5258299999999999  0.13826  1.0000
  H   H24       1.0  0.10933  0.73536  0.35012  1.0000
  H   H25       1.0  0.28108  0.45782  0.52645  1.0000
  H   H26       1.0  0.21882  0.81005  0.25396  1.0000
  H   H27       1.0  0.7327100000000001  0.52105  0.18698  1.0000
  H   H28       1.0  0.12122  0.047689999999999996  0.4654  1.0000
  H   H29       1.0  0.87868  0.54766  0.03456  1.0000
  H   H30       1.0  0.7712800000000001  0.07898  0.08568  1.0000
  H   H31       1.0  0.26732  0.021009999999999997  0.31302  1.0000
  H   H32       1.0  0.27468000000000004  0.9516899999999999  0.38545000000000007  1.0000
  H   H33       1.0  0.7252800000000001  0.45168  0.11456  1.0000
  H   H34       1.0  0.22907000000000005  0.57908  0.41449  1.0000
  H   H35       1.0  0.71921  0.95781  0.97352  1.0000
  H   H36       1.0  0.85996  0.83053  0.90493  1.0000
  H   H37       1.0  0.78126  0.31048  0.24600999999999998  1.0000
  H   H38       1.0  0.54755  0.5702  0.29562  1.0000
  H   H39       1.0  0.14001  0.33069  0.59504  1.0000
  H   H40       1.0  0.89093  0.23555999999999994  0.14998  1.0000
  C   C1        1.0  0.29301  0.29789  0.83708  1.0000
  C   C2        1.0  0.7459200000000001  0.13413  0.48767999999999995  1.0000
  C   C3        1.0  0.7345200000000001  0.46865999999999997  0.64011  1.0000
  C   C4        1.0  0.73924  0.29251  0.56045  1.0000
  C   C5        1.0  0.65729  0.36046  0.52126  1.0000
  C   C6        1.0  0.26068  0.7925099999999999  0.9395600000000001  1.0000
  C   C7        1.0  0.26541  0.96865  0.8598700000000001  1.0000
  C   C8        1.0  0.04797  0.38935  0.8071  1.0000
  C   C9        1.0  0.6681000000000001  0.20305  0.44931000000000004  1.0000
  C   C10       1.0  0.10738  0.3021  0.7683200000000001  1.0000
  C   C11       1.0  0.0426  0.25976  0.71198  1.0000
  C   C12       1.0  0.33195  0.70297  0.05068000000000001  1.0000
  C   C13       1.0  0.23324  0.2563599999999999  0.78407  1.0000
  C   C14       1.0  0.95734  0.75923  0.7880000000000001  1.0000
  C   C15       1.0  0.70677  0.7976799999999998  0.66299  1.0000
  C   C16       1.0  0.34277  0.8604399999999999  0.97874  1.0000
  C   C17       1.0  0.7848400000000001  0.34566  0.6167  1.0000
  C   C18       1.0  0.9519100000000001  0.8892299999999997  0.69298  1.0000
  C   C19       1.0  0.89254  0.80175  0.7316899999999998  1.0000
  C   C20       1.0  0.22718000000000002  0.38389  0.87337  1.0000
  C   C21       1.0  0.21505  0.84561  0.88331  1.0000
  C   C22       1.0  0.76663  0.756  0.71594  1.0000
  C   C23       1.0  0.7725500000000001  0.88391  0.62677  1.0000
  C   C24       1.0  0.25396  0.63409  0.01233  1.0000
  C   C25       1.0  0.75408  0.8658699999999999  0.98767  1.0000
  C   C26       1.0  0.72744  0.11609999999999997  0.12676  1.0000
  C   C27       1.0  0.45202000000000003  0.61066  0.30708  1.0000
  C   C28       1.0  0.7932200000000001  0.20232  0.16299  1.0000
  C   C29       1.0  0.24604  0.3659  0.51233  1.0000
  C   C30       1.0  0.83191  0.7969599999999999  0.94931  1.0000
  C   C31       1.0  0.20697000000000004  0.7021099999999999  0.33708  1.0000
  C   C32       1.0  0.39261  0.6979399999999998  0.26831  1.0000
  C   C33       1.0  0.15722  0.13955999999999996  0.47874  1.0000
  C   C34       1.0  0.26674  0.74367  0.28407  1.0000
  C   C35       1.0  0.23931  0.20748999999999998  0.43956  1.0000
  C   C36       1.0  0.27282  0.6161  0.3733600000000001  1.0000
  C   C37       1.0  0.76546  0.53136  0.14012  1.0000
  C   C38       1.0  0.28493  0.15438  0.38331  1.0000
  C   C39       1.0  0.73336  0.24398999999999996  0.21594  1.0000
  C   C40       1.0  0.71514  0.65435  0.1167  1.0000
  C   C41       1.0  0.7607600000000001  0.70749  0.06045  1.0000
  C   C42       1.0  0.45739  0.74033  0.21198  1.0000
  C   C43       1.0  0.60746  0.19821999999999998  0.23169  1.0000
  C   C44       1.0  0.54808  0.11077  0.19297000000000003  1.0000
  C   C45       1.0  0.16805  0.29703  0.55067  1.0000
  C   C46       1.0  0.23457  0.03134  0.35988  1.0000
  C   C47       1.0  0.54266  0.24072999999999994  0.288  1.0000
  C   C48       1.0  0.84271  0.63954  0.02126  1.0000
  N   N1        1.0  0.37768  0.8200499999999997  0.03398  1.0000
  N   N2        1.0  0.62246  0.32009  0.466  1.0000
  N   N3        1.0  0.9328800000000003  0.32495999999999997  0.69677  1.0000
  N   N4        1.0  0.12168  0.78135  0.8548099999999998  1.0000
  N   N5        1.0  0.78367  0.17377999999999996  0.54316  1.0000
  N   N6        1.0  0.21615  0.6737699999999999  0.95687  1.0000
  N   N7        1.0  0.10575000000000001  0.42900999999999995  0.8584  1.0000
  N   N8        1.0  0.06691000000000001  0.82471  0.80328  1.0000
  N   N9        1.0  0.89401  0.92909  0.64175  1.0000
  N   N10       1.0  0.87815  0.28153  0.64522  1.0000
  N   N11       1.0  0.71633  0.82623  0.04315  1.0000
  N   N12       1.0  0.28385  0.32622  0.45687000000000005  1.0000
  N   N13       1.0  0.12231  0.17995  0.53399  1.0000
  N   N14       1.0  0.8775400000000002  0.67991  0.9660000000000001  1.0000
  N   N15       1.0  0.39423  0.57099  0.35838  1.0000
  N   N16       1.0  0.37829000000000007  0.21863  0.35481  1.0000
  N   N17       1.0  0.60598  0.07092  0.14173  1.0000
  N   N18       1.0  0.56708  0.67508  0.19675000000000004  1.0000
  N   N19       1.0  0.62182  0.71849  0.14521  1.0000
  N   N20       1.0  0.43306000000000006  0.17526999999999998  0.30328  1.0000
  O   O1        1.0  0.09855000000000001  0.17011  0.68247  1.0000
  O   O2        1.0  0.9015000000000001  0.66937  0.81742  1.0000
  O   O3        1.0  0.4015  0.83003  0.18249000000000004  1.0000
  O   O4        1.0  0.59851  0.33058  0.31743  1.0000
