data_image0
_chemical_formula_structural       Zn8Co2H36C72N36
_chemical_formula_sum              "Zn8 Co2 H36 C72 N36"
_cell_length_a       17.99489
_cell_length_b       18.01271
_cell_length_c       19.08665
_cell_angle_alpha    90.00218
_cell_angle_beta     89.98536000000001
_cell_angle_gamma    120.04759

_space_group_name_H-M_alt    "P 1"
_space_group_IT_number       1

loop_
  _space_group_symop_operation_xyz
  'x, y, z'

loop_
  _atom_site_type_symbol
  _atom_site_label
  _atom_site_symmetry_multiplicity
  _atom_site_fract_x
  _atom_site_fract_y
  _atom_site_fract_z
  _atom_site_occupancy
  Zn  Zn1       1.0  0.12213999999999989  0.6302799999999997  0.66828  1.0000
  Zn  Zn2       1.0  0.3673699999999999  0.4894199999999999  0.66836  1.0000
  Zn  Zn3       1.0  0.5106899999999999  0.8777099999999998  0.66828  1.0000
  Zn  Zn4       1.0  0.63293  0.12209999999999997  0.33164  1.0000
  Zn  Zn5       1.0  0.48935000000000006  0.3670499999999999  0.33171  1.0000
  Zn  Zn6       1.0  0.8778900000000001  0.50821  0.33173  1.0000
  Zn  Zn7       1.0  0.3334699999999998  0.6666799999999998  0.73491  1.0000
  Zn  Zn8       1.0  0.66649  0.3332199999999999  0.2651  1.0000
  Co  Co1       1.0  0.33352  0.66664  0.9109800000000001  1.0000
  Co  Co2       1.0  0.66651  0.3330899999999999  0.08902  1.0000
  H   H1        1.0  0.4529999999999999  0.9828999999999998  0.56143  1.0000
  H   H2        1.0  0.19974999999999993  0.9221999999999998  0.49209  1.0000
  H   H3        1.0  0.13125999999999988  0.7864899999999998  0.56142  1.0000
  H   H4        1.0  0.14326  0.60984  0.0061  1.0000
  H   H5        1.0  0.97591  0.60093  0.79095  1.0000
  H   H6        1.0  0.9103000000000001  0.57504  0.91003  1.0000
  H   H7        1.0  0.017269999999999914  0.46989999999999993  0.56136  1.0000
  H   H8        1.0  0.07727  0.27717  0.49161999999999995  1.0000
  H   H9        1.0  0.21318999999999994  0.3442199999999999  0.56107  1.0000
  H   H10       1.0  0.39021999999999984  0.5333599999999997  0.00615  1.0000
  H   H11       1.0  0.39902  0.3750699999999999  0.79094  1.0000
  H   H12       1.0  0.425  0.33546  0.9099900000000001  1.0000
  H   H13       1.0  0.5301099999999999  0.5469799999999998  0.56132  1.0000
  H   H14       1.0  0.72276  0.7998999999999998  0.4916  1.0000
  H   H15       1.0  0.65554  0.8683899999999998  0.56099  1.0000
  H   H16       1.0  0.46664  0.85672  0.00613  1.0000
  H   H17       1.0  0.6250400000000002  0.024169999999999994  0.79093  1.0000
  H   H18       1.0  0.66467  0.08971999999999997  0.91  1.0000
  H   H19       1.0  0.98276  0.45258  0.43864  1.0000
  H   H20       1.0  0.92262  0.1998  0.50827  1.0000
  H   H21       1.0  0.78669  0.13102  0.4388599999999999  1.0000
  H   H22       1.0  0.6098  0.14316999999999994  0.99388  1.0000
  H   H23       1.0  0.6009799999999998  0.9760199999999998  0.20905  1.0000
  H   H24       1.0  0.5750399999999999  0.9104599999999998  0.08998  1.0000
  H   H25       1.0  0.46994  0.01692  0.43865999999999994  1.0000
  H   H26       1.0  0.2773  0.07718999999999997  0.50841  1.0000
  H   H27       1.0  0.34452000000000005  0.21288999999999994  0.43895  1.0000
  H   H28       1.0  0.5333299999999999  0.3901199999999999  0.9938399999999998  1.0000
  H   H29       1.0  0.37502  0.3991099999999999  0.20908  1.0000
  H   H30       1.0  0.33537  0.42508  0.09001  1.0000
  H   H31       1.0  0.54701  0.52987  0.43855999999999995  1.0000
  H   H32       1.0  0.80017  0.7225199999999999  0.50801  1.0000
  H   H33       1.0  0.86882  0.65544  0.43873000000000006  1.0000
  H   H34       1.0  0.8567100000000001  0.46657  0.9939  1.0000
  H   H35       1.0  0.024140000000000026  0.62505  0.20905  1.0000
  H   H36       1.0  0.08970999999999987  0.6647399999999998  0.08999  1.0000
  C   C1        1.0  0.3447799999999998  0.8650999999999998  0.60028  1.0000
  C   C2        1.0  0.25473  0.80976  0.60087  1.0000
  C   C3        1.0  0.3837  0.94096  0.56085  1.0000
  C   C4        1.0  0.23921999999999982  0.9050799999999998  0.52374  1.0000
  C   C5        1.0  0.20036999999999996  0.8294799999999998  0.5619  1.0000
  C   C6        1.0  0.33023999999999987  0.9607599999999997  0.52217  1.0000
  C   C7        1.0  0.0969899999999999  0.6206499999999998  0.83247  1.0000
  C   C8        1.0  0.14461000000000002  0.62532  0.8930599999999999  1.0000
  C   C9        1.0  0.10756  0.60967  0.9601199999999999  1.0000
  C   C10       1.0  0.021929999999999956  0.58947  0.9655499999999999  1.0000
  C   C11       1.0  0.011419999999999994  0.6025  0.83758  1.0000
  C   C12       1.0  0.97568  0.5875099999999998  0.90391  1.0000
  C   C13       1.0  0.13496999999999992  0.4791899999999999  0.59995  1.0000
  C   C14       1.0  0.19003000000000003  0.4443199999999999  0.60053  1.0000
  C   C15       1.0  0.05906999999999996  0.4424499999999999  0.56058  1.0000
  C   C16       1.0  0.09461999999999997  0.33373999999999987  0.52333  1.0000
  C   C17       1.0  0.17024999999999996  0.3703299999999999  0.56149  1.0000
  C   C18       1.0  0.03910999999999994  0.3691799999999999  0.52189  1.0000
  C   C19       1.0  0.37929999999999997  0.4762299999999999  0.83251  1.0000
  C   C20       1.0  0.3747  0.51921  0.89308  1.0000
  C   C21       1.0  0.39042  0.4978899999999999  0.96014  1.0000
  C   C22       1.0  0.41065  0.4325799999999999  0.9655499999999999  1.0000
  C   C23       1.0  0.39752000000000004  0.4089799999999999  0.8376  1.0000
  C   C24       1.0  0.41258000000000006  0.3883199999999999  0.90391  1.0000
  C   C25       1.0  0.5205  0.65505  0.6001  1.0000
  C   C26       1.0  0.55527  0.74499  0.60058  1.0000
  C   C27       1.0  0.55743  0.61619  0.56062  1.0000
  C   C28       1.0  0.6661099999999999  0.7605299999999998  0.52331  1.0000
  C   C29       1.0  0.62936  0.7993499999999998  0.5615  1.0000
  C   C30       1.0  0.6307  0.66961  0.52183  1.0000
  C   C31       1.0  0.5237599999999999  0.9031099999999997  0.83246  1.0000
  C   C32       1.0  0.48085999999999984  0.8554499999999998  0.8930599999999999  1.0000
  C   C33       1.0  0.50216  0.89248  0.9601199999999999  1.0000
  C   C34       1.0  0.5674699999999999  0.9781199999999999  0.96554  1.0000
  C   C35       1.0  0.59107  0.98868  0.83757  1.0000
  C   C36       1.0  0.61174  0.024369999999999992  0.9038900000000001  1.0000
  C   C37       1.0  0.86501  0.34425  0.4  1.0000
  C   C38       1.0  0.8099200000000002  0.25432  0.39944  1.0000
  C   C39       1.0  0.9409099999999999  0.3833499999999999  0.43938999999999995  1.0000
  C   C40       1.0  0.90531  0.23906999999999995  0.4766000000000001  1.0000
  C   C41       1.0  0.82967  0.20005999999999996  0.43844  1.0000
  C   C42       1.0  0.9608400000000001  0.33002  0.47806  1.0000
  C   C43       1.0  0.62068  0.09692  0.16751  1.0000
  C   C44       1.0  0.62526  0.14448  0.10694  1.0000
  C   C45       1.0  0.6095900000000001  0.10747999999999998  0.03988  1.0000
  C   C46       1.0  0.58938  0.021939999999999994  0.03444  1.0000
  C   C47       1.0  0.6025  0.011449999999999997  0.1624  1.0000
  C   C48       1.0  0.5874599999999998  0.9757499999999998  0.09608  1.0000
  C   C49       1.0  0.47951000000000005  0.13456  0.39989  1.0000
  C   C50       1.0  0.44472  0.18970999999999993  0.3994  1.0000
  C   C51       1.0  0.44259000000000004  0.058779999999999985  0.43938000000000005  1.0000
  C   C52       1.0  0.33392  0.09444  0.47670000000000007  1.0000
  C   C53       1.0  0.3706600000000001  0.16999  0.43849  1.0000
  C   C54       1.0  0.36931  0.0389  0.47818000000000005  1.0000
  C   C55       1.0  0.47626000000000007  0.3793699999999999  0.16751  1.0000
  C   C56       1.0  0.51915  0.3745999999999999  0.1069  1.0000
  C   C57       1.0  0.49785000000000007  0.39035999999999993  0.03986  1.0000
  C   C58       1.0  0.4325499999999999  0.4106799999999999  0.03445  1.0000
  C   C59       1.0  0.40896000000000005  0.39762  0.16242  1.0000
  C   C60       1.0  0.38828  0.4126499999999999  0.09611  1.0000
  C   C61       1.0  0.6553  0.52039  0.39975  1.0000
  C   C62       1.0  0.7453600000000001  0.55514  0.39921  1.0000
  C   C63       1.0  0.61632  0.55727  0.43916  1.0000
  C   C64       1.0  0.76078  0.66593  0.47633  1.0000
  C   C65       1.0  0.7997  0.6292399999999998  0.4381999999999999  1.0000
  C   C66       1.0  0.66976  0.63054  0.47786  1.0000
  C   C67       1.0  0.903  0.5236799999999999  0.16755  1.0000
  C   C68       1.0  0.85537  0.4807399999999999  0.10695000000000002  1.0000
  C   C69       1.0  0.89242  0.5021299999999997  0.03989  1.0000
  C   C70       1.0  0.9780699999999998  0.5675399999999998  0.03446  1.0000
  C   C71       1.0  0.98859  0.59108  0.16244  1.0000
  C   C72       1.0  0.024320000000000036  0.61182  0.0961  1.0000
  N   N1        1.0  0.23866999999999988  0.7422799999999998  0.64338  1.0000
  N   N2        1.0  0.3144099999999999  0.7556799999999998  0.66737  1.0000
  N   N3        1.0  0.3793499999999999  0.8291399999999998  0.64267  1.0000
  N   N4        1.0  0.14909999999999995  0.63574  0.77603  1.0000
  N   N5        1.0  0.22488  0.64916  0.80016  1.0000
  N   N6        1.0  0.22479999999999992  0.6437699999999997  0.8706599999999999  1.0000
  N   N7        1.0  0.2574  0.4954499999999999  0.64328  1.0000
  N   N8        1.0  0.24436000000000005  0.55786  0.66744  1.0000
  N   N9        1.0  0.17111  0.54953  0.64252  1.0000
  N   N10       1.0  0.36399  0.51296  0.77606  1.0000
  N   N11       1.0  0.3505199999999999  0.5752399999999998  0.80016  1.0000
  N   N12       1.0  0.35609  0.5807199999999998  0.8706400000000001  1.0000
  N   N13       1.0  0.5039299999999999  0.7610199999999998  0.64325  1.0000
  N   N14       1.0  0.44158  0.6854  0.66747  1.0000
  N   N15       1.0  0.4500499999999999  0.6205299999999998  0.6427  1.0000
  N   N16       1.0  0.48694  0.8510199999999998  0.77602  1.0000
  N   N17       1.0  0.42476  0.77514  0.80017  1.0000
  N   N18       1.0  0.41938999999999993  0.7751999999999998  0.8706700000000002  1.0000
  N   N19       1.0  0.74254  0.23812  0.35674  1.0000
  N   N20       1.0  0.7555800000000001  0.3135699999999999  0.3326  1.0000
  N   N21       1.0  0.82887  0.37849  0.35749  1.0000
  N   N22       1.0  0.63594  0.14895999999999995  0.22395999999999996  1.0000
  N   N23       1.0  0.64935  0.22468999999999995  0.19987  1.0000
  N   N24       1.0  0.6438  0.22459999999999994  0.12939  1.0000
  N   N25       1.0  0.49603999999999987  0.25707999999999986  0.35672  1.0000
  N   N26       1.0  0.55838  0.24382  0.3325  1.0000
  N   N27       1.0  0.54996  0.17049999999999996  0.35727  1.0000
  N   N28       1.0  0.51305  0.36409  0.22394999999999998  1.0000
  N   N29       1.0  0.5752  0.3503799999999999  0.1998  1.0000
  N   N30       1.0  0.58059  0.3557999999999999  0.1293  1.0000
  N   N31       1.0  0.76142  0.50374  0.35667  1.0000
  N   N32       1.0  0.6856800000000001  0.4413999999999999  0.33263  1.0000
  N   N33       1.0  0.62074  0.44988  0.35733  1.0000
  N   N34       1.0  0.8508699999999999  0.4866799999999999  0.22398  1.0000
  N   N35       1.0  0.77506  0.4243299999999999  0.19984  1.0000
  N   N36       1.0  0.77516  0.4190199999999999  0.12934  1.0000
