data_image0
_chemical_formula_structural       Zn8H24C64O36
_chemical_formula_sum              "Zn8 H24 C64 O36"
_cell_length_a       10.7318
_cell_length_b       15.97133
_cell_length_c       23.121469999999995
_cell_angle_alpha    90.0
_cell_angle_beta     91.9303
_cell_angle_gamma    90.0

_symmetry_space_group_name_H-M    'P 1'
_symmetry_Int_Tables_number       1

loop_
  _symmetry_equiv_pos_as_xyz
  'x,y,z'

loop_
  _atom_site_type_symbol
  _atom_site_label
  _atom_site_symmetry_multiplicity
  _atom_site_fract_x
  _atom_site_fract_y
  _atom_site_fract_z
  _atom_site_occupancy
  Zn  Zn1       1.0  0.022569999999999996  0.11802000000000003  0.77002  1.0000
  Zn  Zn2       1.0  0.15834  0.013480000000000004  0.86086  1.0000
  Zn  Zn3       1.0  0.47743  0.6180200000000002  0.72998  1.0000
  Zn  Zn4       1.0  0.34165  0.51349  0.63914  1.0000
  Zn  Zn5       1.0  0.97742  0.8819800000000002  0.22998  1.0000
  Zn  Zn6       1.0  0.8416600000000001  0.98651  0.13913999999999999  1.0000
  Zn  Zn7       1.0  0.52257  0.3819800000000001  0.2700199999999999  1.0000
  Zn  Zn8       1.0  0.65834  0.4865  0.3608499999999999  1.0000
  H   H1        1.0  0.42635  0.19222  0.9051099999999997  1.0000
  H   H2        1.0  0.27534999999999993  0.31767  0.7528799999999998  1.0000
  H   H3        1.0  0.55654  0.43872  0.8615599999999999  1.0000
  H   H4        1.0  0.7231  0.25293  0.8552899999999998  1.0000
  H   H5        1.0  0.89356  0.0645  0.9659599999999999  1.0000
  H   H6        1.0  0.61158  0.22722  0.03217  1.0000
  H   H7        1.0  0.07364  0.69222  0.59488  1.0000
  H   H8        1.0  0.22464  0.8176700000000002  0.74712  1.0000
  H   H9        1.0  0.94347  0.93872  0.63844  1.0000
  H   H10       1.0  0.7769  0.75294  0.64471  1.0000
  H   H11       1.0  0.60644  0.56451  0.53403  1.0000
  H   H12       1.0  0.8884200000000001  0.72721  0.46782999999999997  1.0000
  H   H13       1.0  0.57365  0.80778  0.09489  1.0000
  H   H14       1.0  0.72464  0.6823200000000003  0.24712  1.0000
  H   H15       1.0  0.44345  0.56128  0.13844  1.0000
  H   H16       1.0  0.2769  0.74706  0.14470999999999998  1.0000
  H   H17       1.0  0.10645000000000002  0.9354900000000003  0.03403  1.0000
  H   H18       1.0  0.38842  0.77278  0.9678299999999999  1.0000
  H   H19       1.0  0.9263500000000001  0.3077800000000001  0.40511  1.0000
  H   H20       1.0  0.77536  0.18232000000000007  0.25287999999999994  1.0000
  H   H21       1.0  0.05654  0.06127  0.36156  1.0000
  H   H22       1.0  0.22309000000000004  0.24706000000000006  0.3552899999999999  1.0000
  H   H23       1.0  0.39355999999999997  0.43549  0.46596  1.0000
  H   H24       1.0  0.11158  0.27278  0.5321699999999999  1.0000
  C   C1        1.0  0.50119  0.3151800000000001  0.88802  1.0000
  C   C2        1.0  0.42394000000000004  0.24641  0.87661  1.0000
  C   C3        1.0  0.34097  0.24807000000000007  0.82851  1.0000
  C   C4        1.0  0.33793  0.31695  0.79085  1.0000
  C   C5        1.0  0.41601  0.3854100000000001  0.8028799999999998  1.0000
  C   C6        1.0  0.49674  0.38525  0.85207  1.0000
  C   C7        1.0  0.25175  0.17737  0.81965  1.0000
  C   C8        1.0  0.4158  0.45863  0.76287  1.0000
  C   C9        1.0  0.65988  0.24757000000000007  0.94314  1.0000
  C   C10       1.0  0.73146  0.22196  0.8971099999999999  1.0000
  C   C11       1.0  0.81569  0.15552  0.9055599999999998  1.0000
  C   C12       1.0  0.8275999999999999  0.11551000000000003  0.95935  1.0000
  C   C13       1.0  0.75365  0.1412  0.00476  1.0000
  C   C14       1.0  0.66926  0.20766000000000007  0.9967899999999997  1.0000
  C   C15       1.0  0.8949800000000001  0.12948  0.85769  1.0000
  C   C16       1.0  0.76157  0.09608  0.06171999999999999  1.0000
  C   C17       1.0  0.9988  0.81518  0.61198  1.0000
  C   C18       1.0  0.07605  0.74641  0.62339  1.0000
  C   C19       1.0  0.15901999999999997  0.74807  0.6714899999999999  1.0000
  C   C20       1.0  0.16206999999999996  0.81695  0.7091499999999998  1.0000
  C   C21       1.0  0.08399  0.88541  0.69711  1.0000
  C   C22       1.0  0.003259999999999992  0.8852500000000002  0.6479299999999999  1.0000
  C   C23       1.0  0.24825  0.67737  0.68035  1.0000
  C   C24       1.0  0.08419999999999998  0.95863  0.7371299999999998  1.0000
  C   C25       1.0  0.84012  0.7475800000000002  0.5568499999999998  1.0000
  C   C26       1.0  0.7685400000000001  0.72196  0.60289  1.0000
  C   C27       1.0  0.68431  0.6555200000000002  0.59443  1.0000
  C   C28       1.0  0.6724  0.61551  0.54064  1.0000
  C   C29       1.0  0.74635  0.64119  0.49522999999999995  1.0000
  C   C30       1.0  0.83073  0.70766  0.50321  1.0000
  C   C31       1.0  0.60503  0.6294800000000003  0.64231  1.0000
  C   C32       1.0  0.73844  0.59608  0.43826999999999994  1.0000
  C   C33       1.0  0.4988  0.68482  0.11197999999999998  1.0000
  C   C34       1.0  0.57606  0.75358  0.12338999999999997  1.0000
  C   C35       1.0  0.65903  0.75192  0.17149  1.0000
  C   C36       1.0  0.66207  0.68304  0.20914999999999995  1.0000
  C   C37       1.0  0.58398  0.61459  0.19712  1.0000
  C   C38       1.0  0.50326  0.6147400000000002  0.14793  1.0000
  C   C39       1.0  0.74825  0.8226200000000002  0.18035  1.0000
  C   C40       1.0  0.58419  0.54136  0.23713  1.0000
  C   C41       1.0  0.34012  0.75242  0.05685999999999999  1.0000
  C   C42       1.0  0.26854  0.77804  0.10288999999999998  1.0000
  C   C43       1.0  0.18431  0.8444700000000003  0.09442999999999999  1.0000
  C   C44       1.0  0.1724  0.8844900000000002  0.04064  1.0000
  C   C45       1.0  0.24636  0.8588  0.99523  1.0000
  C   C46       1.0  0.33074  0.7923400000000003  0.00321  1.0000
  C   C47       1.0  0.10502000000000002  0.87052  0.14230999999999996  1.0000
  C   C48       1.0  0.23842  0.90391  0.93827  1.0000
  C   C49       1.0  0.0011999999999999975  0.18482000000000007  0.38802  1.0000
  C   C50       1.0  0.92394  0.25358  0.37660999999999994  1.0000
  C   C51       1.0  0.84098  0.25192  0.32851  1.0000
  C   C52       1.0  0.83794  0.18304000000000006  0.29085  1.0000
  C   C53       1.0  0.91602  0.11459  0.3028799999999999  1.0000
  C   C54       1.0  0.99675  0.11474  0.35207  1.0000
  C   C55       1.0  0.75175  0.32262000000000013  0.31964999999999993  1.0000
  C   C56       1.0  0.91582  0.041360000000000015  0.26287  1.0000
  C   C57       1.0  0.15988  0.25242  0.44315  1.0000
  C   C58       1.0  0.23146  0.27804  0.39711  1.0000
  C   C59       1.0  0.31569  0.34447  0.4055599999999999  1.0000
  C   C60       1.0  0.3276  0.38449  0.45935  1.0000
  C   C61       1.0  0.25365  0.3588  0.50477  1.0000
  C   C62       1.0  0.16927  0.29234  0.49679  1.0000
  C   C63       1.0  0.39497  0.37051  0.35768  1.0000
  C   C64       1.0  0.26158  0.40392  0.5617199999999999  1.0000
  O   O1        1.0  0.17353  0.18359  0.77654  1.0000
  O   O2        1.0  0.25739  0.11725000000000002  0.85587  1.0000
  O   O3        1.0  0.35268999999999995  0.454  0.71542  1.0000
  O   O4        1.0  0.48146  0.52235  0.7798799999999999  1.0000
  O   O5        1.0  0.8812999999999999  0.16747  0.8084199999999999  1.0000
  O   O6        1.0  0.9759400000000001  0.0713  0.8649799999999999  1.0000
  O   O7        1.0  0.8500699999999999  0.03925  0.0656  1.0000
  O   O8        1.0  0.68851  0.11163  0.10098  1.0000
  O   O9        1.0  0.58035  0.31657  0.9369099999999998  1.0000
  O   O10       1.0  0.32647  0.6835900000000003  0.72346  1.0000
  O   O11       1.0  0.2426  0.61725  0.64413  1.0000
  O   O12       1.0  0.14729  0.95401  0.7845799999999998  1.0000
  O   O13       1.0  0.018529999999999998  0.02235  0.72012  1.0000
  O   O14       1.0  0.6187  0.66748  0.69158  1.0000
  O   O15       1.0  0.52406  0.5713  0.63501  1.0000
  O   O16       1.0  0.64992  0.53924  0.43439999999999995  1.0000
  O   O17       1.0  0.81147  0.61163  0.39902  1.0000
  O   O18       1.0  0.9196500000000001  0.8165700000000002  0.56309  1.0000
  O   O19       1.0  0.8264699999999999  0.81641  0.22345999999999996  1.0000
  O   O20       1.0  0.7426  0.88275  0.14412999999999998  1.0000
  O   O21       1.0  0.64727  0.54599  0.28457999999999994  1.0000
  O   O22       1.0  0.51853  0.47764  0.22011999999999998  1.0000
  O   O23       1.0  0.11869999999999999  0.83252  0.19157999999999994  1.0000
  O   O24       1.0  0.02406  0.9287  0.13500999999999996  1.0000
  O   O25       1.0  0.1499  0.96072  0.9343899999999999  1.0000
  O   O26       1.0  0.31149  0.8883600000000003  0.89902  1.0000
  O   O27       1.0  0.41965  0.6834200000000002  0.06309  1.0000
  O   O28       1.0  0.67353  0.3164  0.27654  1.0000
  O   O29       1.0  0.7573999999999999  0.38274  0.35587  1.0000
  O   O30       1.0  0.85273  0.04599  0.21542  1.0000
  O   O31       1.0  0.9814699999999998  0.97764  0.27988  1.0000
  O   O32       1.0  0.3813  0.3325200000000001  0.30842  1.0000
  O   O33       1.0  0.47594  0.4287  0.36497999999999997  1.0000
  O   O34       1.0  0.35008  0.46075  0.5656  1.0000
  O   O35       1.0  0.18851  0.38837  0.6009799999999998  1.0000
  O   O36       1.0  0.08034999999999998  0.18342  0.4369099999999999  1.0000
