data_image0
_chemical_formula_structural       Mn4H48C60N24
_chemical_formula_sum              "Mn4 H48 C60 N24"
_cell_length_a       14.22573
_cell_length_b       14.224470000000002
_cell_length_c       16.012910000000005
_cell_angle_alpha    94.85261
_cell_angle_beta     94.85318
_cell_angle_gamma    114.90231999999999

_space_group_name_H-M_alt    "P 1"
_space_group_IT_number       1

loop_
  _space_group_symop_operation_xyz
  'x, y, z'

loop_
  _atom_site_type_symbol
  _atom_site_label
  _atom_site_symmetry_multiplicity
  _atom_site_fract_x
  _atom_site_fract_y
  _atom_site_fract_z
  _atom_site_occupancy
  Mn  Mn1       1.0  0.81584  0.97321  0.19312999999999994  1.0000
  Mn  Mn2       1.0  0.18922  0.62274  0.07579  1.0000
  Mn  Mn3       1.0  0.97347  0.81616  0.69287  1.0000
  Mn  Mn4       1.0  0.6223499999999997  0.18898  0.57552  1.0000
  H   H1        1.0  0.8367  0.35752  0.47549999999999987  1.0000
  H   H2        1.0  0.86789  0.38005  0.21131999999999995  1.0000
  H   H3        1.0  0.97639  0.6623299999999999  0.39079  1.0000
  H   H4        1.0  0.7188799999999997  0.19907  0.42766  1.0000
  H   H5        1.0  0.70325  0.005189999999999975  0.3626999999999999  1.0000
  H   H6        1.0  0.89299  0.23207000000000003  0.22084999999999994  1.0000
  H   H7        1.0  0.8978099999999999  0.43899  0.59744  1.0000
  H   H8        1.0  0.89365  0.5749499999999999  0.7280799999999997  1.0000
  H   H9        1.0  0.8990799999999999  0.7094999999999999  0.50202  1.0000
  H   H10       1.0  0.9955599999999998  0.4711  0.14847  1.0000
  H   H11       1.0  0.9958099999999995  0.74551  0.27543  1.0000
  H   H12       1.0  0.10010999999999995  0.7942  0.13573  1.0000
  H   H13       1.0  0.30899  0.14202  0.36619  1.0000
  H   H14       1.0  0.16619  0.2882  0.20625  1.0000
  H   H15       1.0  0.47426999999999997  0.47264  0.3482999999999999  1.0000
  H   H16       1.0  0.024169999999999994  0.16587  0.2831599999999999  1.0000
  H   H17       1.0  0.9903199999999996  0.8764299999999999  0.1605  1.0000
  H   H18       1.0  0.20233999999999994  0.005890000000000003  0.20945  1.0000
  H   H19       1.0  0.17373000000000002  0.42296000000000006  0.16323  1.0000
  H   H20       1.0  0.3996799999999999  0.73483  0.22873999999999997  1.0000
  H   H21       1.0  0.46495  0.60834  0.31553  1.0000
  H   H22       1.0  0.47585  0.15995  0.4006499999999999  1.0000
  H   H23       1.0  0.7015699999999999  0.432  0.55456  1.0000
  H   H24       1.0  0.55965  0.48319  0.46612  1.0000
  H   H25       1.0  0.35708  0.83598  0.9754799999999998  1.0000
  H   H26       1.0  0.3797899999999998  0.8678699999999999  0.7115499999999998  1.0000
  H   H27       1.0  0.6620599999999998  0.97606  0.8910899999999998  1.0000
  H   H28       1.0  0.1981700000000001  0.71816  0.92743  1.0000
  H   H29       1.0  0.004460000000000018  0.70291  0.8623  1.0000
  H   H30       1.0  0.2321099999999999  0.89317  0.7211799999999998  1.0000
  H   H31       1.0  0.43852  0.89727  0.09740999999999997  1.0000
  H   H32       1.0  0.5750699999999997  0.89426  0.22816  1.0000
  H   H33       1.0  0.70912  0.89881  0.0019  1.0000
  H   H34       1.0  0.47074000000000005  0.9954200000000001  0.64871  1.0000
  H   H35       1.0  0.7453  0.99571  0.77542  1.0000
  H   H36       1.0  0.7938199999999999  0.10010999999999996  0.6357699999999997  1.0000
  H   H37       1.0  0.14179999999999998  0.309  0.86605  1.0000
  H   H38       1.0  0.28833  0.16615  0.70651  1.0000
  H   H39       1.0  0.47273  0.47434  0.84799  1.0000
  H   H40       1.0  0.16565999999999997  0.024480000000000002  0.7834  1.0000
  H   H41       1.0  0.8762599999999999  0.9905200000000001  0.6608099999999998  1.0000
  H   H42       1.0  0.0058699999999999655  0.2025  0.7095499999999998  1.0000
  H   H43       1.0  0.42338999999999993  0.17375999999999994  0.6629699999999997  1.0000
  H   H44       1.0  0.73509  0.39956  0.72913  1.0000
  H   H45       1.0  0.6083699999999999  0.4645299999999999  0.8158799999999998  1.0000
  H   H46       1.0  0.1597799999999999  0.47592999999999996  0.90086  1.0000
  H   H47       1.0  0.43186  0.70185  0.05429999999999999  1.0000
  H   H48       1.0  0.4831299999999999  0.56023  0.9658099999999997  1.0000
  C   C1        1.0  0.86055  0.40528000000000003  0.4250299999999999  1.0000
  C   C2        1.0  0.8536099999999999  0.35972  0.34346  1.0000
  C   C3        1.0  0.88621  0.41817  0.27599  1.0000
  C   C4        1.0  0.9312299999999998  0.52959  0.29544  1.0000
  C   C5        1.0  0.93625  0.57768  0.37622  1.0000
  C   C6        1.0  0.89927  0.5161  0.44141  1.0000
  C   C7        1.0  0.7526099999999999  0.17612999999999998  0.37584999999999996  1.0000
  C   C8        1.0  0.7445899999999998  0.08075999999999998  0.3420899999999999  1.0000
  C   C9        1.0  0.84229  0.19485000000000002  0.26652  1.0000
  C   C10       1.0  0.8974099999999998  0.5147  0.5971  1.0000
  C   C11       1.0  0.8955599999999999  0.58345  0.66171  1.0000
  C   C12       1.0  0.90594  0.65953  0.54688  1.0000
  C   C13       1.0  0.009309999999999995  0.55165  0.16234  1.0000
  C   C14       1.0  0.013149999999999972  0.69697  0.22959  1.0000
  C   C15       1.0  0.06392000000000005  0.71986  0.15948  1.0000
  C   C16       1.0  0.31594  0.20976  0.33624  1.0000
  C   C17       1.0  0.23247  0.20852  0.28178  1.0000
  C   C18       1.0  0.23116000000000003  0.29668  0.25165  1.0000
  C   C19       1.0  0.3187399999999999  0.39537  0.27794999999999986  1.0000
  C   C20       1.0  0.4046699999999999  0.39943  0.33134999999999987  1.0000
  C   C21       1.0  0.40340999999999994  0.30972999999999995  0.3606099999999999  1.0000
  C   C22       1.0  0.04128999999999998  0.10394999999999999  0.25491999999999987  1.0000
  C   C23       1.0  0.02840000000000004  0.95537  0.19334  1.0000
  C   C24       1.0  0.13322  0.017859999999999994  0.21729  1.0000
  C   C25       1.0  0.2422699999999999  0.49066  0.19346  1.0000
  C   C26       1.0  0.36154  0.651  0.22858999999999993  1.0000
  C   C27       1.0  0.39578  0.58899  0.27146  1.0000
  C   C28       1.0  0.51564  0.23829  0.4340999999999999  1.0000
  C   C29       1.0  0.63408  0.38270999999999994  0.50918  1.0000
  C   C30       1.0  0.56446  0.4094  0.46528999999999987  1.0000
  C   C31       1.0  0.40486  0.85983  0.92504  1.0000
  C   C32       1.0  0.3592600000000001  0.8532200000000001  0.84359  1.0000
  C   C33       1.0  0.41786000000000006  0.886  0.77621  1.0000
  C   C34       1.0  0.5293099999999998  0.9309399999999999  0.7955999999999998  1.0000
  C   C35       1.0  0.5774  0.93596  0.87636  1.0000
  C   C36       1.0  0.51567  0.89871  0.94142  1.0000
  C   C37       1.0  0.17545000000000005  0.75223  0.8757899999999997  1.0000
  C   C38       1.0  0.08019999999999997  0.7445  0.84201  1.0000
  C   C39       1.0  0.19467999999999994  0.84244  0.7667599999999998  1.0000
  C   C40       1.0  0.51434  0.8971200000000001  0.09707999999999997  1.0000
  C   C41       1.0  0.58331  0.89575  0.16173999999999994  1.0000
  C   C42       1.0  0.65924  0.9057100000000001  0.04686  1.0000
  C   C43       1.0  0.5513499999999999  0.00944  0.66263  1.0000
  C   C44       1.0  0.69672  0.01313999999999997  0.7296399999999997  1.0000
  C   C45       1.0  0.7195  0.06405999999999998  0.65957  1.0000
  C   C46       1.0  0.20971  0.31597  0.83635  1.0000
  C   C47       1.0  0.20862000000000003  0.23252000000000003  0.78195  1.0000
  C   C48       1.0  0.29677999999999993  0.23117000000000001  0.75186  1.0000
  C   C49       1.0  0.3955  0.31877  0.7780099999999998  1.0000
  C   C50       1.0  0.39943999999999996  0.40472  0.8314099999999998  1.0000
  C   C51       1.0  0.30972  0.4034  0.86074  1.0000
  C   C52       1.0  0.10369  0.04137999999999999  0.75514  1.0000
  C   C53       1.0  0.9551799999999998  0.028629999999999992  0.69367  1.0000
  C   C54       1.0  0.017829999999999988  0.13343  0.71753  1.0000
  C   C55       1.0  0.49095  0.24235  0.69328  1.0000
  C   C56       1.0  0.6512399999999998  0.36146  0.72882  1.0000
  C   C57       1.0  0.58912  0.39552999999999994  0.7716699999999997  1.0000
  C   C58       1.0  0.23808999999999997  0.5155  0.93433  1.0000
  C   C59       1.0  0.38257999999999986  0.63415  0.0091  1.0000
  C   C60       1.0  0.40925  0.5646599999999999  0.9650599999999998  1.0000
  N   N1        1.0  0.80048  0.09243  0.2737  1.0000
  N   N2        1.0  0.81602  0.24885999999999997  0.32807  1.0000
  N   N3        1.0  0.06266  0.62975  0.11748999999999997  1.0000
  N   N4        1.0  0.98024  0.58996  0.23258  1.0000
  N   N5        1.0  0.9004199999999998  0.6732699999999999  0.63133  1.0000
  N   N6        1.0  0.9032199999999998  0.56229  0.5232499999999998  1.0000
  N   N7        1.0  0.97113  0.009520000000000002  0.21665  1.0000
  N   N8        1.0  0.14037999999999998  0.11267000000000002  0.25516  1.0000
  N   N9        1.0  0.26663  0.5904  0.18038  1.0000
  N   N10       1.0  0.31941  0.48580999999999996  0.24883999999999995  1.0000
  N   N11       1.0  0.60444  0.27601  0.4901599999999999  1.0000
  N   N12       1.0  0.48948  0.31817  0.41645  1.0000
  N   N13       1.0  0.09223  0.80075  0.7738099999999998  1.0000
  N   N14       1.0  0.2484199999999999  0.81585  0.8282699999999997  1.0000
  N   N15       1.0  0.6293099999999999  0.06270999999999997  0.6176599999999998  1.0000
  N   N16       1.0  0.5897  0.9801200000000001  0.73271  1.0000
  N   N17       1.0  0.6730799999999998  0.90054  0.13137  1.0000
  N   N18       1.0  0.56188  0.9026900000000001  0.023239999999999993  1.0000
  N   N19       1.0  0.00914999999999999  0.97124  0.71705  1.0000
  N   N20       1.0  0.11262  0.14052  0.75537  1.0000
  N   N21       1.0  0.59072  0.26675  0.68032  1.0000
  N   N22       1.0  0.4859499999999998  0.31923999999999997  0.74893  1.0000
  N   N23       1.0  0.27588999999999997  0.60438  0.99031  1.0000
  N   N24       1.0  0.3179699999999999  0.48940999999999996  0.9165199999999998  1.0000
