data_image0
_chemical_formula_structural       Fe4H48C72N24
_chemical_formula_sum              "Fe4 H48 C72 N24"
_cell_length_a       7.51706
_cell_length_b       14.05691
_cell_length_c       23.44448
_cell_angle_alpha    87.55007999999998
_cell_angle_beta     80.78443
_cell_angle_gamma    74.50799

_space_group_name_H-M_alt    "P 1"
_space_group_IT_number       1

loop_
  _space_group_symop_operation_xyz
  'x, y, z'

loop_
  _atom_site_type_symbol
  _atom_site_label
  _atom_site_symmetry_multiplicity
  _atom_site_fract_x
  _atom_site_fract_y
  _atom_site_fract_z
  _atom_site_occupancy
  Fe  Fe1       1.0  0.1296700000000002  0.7501299999999997  0.24038999999999996  1.0000
  Fe  Fe2       1.0  0.6202699999999998  0.7501199999999999  0.25959  1.0000
  Fe  Fe3       1.0  0.87035  0.24987999999999996  0.75961  1.0000
  Fe  Fe4       1.0  0.37973999999999997  0.24989  0.7404  1.0000
  H   H1        1.0  0.6645000000000002  0.00919  0.08224  1.0000
  H   H2        1.0  0.68155  0.8784999999999998  0.14724  1.0000
  H   H3        1.0  0.14387000000000008  0.8613099999999999  0.11119999999999998  1.0000
  H   H4        1.0  0.2666000000000001  0.9022499999999998  0.007689999999999999  1.0000
  H   H5        1.0  0.95664  0.15961  0.25054  1.0000
  H   H6        1.0  0.04277000000000008  0.9894999999999998  0.21924999999999997  1.0000
  H   H7        1.0  0.75265  0.49087  0.08206  1.0000
  H   H8        1.0  0.6703299999999999  0.62192  0.14743  1.0000
  H   H9        1.0  0.24408999999999995  0.63882  0.11092  1.0000
  H   H10       1.0  0.22479999999999997  0.59825  0.00779  1.0000
  H   H11       1.0  0.29263999999999996  0.3409099999999999  0.25056  1.0000
  H   H12       1.0  0.23781000000000013  0.51101  0.21913  1.0000
  H   H13       1.0  0.82697  0.00917  0.4176099999999999  1.0000
  H   H14       1.0  0.9401000000000004  0.8780399999999998  0.35305  1.0000
  H   H15       1.0  0.4951600000000001  0.8612599999999998  0.38878  1.0000
  H   H16       1.0  0.33117000000000013  0.9023899999999998  0.49246  1.0000
  H   H17       1.0  0.3846300000000001  0.15906  0.24940999999999997  1.0000
  H   H18       1.0  0.46804  0.98961  0.28091  1.0000
  H   H19       1.0  0.25611000000000006  0.4908499999999999  0.41784  1.0000
  H   H20       1.0  0.20746000000000003  0.62248  0.35292999999999997  1.0000
  H   H21       1.0  0.61716  0.6386599999999999  0.38901  1.0000
  H   H22       1.0  0.67695  0.59821  0.49229  1.0000
  H   H23       1.0  0.8656700000000002  0.34145  0.24942  1.0000
  H   H24       1.0  0.7507899999999998  0.51088  0.28098  1.0000
  H   H25       1.0  0.33551000000000025  0.9908199999999998  0.9177599999999998  1.0000
  H   H26       1.0  0.31846000000000024  0.12149999999999998  0.85275  1.0000
  H   H27       1.0  0.8561400000000002  0.1387  0.8888  1.0000
  H   H28       1.0  0.7334100000000003  0.09775999999999997  0.9923099999999998  1.0000
  H   H29       1.0  0.04337000000000005  0.8404  0.74946  1.0000
  H   H30       1.0  0.9572400000000001  0.010509999999999997  0.78075  1.0000
  H   H31       1.0  0.24736000000000002  0.50914  0.91794  1.0000
  H   H32       1.0  0.3296800000000001  0.37808999999999987  0.85257  1.0000
  H   H33       1.0  0.7559200000000005  0.36119  0.8890799999999998  1.0000
  H   H34       1.0  0.77521  0.40176  0.99221  1.0000
  H   H35       1.0  0.7073700000000003  0.6590999999999998  0.7494399999999999  1.0000
  H   H36       1.0  0.7622  0.4889999999999999  0.78087  1.0000
  H   H37       1.0  0.1730399999999999  0.99084  0.58238  1.0000
  H   H38       1.0  0.05991000000000002  0.12197  0.64695  1.0000
  H   H39       1.0  0.5048500000000002  0.13874999999999998  0.61121  1.0000
  H   H40       1.0  0.6688400000000002  0.09761999999999998  0.50753  1.0000
  H   H41       1.0  0.6153800000000001  0.8409499999999999  0.7505899999999999  1.0000
  H   H42       1.0  0.5319800000000003  0.010399999999999998  0.71909  1.0000
  H   H43       1.0  0.7439000000000001  0.50916  0.58216  1.0000
  H   H44       1.0  0.7925499999999999  0.37752  0.64707  1.0000
  H   H45       1.0  0.38284999999999986  0.36135  0.61099  1.0000
  H   H46       1.0  0.3230599999999999  0.40179999999999993  0.5077  1.0000
  H   H47       1.0  0.13434000000000007  0.65856  0.7505799999999999  1.0000
  H   H48       1.0  0.2492300000000002  0.4891299999999999  0.7190199999999998  1.0000
  C   C1        1.0  0.5931200000000002  0.004109999999999999  0.04608  1.0000
  C   C2        1.0  0.4602400000000001  0.9485099999999999  0.05218  1.0000
  C   C3        1.0  0.42455000000000004  0.8948299999999998  0.10565  1.0000
  C   C4        1.0  0.54446  0.86742  0.14743  1.0000
  C   C5        1.0  0.27179000000000003  0.85726  0.12804  1.0000
  C   C6        1.0  0.3674400000000001  0.9458699999999998  0.00487  1.0000
  C   C7        1.0  0.8113500000000001  0.19904999999999995  0.25003  1.0000
  C   C8        1.0  0.9104700000000004  0.9730999999999999  0.23453  1.0000
  C   C9        1.0  0.86041  0.49594999999999995  0.04596999999999999  1.0000
  C   C10       1.0  0.98676  0.55178  0.05215  1.0000
  C   C11       1.0  0.9687300000000003  0.6055999999999999  0.10558999999999998  1.0000
  C   C12       1.0  0.8073300000000001  0.63299  0.14746  1.0000
  C   C13       1.0  0.09939  0.64306  0.12791  1.0000
  C   C14       1.0  0.12713  0.55443  0.00492  1.0000
  C   C15       1.0  0.43843000000000004  0.3014  0.25004  1.0000
  C   C16       1.0  0.35483000000000026  0.52733  0.23447999999999994  1.0000
  C   C17       1.0  0.9031000000000001  0.00409  0.45385  1.0000
  C   C18       1.0  0.09153000000000001  0.94854  0.44785  1.0000
  C   C19       1.0  0.1809  0.89473  0.39442  1.0000
  C   C20       1.0  0.0882900000000002  0.8671199999999998  0.35273  1.0000
  C   C21       1.0  0.37120000000000014  0.85715  0.3720099999999999  1.0000
  C   C22       1.0  0.1867400000000001  0.9459299999999998  0.49521  1.0000
  C   C23       1.0  0.49007999999999996  0.1988  0.24994  1.0000
  C   C24       1.0  0.6166900000000001  0.97315  0.26556  1.0000
  C   C25       1.0  0.1434400000000001  0.4959199999999999  0.45397  1.0000
  C   C26       1.0  0.9613  0.55178  0.4478599999999999  1.0000
  C   C27       1.0  0.92555  0.60572  0.39443  1.0000
  C   C28       1.0  0.05955000000000004  0.63338  0.35269  1.0000
  C   C29       1.0  0.7575500000000001  0.64307  0.37204999999999994  1.0000
  C   C30       1.0  0.8184299999999999  0.55442  0.49511999999999995  1.0000
  C   C31       1.0  0.75978  0.30165  0.24994  1.0000
  C   C32       1.0  0.6175599999999999  0.52728  0.26556  1.0000
  C   C33       1.0  0.4068900000000001  0.9958999999999998  0.9539199999999999  1.0000
  C   C34       1.0  0.53977  0.051489999999999994  0.94782  1.0000
  C   C35       1.0  0.5754599999999999  0.10516999999999997  0.8943499999999999  1.0000
  C   C36       1.0  0.45555000000000007  0.13259  0.85257  1.0000
  C   C37       1.0  0.7282200000000004  0.14275  0.87196  1.0000
  C   C38       1.0  0.63257  0.05414  0.9951299999999998  1.0000
  C   C39       1.0  0.1886700000000001  0.8009599999999998  0.74997  1.0000
  C   C40       1.0  0.08954000000000002  0.026909999999999996  0.76547  1.0000
  C   C41       1.0  0.13960000000000014  0.5040599999999998  0.95403  1.0000
  C   C42       1.0  0.01325000000000006  0.4482299999999999  0.94785  1.0000
  C   C43       1.0  0.03127999999999999  0.39441  0.8944  1.0000
  C   C44       1.0  0.19268000000000002  0.36702  0.85254  1.0000
  C   C45       1.0  0.9006200000000003  0.3569499999999999  0.8720799999999997  1.0000
  C   C46       1.0  0.87288  0.44558  0.99508  1.0000
  C   C47       1.0  0.5615899999999999  0.6986099999999997  0.74996  1.0000
  C   C48       1.0  0.6451800000000001  0.47266999999999987  0.76552  1.0000
  C   C49       1.0  0.09691999999999996  0.99592  0.54615  1.0000
  C   C50       1.0  0.90848  0.05146999999999999  0.55215  1.0000
  C   C51       1.0  0.81911  0.10528  0.60557  1.0000
  C   C52       1.0  0.91172  0.13288  0.64727  1.0000
  C   C53       1.0  0.62881  0.14286  0.62799  1.0000
  C   C54       1.0  0.8132699999999999  0.054079999999999996  0.50479  1.0000
  C   C55       1.0  0.5099300000000003  0.8011999999999998  0.7500599999999997  1.0000
  C   C56       1.0  0.38332000000000005  0.02685999999999999  0.7344399999999999  1.0000
  C   C57       1.0  0.85657  0.50408  0.54602  1.0000
  C   C58       1.0  0.03870999999999999  0.44822  0.55214  1.0000
  C   C59       1.0  0.07446000000000004  0.3942899999999999  0.60556  1.0000
  C   C60       1.0  0.9404600000000001  0.36662999999999996  0.64731  1.0000
  C   C61       1.0  0.24245999999999993  0.35693  0.62795  1.0000
  C   C62       1.0  0.1815800000000001  0.44558999999999993  0.50488  1.0000
  C   C63       1.0  0.2402300000000001  0.69836  0.7500599999999997  1.0000
  C   C64       1.0  0.3824500000000001  0.4727299999999999  0.7344399999999999  1.0000
  C   C65       1.0  0.6776300000000002  0.14524999999999996  0.24999  1.0000
  C   C66       1.0  0.7314400000000002  0.03758  0.25004  1.0000
  C   C67       1.0  0.5721800000000001  0.3551899999999999  0.25  1.0000
  C   C68       1.0  0.51831  0.4628499999999999  0.25003  1.0000
  C   C69       1.0  0.32238000000000006  0.8547599999999997  0.75001  1.0000
  C   C70       1.0  0.2685700000000001  0.9624299999999999  0.74996  1.0000
  C   C71       1.0  0.42783000000000004  0.64482  0.7499999999999999  1.0000
  C   C72       1.0  0.48170000000000046  0.53716  0.74997  1.0000
  N   N1        1.0  0.4695500000000001  0.8181299999999998  0.19109  1.0000
  N   N2        1.0  0.29962  0.81205  0.17933  1.0000
  N   N3        1.0  0.90231  0.8784299999999999  0.24045999999999995  1.0000
  N   N4        1.0  0.8390400000000001  0.6821999999999998  0.19109  1.0000
  N   N5        1.0  0.020750000000000046  0.6882399999999999  0.17923999999999998  1.0000
  N   N6        1.0  0.35712  0.62199  0.2404  1.0000
  N   N7        1.0  0.21237000000000003  0.81782  0.30906  1.0000
  N   N8        1.0  0.3884000000000003  0.81184  0.32076  1.0000
  N   N9        1.0  0.7193300000000001  0.87846  0.2596  1.0000
  N   N10       1.0  0.9788  0.68257  0.30903  1.0000
  N   N11       1.0  0.7911300000000001  0.6883899999999997  0.32077  1.0000
  N   N12       1.0  0.5208900000000001  0.6219599999999997  0.25958  1.0000
  N   N13       1.0  0.53046  0.18186999999999995  0.80891  1.0000
  N   N14       1.0  0.7004000000000005  0.18795  0.8206699999999999  1.0000
  N   N15       1.0  0.09770000000000001  0.12157  0.75954  1.0000
  N   N16       1.0  0.16097000000000006  0.31780999999999987  0.80891  1.0000
  N   N17       1.0  0.9792600000000001  0.31177  0.8207599999999999  1.0000
  N   N18       1.0  0.6428900000000001  0.37801999999999997  0.7595999999999999  1.0000
  N   N19       1.0  0.78764  0.18219  0.69094  1.0000
  N   N20       1.0  0.6116100000000002  0.18816999999999995  0.67924  1.0000
  N   N21       1.0  0.2806800000000001  0.12154999999999998  0.7404  1.0000
  N   N22       1.0  0.021210000000000017  0.31744  0.69097  1.0000
  N   N23       1.0  0.20888999999999996  0.31161999999999995  0.67922  1.0000
  N   N24       1.0  0.47912  0.37805  0.7404199999999999  1.0000
