data_image0
_chemical_formula_structural       Ho4H36C76O24
_chemical_formula_sum              "Ho4 H36 C76 O24"
_cell_length_a       13.90013
_cell_length_b       13.847010000000001
_cell_length_c       15.8733
_cell_angle_alpha    95.14184
_cell_angle_beta     115.77557000000002
_cell_angle_gamma    90.05242

_symmetry_space_group_name_H-M    'P 1'
_symmetry_Int_Tables_number       1

loop_
  _symmetry_equiv_pos_as_xyz
  'x,y,z'

loop_
  _atom_site_type_symbol
  _atom_site_label
  _atom_site_symmetry_multiplicity
  _atom_site_fract_x
  _atom_site_fract_y
  _atom_site_fract_z
  _atom_site_occupancy
  Ho  Ho1       1.0  0.6092900000000001  0.52607  0.6228700000000003  1.0000
  Ho  Ho2       1.0  0.9855699999999998  0.97628  0.3795100000000001  1.0000
  Ho  Ho3       1.0  0.39365000000000006  0.47872  0.3803300000000001  1.0000
  Ho  Ho4       1.0  0.014610000000000034  0.021419999999999998  0.62484  1.0000
  H   H1        1.0  0.82153  0.29802  0.55199  1.0000
  H   H2        1.0  0.60913  0.42726  0.30425000000000013  1.0000
  H   H3        1.0  0.82663  0.21271  0.28688  1.0000
  H   H4        1.0  0.51618  0.35917  0.1491  1.0000
  H   H5        1.0  0.46866  0.40345999999999993  0.98885  1.0000
  H   H6        1.0  0.5277200000000001  0.45508  0.8709200000000002  1.0000
  H   H7        1.0  0.8547300000000001  0.42618  0.9185400000000002  1.0000
  H   H8        1.0  0.89729  0.35705  0.07012  1.0000
  H   H9        1.0  0.8432399999999999  0.32526  0.19472  1.0000
  H   H10       1.0  0.27249000000000007  0.20302  0.45162000000000013  1.0000
  H   H11       1.0  0.3061  0.07374  0.69942  1.0000
  H   H12       1.0  0.54229  0.2869  0.71625  1.0000
  H   H13       1.0  0.36994000000000005  0.13972  0.8551700000000002  1.0000
  H   H14       1.0  0.48285  0.09541  0.015040000000000001  1.0000
  H   H15       1.0  0.6597899999999999  0.04378999999999999  0.13203  1.0000
  H   H16       1.0  0.9380199999999999  0.07483  0.08228  1.0000
  H   H17       1.0  0.8282700000000001  0.14262  0.9304800000000001  1.0000
  H   H18       1.0  0.6499400000000002  0.17363000000000006  0.8068300000000003  1.0000
  H   H19       1.0  0.17788000000000007  0.701  0.4512400000000001  1.0000
  H   H20       1.0  0.39422  0.57529  0.69964  1.0000
  H   H21       1.0  0.1735299999999999  0.7865399999999999  0.71664  1.0000
  H   H22       1.0  0.4853000000000001  0.64078  0.8545200000000002  1.0000
  H   H23       1.0  0.532  0.59596  0.01451  1.0000
  H   H24       1.0  0.47192  0.54472  0.13192  1.0000
  H   H25       1.0  0.14477  0.57495  0.08347000000000003  1.0000
  H   H26       1.0  0.10290999999999989  0.64299  0.93129  1.0000
  H   H27       1.0  0.15796000000000007  0.67458  0.8076900000000002  1.0000
  H   H28       1.0  0.72672  0.8009699999999998  0.55198  1.0000
  H   H29       1.0  0.69724  0.92643  0.3035700000000001  1.0000
  H   H30       1.0  0.46028  0.71388  0.2861700000000001  1.0000
  H   H31       1.0  0.6333  0.8602899999999999  0.14695  1.0000
  H   H32       1.0  0.51923  0.90425  0.9870100000000003  1.0000
  H   H33       1.0  0.3415800000000001  0.95607  0.8710300000000002  1.0000
  H   H34       1.0  0.06424000000000007  0.92093  0.9213400000000003  1.0000
  H   H35       1.0  0.17563  0.85384  0.07343000000000002  1.0000
  H   H36       1.0  0.35433  0.82511  0.19652  1.0000
  C   C1        1.0  0.83137  0.2469  0.42322  1.0000
  C   C2        1.0  0.79148  0.30386  0.47705  1.0000
  C   C3        1.0  0.7108000000000001  0.36788  0.43297000000000013  1.0000
  C   C4        1.0  0.67139  0.37642  0.33639  1.0000
  C   C5        1.0  0.71542  0.3233699999999999  0.2828  1.0000
  C   C6        1.0  0.7940699999999999  0.25762  0.32718  1.0000
  C   C7        1.0  0.9113599999999997  0.17246  0.46516  1.0000
  C   C8        1.0  0.6705599999999999  0.4286299999999999  0.49143000000000003  1.0000
  C   C9        1.0  0.68417  0.34042999999999995  0.18364  1.0000
  C   C10       1.0  0.57711  0.36184  0.12348  1.0000
  C   C11       1.0  0.55053  0.38671  0.0341  1.0000
  C   C12       1.0  0.62977  0.39505  0.0007900000000000002  1.0000
  C   C13       1.0  0.6079899999999999  0.43334  0.91486  1.0000
  C   C14       1.0  0.68891  0.44700999999999996  0.88756  1.0000
  C   C15       1.0  0.79376  0.41686000000000006  0.9431  1.0000
  C   C16       1.0  0.8167999999999999  0.37874  0.026640000000000007  1.0000
  C   C17       1.0  0.7369  0.36955  0.05927  1.0000
  C   C18       1.0  0.76101  0.34123  0.14960000000000004  1.0000
  C   C19       1.0  0.6666300000000001  0.4949199999999999  0.8015600000000003  1.0000
  C   C20       1.0  0.4107800000000001  0.25367  0.5802800000000002  1.0000
  C   C21       1.0  0.31704999999999994  0.19691  0.5265  1.0000
  C   C22       1.0  0.27993  0.13289999999999996  0.57054  1.0000
  C   C23       1.0  0.3368200000000001  0.1241  0.6670700000000003  1.0000
  C   C24       1.0  0.43475000000000014  0.17639  0.7204200000000002  1.0000
  C   C25       1.0  0.46941  0.24223999999999996  0.6761  1.0000
  C   C26       1.0  0.44914999999999994  0.32862  0.53875  1.0000
  C   C27       1.0  0.18047999999999995  0.07285999999999997  0.51243  1.0000
  C   C28       1.0  0.50261  0.15864999999999999  0.8192700000000002  1.0000
  C   C29       1.0  0.45625  0.13713999999999996  0.88014  1.0000
  C   C30       1.0  0.51922  0.11225000000000002  0.9693800000000002  1.0000
  C   C31       1.0  0.63147  0.104  0.00193  1.0000
  C   C32       1.0  0.69588  0.0657  0.0877  1.0000
  C   C33       1.0  0.8039  0.05261  0.11427  1.0000
  C   C34       1.0  0.85262  0.08339  0.05816  1.0000
  C   C35       1.0  0.7917000000000001  0.12091000000000002  0.9745400000000002  1.0000
  C   C36       1.0  0.6794899999999999  0.12962  0.94268  1.0000
  C   C37       1.0  0.61314  0.15776999999999997  0.8524700000000001  1.0000
  C   C38       1.0  0.8684899999999999  0.005049999999999999  0.20013  1.0000
  C   C39       1.0  0.16876000000000008  0.75249  0.5802600000000002  1.0000
  C   C40       1.0  0.20868  0.69577  0.52633  1.0000
  C   C41       1.0  0.29051000000000005  0.63297  0.5706400000000003  1.0000
  C   C42       1.0  0.3308000000000001  0.62506  0.6673300000000002  1.0000
  C   C43       1.0  0.28611000000000003  0.67728  0.7207700000000002  1.0000
  C   C44       1.0  0.20648000000000005  0.74213  0.67636  1.0000
  C   C45       1.0  0.08859000000000004  0.8264599999999999  0.5383000000000001  1.0000
  C   C46       1.0  0.33145999999999987  0.57306  0.51227  1.0000
  C   C47       1.0  0.31733  0.65996  0.81969  1.0000
  C   C48       1.0  0.42417999999999995  0.6382  0.87986  1.0000
  C   C49       1.0  0.45033000000000006  0.61304  0.9690300000000001  1.0000
  C   C50       1.0  0.37068  0.6048199999999999  0.0018600000000000005  1.0000
  C   C51       1.0  0.39187  0.56669  0.08766  1.0000
  C   C52       1.0  0.31062  0.55377  0.11469000000000003  1.0000
  C   C53       1.0  0.20584  0.58382  0.05893  1.0000
  C   C54       1.0  0.18327000000000007  0.62141  0.9752700000000002  1.0000
  C   C55       1.0  0.2636600000000001  0.63033  0.9432100000000002  1.0000
  C   C56       1.0  0.24007999999999996  0.65877  0.85315  1.0000
  C   C57       1.0  0.33277999999999996  0.50682  0.20101000000000005  1.0000
  C   C58       1.0  0.58993  0.7492899999999998  0.42275  1.0000
  C   C59       1.0  0.68324  0.80609  0.4768500000000001  1.0000
  C   C60       1.0  0.72135  0.86877  0.43267  1.0000
  C   C61       1.0  0.66591  0.8766199999999997  0.3359  1.0000
  C   C62       1.0  0.56844  0.82391  0.28222  1.0000
  C   C63       1.0  0.53281  0.75893  0.32654  1.0000
  C   C64       1.0  0.5511300000000001  0.67606  0.46505000000000013  1.0000
  C   C65       1.0  0.82048  0.92803  0.4915400000000001  1.0000
  C   C66       1.0  0.50104  0.8408199999999998  0.18327000000000002  1.0000
  C   C67       1.0  0.54701  0.86249  0.12221  1.0000
  C   C68       1.0  0.48346  0.8872  0.03305  1.0000
  C   C69       1.0  0.37122  0.89488  0.00099  1.0000
  C   C70       1.0  0.30612  0.93314  0.9154700000000002  1.0000
  C   C71       1.0  0.19796999999999995  0.9449  0.8892  1.0000
  C   C72       1.0  0.1497700000000001  0.9133  0.9453900000000002  1.0000
  C   C73       1.0  0.21144  0.87621  0.02902  1.0000
  C   C74       1.0  0.32368  0.86866  0.06040000000000001  1.0000
  C   C75       1.0  0.3906  0.84103  0.15051  1.0000
  C   C76       1.0  0.13263000000000008  0.9924  0.8036300000000002  1.0000
  O   O1        1.0  0.94722  0.12835  0.41124  1.0000
  O   O2        1.0  0.93826  0.15548  0.5504900000000001  1.0000
  O   O3        1.0  0.72937  0.44744  0.57908  1.0000
  O   O4        1.0  0.57584  0.46237  0.4537100000000001  1.0000
  O   O5        1.0  0.73842  0.5004  0.77105  1.0000
  O   O6        1.0  0.57424  0.52926  0.75456  1.0000
  O   O7        1.0  0.53877  0.37243999999999994  0.59213  1.0000
  O   O8        1.0  0.39063  0.34627  0.4535500000000001  1.0000
  O   O9        1.0  0.15231000000000003  0.05261  0.42497  1.0000
  O   O10       1.0  0.12264  0.041679999999999995  0.55071  1.0000
  O   O11       1.0  0.97096  0.004660000000000001  0.23245000000000005  1.0000
  O   O12       1.0  0.82316  0.9660099999999999  0.24549000000000007  1.0000
  O   O13       1.0  0.05292999999999994  0.871  0.5922  1.0000
  O   O14       1.0  0.061050000000000056  0.84292  0.4527500000000001  1.0000
  O   O15       1.0  0.27175  0.55255  0.425  1.0000
  O   O16       1.0  0.42756  0.54252  0.54984  1.0000
  O   O17       1.0  0.2621800000000001  0.50416  0.23307000000000005  1.0000
  O   O18       1.0  0.4246400000000001  0.47088  0.24695  1.0000
  O   O19       1.0  0.46149  0.63214  0.41192  1.0000
  O   O20       1.0  0.60938  0.65997  0.55072  1.0000
  O   O21       1.0  0.8474699999999997  0.94818  0.5788300000000001  1.0000
  O   O22       1.0  0.8798399999999998  0.9581199999999999  0.4543  1.0000
  O   O23       1.0  0.029960000000000018  0.99064  0.77115  1.0000
  O   O24       1.0  0.17733000000000004  0.033380000000000014  0.7588500000000002  1.0000
