data_image0
_chemical_formula_structural       Cu6H42C54N6O18
_chemical_formula_sum              "Cu6 H42 C54 N6 O18"
_cell_length_a       7.06191
_cell_length_b       15.703370000000001
_cell_length_c       15.69195
_cell_angle_alpha    117.87403
_cell_angle_beta     98.57659
_cell_angle_gamma    98.66865

_space_group_name_H-M_alt    "P 1"
_space_group_IT_number       1

loop_
  _space_group_symop_operation_xyz
  'x, y, z'

loop_
  _atom_site_type_symbol
  _atom_site_label
  _atom_site_symmetry_multiplicity
  _atom_site_fract_x
  _atom_site_fract_y
  _atom_site_fract_z
  _atom_site_occupancy
  Cu  Cu1       1.0  0.6394799999999999  0.53254  0.10027  1.0000
  Cu  Cu2       1.0  0.10643000000000007  0.5677  0.46742  1.0000
  Cu  Cu3       1.0  0.53849  0.89959  0.4322  1.0000
  Cu  Cu4       1.0  0.36053999999999997  0.46746999999999994  0.8997199999999999  1.0000
  Cu  Cu5       1.0  0.8935900000000006  0.4323100000000001  0.53258  1.0000
  Cu  Cu6       1.0  0.46153  0.10042000000000001  0.5678  1.0000
  H   H1        1.0  0.09158  0.63124  0.29476  1.0000
  H   H2        1.0  0.09137000000000003  0.50689  0.20979  1.0000
  H   H3        1.0  0.20687999999999995  0.6301499999999998  0.14259  1.0000
  H   H4        1.0  0.29536000000000007  0.6987299999999997  0.05513999999999999  1.0000
  H   H5        1.0  0.23033000000000003  0.7511399999999998  0.9279  1.0000
  H   H6        1.0  0.88113  0.7110799999999998  0.83201  1.0000
  H   H7        1.0  0.6072  0.6160899999999998  0.85907  1.0000
  H   H8        1.0  0.4600499999999999  0.6630299999999998  0.36865999999999993  1.0000
  H   H9        1.0  0.5851599999999999  0.7025199999999998  0.49294  1.0000
  H   H10       1.0  0.5765799999999999  0.5123399999999998  0.36989999999999995  1.0000
  H   H11       1.0  0.59677  0.35607999999999995  0.30146  1.0000
  H   H12       1.0  0.4796100000000001  0.17644  0.24962  1.0000
  H   H13       1.0  0.1694100000000001  0.1206  0.28893  1.0000
  H   H14       1.0  0.9900100000000004  0.24270999999999995  0.38348  1.0000
  H   H15       1.0  0.79579  0.70527  0.33621  1.0000
  H   H16       1.0  0.88155  0.78986  0.29665  1.0000
  H   H17       1.0  0.06320999999999995  0.8572499999999998  0.48735  1.0000
  H   H18       1.0  0.23948999999999998  0.9453399999999998  0.64355  1.0000
  H   H19       1.0  0.30204  0.07305000000000002  0.82341  1.0000
  H   H20       1.0  0.04830000000000005  0.16843  0.87958  1.0000
  H   H21       1.0  0.7469600000000002  0.14097999999999994  0.75748  1.0000
  H   H22       1.0  0.9084399999999999  0.36876  0.70523  1.0000
  H   H23       1.0  0.90864  0.49312  0.79021  1.0000
  H   H24       1.0  0.79313  0.3698599999999999  0.85741  1.0000
  H   H25       1.0  0.7046600000000001  0.30126999999999987  0.94486  1.0000
  H   H26       1.0  0.76969  0.24885999999999994  0.0721  1.0000
  H   H27       1.0  0.11888000000000001  0.28892  0.16798999999999997  1.0000
  H   H28       1.0  0.39282  0.38392  0.14093  1.0000
  H   H29       1.0  0.53996  0.3369799999999999  0.63134  1.0000
  H   H30       1.0  0.41486  0.29749  0.50706  1.0000
  H   H31       1.0  0.42342999999999986  0.48765999999999976  0.6300999999999998  1.0000
  H   H32       1.0  0.40324  0.6439199999999998  0.69854  1.0000
  H   H33       1.0  0.52041  0.82356  0.75038  1.0000
  H   H34       1.0  0.8306100000000001  0.8793999999999997  0.71106  1.0000
  H   H35       1.0  0.009999999999999756  0.7572899999999996  0.6165199999999997  1.0000
  H   H36       1.0  0.20422999999999997  0.2947299999999999  0.66379  1.0000
  H   H37       1.0  0.11846  0.21015  0.70335  1.0000
  H   H38       1.0  0.9368100000000003  0.14274999999999993  0.51265  1.0000
  H   H39       1.0  0.76052  0.054669999999999996  0.35645  1.0000
  H   H40       1.0  0.69798  0.9269599999999998  0.17658999999999994  1.0000
  H   H41       1.0  0.9517200000000002  0.83158  0.12042  1.0000
  H   H42       1.0  0.25306  0.85902  0.24252  1.0000
  C   C1        1.0  0.82721  0.5216499999999997  0.2613  1.0000
  C   C2        1.0  0.9996300000000001  0.5607799999999997  0.23044999999999993  1.0000
  C   C3        1.0  0.04660999999999998  0.61126  0.11107  1.0000
  C   C4        1.0  0.98947  0.63168  0.0318  1.0000
  C   C5        1.0  0.14515  0.68245  0.01195  1.0000
  C   C6        1.0  0.10912999999999991  0.7115299999999998  0.94137  1.0000
  C   C7        1.0  0.9133000000000002  0.6888299999999998  0.8876999999999999  1.0000
  C   C8        1.0  0.75759  0.6363  0.90296  1.0000
  C   C9        1.0  0.7904700000000001  0.60582  0.97447  1.0000
  C   C10       1.0  0.30624  0.73953  0.4784699999999999  1.0000
  C   C11       1.0  0.4391699999999999  0.6694199999999998  0.4392699999999999  1.0000
  C   C12       1.0  0.43521  0.49962  0.38879  1.0000
  C   C13       1.0  0.35775  0.39989999999999987  0.36837  1.0000
  C   C14       1.0  0.4627500000000001  0.32924999999999993  0.31774999999999987  1.0000
  C   C15       1.0  0.39762  0.22956  0.28879  1.0000
  C   C16       1.0  0.22402999999999998  0.19856999999999997  0.31121  1.0000
  C   C17       1.0  0.12068  0.2664099999999999  0.3635699999999999  1.0000
  C   C18       1.0  0.18456  0.36849  0.39424  1.0000
  C   C19       1.0  0.56551  0.7385899999999999  0.26012  1.0000
  C   C20       1.0  0.7688299999999999  0.7695399999999998  0.3299899999999999  1.0000
  C   C21       1.0  0.9348100000000001  0.8890299999999998  0.50006  1.0000
  C   C22       1.0  0.95702  0.9684799999999999  0.5999  1.0000
  C   C23       1.0  0.13257  0.98856  0.67054  1.0000
  C   C24       1.0  0.16725  0.05935999999999997  0.77032  1.0000
  C   C25       1.0  0.02486000000000001  0.11282999999999997  0.80147  1.0000
  C   C26       1.0  0.85377  0.09731999999999998  0.73367  1.0000
  C   C27       1.0  0.8153900000000002  0.025790000000000042  0.6315  1.0000
  C   C28       1.0  0.17281000000000002  0.4783599999999999  0.7387  1.0000
  C   C29       1.0  0.0003899999999998946  0.43923  0.7695499999999997  1.0000
  C   C30       1.0  0.9534099999999999  0.38873999999999975  0.8889299999999998  1.0000
  C   C31       1.0  0.01055  0.36831999999999987  0.9682  1.0000
  C   C32       1.0  0.85487  0.3175599999999999  0.98805  1.0000
  C   C33       1.0  0.8908900000000002  0.28847  0.05863  1.0000
  C   C34       1.0  0.08671999999999995  0.3111799999999999  0.11229999999999998  1.0000
  C   C35       1.0  0.24243  0.3637  0.09704  1.0000
  C   C36       1.0  0.20953999999999995  0.39417999999999986  0.02553  1.0000
  C   C37       1.0  0.69378  0.26046999999999987  0.52152  1.0000
  C   C38       1.0  0.5608499999999998  0.3305899999999998  0.56073  1.0000
  C   C39       1.0  0.5647999999999999  0.50038  0.6112  1.0000
  C   C40       1.0  0.64227  0.6001099999999998  0.63162  1.0000
  C   C41       1.0  0.5372699999999999  0.6707599999999998  0.6822499999999999  1.0000
  C   C42       1.0  0.6023999999999999  0.7704499999999996  0.7112099999999999  1.0000
  C   C43       1.0  0.77599  0.80143  0.68879  1.0000
  C   C44       1.0  0.87933  0.73359  0.63643  1.0000
  C   C45       1.0  0.8154599999999999  0.63152  0.60576  1.0000
  C   C46       1.0  0.43451  0.26141  0.73988  1.0000
  C   C47       1.0  0.23119  0.23047  0.67001  1.0000
  C   C48       1.0  0.06519999999999994  0.11096999999999994  0.4999299999999999  1.0000
  C   C49       1.0  0.042999999999999955  0.031529999999999954  0.40009999999999996  1.0000
  C   C50       1.0  0.86745  0.011440000000000006  0.32946  1.0000
  C   C51       1.0  0.8327700000000002  0.94065  0.22968  1.0000
  C   C52       1.0  0.97515  0.8871799999999999  0.19853  1.0000
  C   C53       1.0  0.1462499999999999  0.9026799999999998  0.26633  1.0000
  C   C54       1.0  0.18461999999999995  0.9742199999999998  0.3685  1.0000
  N   N1        1.0  0.92536  0.57544  0.14766  1.0000
  N   N2        1.0  0.3498  0.572  0.42459  1.0000
  N   N3        1.0  0.7773199999999999  0.8524899999999997  0.42753999999999986  1.0000
  N   N4        1.0  0.07466000000000006  0.42456  0.85234  1.0000
  N   N5        1.0  0.6502200000000002  0.428  0.57541  1.0000
  N   N6        1.0  0.22268999999999997  0.14752  0.57246  1.0000
  O   O1        1.0  0.6504300000000002  0.5058  0.21109  1.0000
  O   O2        1.0  0.85723  0.50635  0.33327  1.0000
  O   O3        1.0  0.63851  0.5536299999999998  0.9859299999999999  1.0000
  O   O4        1.0  0.14484999999999992  0.7051999999999998  0.49411999999999995  1.0000
  O   O5        1.0  0.3519200000000001  0.82675  0.49369  1.0000
  O   O6        1.0  0.08546999999999992  0.43241999999999997  0.44668999999999986  1.0000
  O   O7        1.0  0.4387900000000001  0.78864  0.29458  1.0000
  O   O8        1.0  0.52353  0.66641  0.17281999999999997  1.0000
  O   O9        1.0  0.65207  0.014129999999999962  0.56774  1.0000
  O   O10       1.0  0.34957999999999995  0.49419999999999986  0.78891  1.0000
  O   O11       1.0  0.14279  0.49365999999999993  0.6667299999999999  1.0000
  O   O12       1.0  0.36151  0.4463699999999999  0.01406  1.0000
  O   O13       1.0  0.8551699999999999  0.2947999999999999  0.50588  1.0000
  O   O14       1.0  0.6481  0.17326  0.50631  1.0000
  O   O15       1.0  0.91455  0.56759  0.55331  1.0000
  O   O16       1.0  0.56123  0.21135999999999994  0.70542  1.0000
  O   O17       1.0  0.4764899999999999  0.3335999999999999  0.8271699999999997  1.0000
  O   O18       1.0  0.34794999999999987  0.9858799999999999  0.43225999999999987  1.0000
