data_image0
_chemical_formula_structural       Tb4H36C76O24
_chemical_formula_sum              "Tb4 H36 C76 O24"
_cell_length_a       13.60697
_cell_length_b       14.869340000000001
_cell_length_c       16.01396
_cell_angle_alpha    117.54816
_cell_angle_beta     95.33917
_cell_angle_gamma    89.8246

_symmetry_space_group_name_H-M    'P 1'
_symmetry_Int_Tables_number       1

loop_
  _symmetry_equiv_pos_as_xyz
  'x,y,z'

loop_
  _atom_site_type_symbol
  _atom_site_label
  _atom_site_symmetry_multiplicity
  _atom_site_fract_x
  _atom_site_fract_y
  _atom_site_fract_z
  _atom_site_occupancy
  Tb  Tb1       1.0  0.48323  0.3994  0.37554999999999994  1.0000
  Tb  Tb2       1.0  0.018799999999999997  0.022809999999999955  0.62491  1.0000
  Tb  Tb3       1.0  0.5167999999999999  0.60141  0.6241599999999998  1.0000
  Tb  Tb4       1.0  0.98333  0.97736  0.37558  1.0000
  H   H1        1.0  0.715  0.19186000000000006  0.44493  1.0000
  H   H2        1.0  0.5834600000000002  0.40221  0.69354  1.0000
  H   H3        1.0  0.78798  0.18729  0.70965  1.0000
  H   H4        1.0  0.6448399999999999  0.48826  0.85235  1.0000
  H   H5        1.0  0.59951  0.53422  0.01256  1.0000
  H   H6        1.0  0.54736  0.4787400000000001  0.1288  1.0000
  H   H7        1.0  0.58024  0.16937000000000005  0.07363999999999997  1.0000
  H   H8        1.0  0.64825  0.1279899999999999  0.9208799999999998  1.0000
  H   H9        1.0  0.6781600000000001  0.17817000000000002  0.79877  1.0000
  H   H10       1.0  0.7877  0.7479000000000002  0.55481  1.0000
  H   H11       1.0  0.91816  0.7078700000000001  0.3052799999999999  1.0000
  H   H12       1.0  0.71307  0.47932  0.29049  1.0000
  H   H13       1.0  0.8569499999999999  0.6355900000000002  0.14635  1.0000
  H   H14       1.0  0.90143  0.52045  0.9861  1.0000
  H   H15       1.0  0.95332  0.3485499999999999  0.8705099999999998  1.0000
  H   H16       1.0  0.91953  0.09545000000000002  0.92705  1.0000
  H   H17       1.0  0.8521  0.20769000000000007  0.07999  1.0000
  H   H18       1.0  0.82334  0.3804400000000001  0.20195  1.0000
  H   H19       1.0  0.28611  0.80761  0.55469  1.0000
  H   H20       1.0  0.41713  0.59752  0.30603  1.0000
  H   H21       1.0  0.21253  0.8123100000000002  0.28984999999999994  1.0000
  H   H22       1.0  0.3553799999999999  0.5111900000000001  0.14692999999999995  1.0000
  H   H23       1.0  0.40057999999999994  0.4655099999999999  0.9866999999999998  1.0000
  H   H24       1.0  0.45277  0.52118  0.8706599999999999  1.0000
  H   H25       1.0  0.41983000000000004  0.8306  0.9261599999999998  1.0000
  H   H26       1.0  0.35184  0.8718600000000001  0.0789  1.0000
  H   H27       1.0  0.32212  0.82147  0.20094999999999996  1.0000
  H   H28       1.0  0.21389  0.25299  0.4454299999999999  1.0000
  H   H29       1.0  0.08302  0.29215000000000013  0.69446  1.0000
  H   H30       1.0  0.2874700000000001  0.5216  0.70985  1.0000
  H   H31       1.0  0.14333  0.3645900000000001  0.8534799999999999  1.0000
  H   H32       1.0  0.09869  0.47949000000000014  0.013609999999999999  1.0000
  H   H33       1.0  0.04693  0.65167  0.12956  1.0000
  H   H34       1.0  0.08044  0.90471  0.07271999999999998  1.0000
  H   H35       1.0  0.14795  0.7922600000000002  0.9199099999999999  1.0000
  H   H36       1.0  0.17693  0.61983  0.7981  1.0000
  C   C1        1.0  0.75916  0.18212000000000006  0.57368  1.0000
  C   C2        1.0  0.70694  0.22199000000000005  0.51996  1.0000
  C   C3        1.0  0.64464  0.30212  0.56449  1.0000
  C   C4        1.0  0.6334700000000001  0.34099000000000007  0.66121  1.0000
  C   C5        1.0  0.6823499999999999  0.2980299999999999  0.7146399999999998  1.0000
  C   C6        1.0  0.74638  0.21990000000000007  0.66981  1.0000
  C   C7        1.0  0.83003  0.10023  0.53204  1.0000
  C   C8        1.0  0.58707  0.3417  0.5061  1.0000
  C   C9        1.0  0.66337  0.32889999999999997  0.8136199999999999  1.0000
  C   C10       1.0  0.64179  0.43063  0.8760899999999998  1.0000
  C   C11       1.0  0.61631  0.4563699999999999  0.9655099999999998  1.0000
  C   C12       1.0  0.60798  0.38165  0.99673  1.0000
  C   C13       1.0  0.56981  0.40265999999999996  0.08291999999999997  1.0000
  C   C14       1.0  0.55763  0.32606  0.10808999999999999  1.0000
  C   C15       1.0  0.58856  0.22661000000000003  0.050219999999999994  1.0000
  C   C16       1.0  0.62581  0.20426999999999998  0.96616  1.0000
  C   C17       1.0  0.63379  0.27986  0.93583  1.0000
  C   C18       1.0  0.66211  0.25639  0.8455199999999998  1.0000
  C   C19       1.0  0.5114  0.34637  0.19482999999999995  1.0000
  C   C20       1.0  0.7425  0.60933  0.4266  1.0000
  C   C21       1.0  0.79503  0.70242  0.47973  1.0000
  C   C22       1.0  0.85711  0.7373100000000002  0.43457999999999997  1.0000
  C   C23       1.0  0.86811  0.6795  0.33789  1.0000
  C   C24       1.0  0.81891  0.5838  0.28495  1.0000
  C   C25       1.0  0.75495  0.5512000000000002  0.33028  1.0000
  C   C26       1.0  0.67177  0.5689100000000001  0.4683799999999999  1.0000
  C   C27       1.0  0.9150200000000001  0.8346300000000001  0.4918799999999999  1.0000
  C   C28       1.0  0.83788  0.51559  0.18602999999999997  1.0000
  C   C29       1.0  0.85968  0.55435  0.12312  1.0000
  C   C30       1.0  0.88484  0.4902600000000001  0.03373  1.0000
  C   C31       1.0  0.89297  0.38446  0.002989999999999999  1.0000
  C   C32       1.0  0.93086  0.31884  0.91681  1.0000
  C   C33       1.0  0.9426100000000001  0.21711999999999987  0.8920299999999998  1.0000
  C   C34       1.0  0.9116  0.1761100000000001  0.95033  1.0000
  C   C35       1.0  0.87475  0.23831000000000005  0.03445  1.0000
  C   C36       1.0  0.86726  0.34415  0.06442  1.0000
  C   C37       1.0  0.83923  0.4114000000000001  0.15471  1.0000
  C   C38       1.0  0.9887699999999999  0.15022999999999992  0.8053799999999998  1.0000
  C   C39       1.0  0.24191  0.8183100000000002  0.42614  1.0000
  C   C40       1.0  0.29366  0.7778599999999999  0.47961999999999994  1.0000
  C   C41       1.0  0.35545999999999994  0.6973699999999999  0.4348999999999999  1.0000
  C   C42       1.0  0.36688  0.6585200000000002  0.33823  1.0000
  C   C43       1.0  0.31796  0.7015200000000003  0.28488  1.0000
  C   C44       1.0  0.25429  0.77998  0.32986  1.0000
  C   C45       1.0  0.17198  0.90116  0.46790999999999994  1.0000
  C   C46       1.0  0.41283999999999993  0.65808  0.4934399999999999  1.0000
  C   C47       1.0  0.33684  0.67062  0.18587999999999993  1.0000
  C   C48       1.0  0.35842  0.5689200000000002  0.1233  1.0000
  C   C49       1.0  0.38383  0.5433300000000002  0.033889999999999997  1.0000
  C   C50       1.0  0.39216  0.61814  0.00278  1.0000
  C   C51       1.0  0.43033  0.59725  0.9166  1.0000
  C   C52       1.0  0.44248999999999994  0.6739500000000002  0.8915199999999998  1.0000
  C   C53       1.0  0.41153  0.7733400000000002  0.94954  1.0000
  C   C54       1.0  0.37428  0.7955800000000002  0.03359  1.0000
  C   C55       1.0  0.36636  0.7199  0.06382  1.0000
  C   C56       1.0  0.33812000000000003  0.74325  0.15414  1.0000
  C   C57       1.0  0.48862  0.6537700000000002  0.80473  1.0000
  C   C58       1.0  0.25842  0.39142  0.5737  1.0000
  C   C59       1.0  0.20631  0.2981400000000001  0.52049  1.0000
  C   C60       1.0  0.14442  0.263  0.56552  1.0000
  C   C61       1.0  0.13311  0.3207600000000001  0.66211  1.0000
  C   C62       1.0  0.18189999999999998  0.41668  0.71513  1.0000
  C   C63       1.0  0.24582000000000004  0.4495500000000001  0.66997  1.0000
  C   C64       1.0  0.32871  0.43166  0.53152  1.0000
  C   C65       1.0  0.08698000000000002  0.16553000000000007  0.50804  1.0000
  C   C66       1.0  0.16256  0.4846800000000001  0.81396  1.0000
  C   C67       1.0  0.14066  0.4458399999999999  0.8767799999999998  1.0000
  C   C68       1.0  0.11528999999999999  0.50985  0.9661399999999999  1.0000
  C   C69       1.0  0.10710999999999998  0.6156700000000003  0.9969699999999999  1.0000
  C   C70       1.0  0.06933  0.6813400000000002  0.08322  1.0000
  C   C71       1.0  0.05759000000000001  0.7831199999999999  0.10804999999999997  1.0000
  C   C72       1.0  0.08842  0.82407  0.04963  1.0000
  C   C73       1.0  0.12524999999999997  0.7618  0.9655299999999999  1.0000
  C   C74       1.0  0.13284  0.65598  0.93556  1.0000
  C   C75       1.0  0.16108  0.58884  0.84533  1.0000
  C   C76       1.0  0.011759999999999993  0.8500100000000003  0.19491  1.0000
  O   O1        1.0  0.8701899999999999  0.06725  0.58743  1.0000
  O   O2        1.0  0.84819  0.06808999999999994  0.4459899999999999  1.0000
  O   O3        1.0  0.57121  0.28674  0.41704  1.0000
  O   O4        1.0  0.55249  0.43165  0.54602  1.0000
  O   O5        1.0  0.5138  0.27923  0.2248  1.0000
  O   O6        1.0  0.47113999999999995  0.43138  0.24251  1.0000
  O   O7        1.0  0.63289  0.48031000000000007  0.41296  1.0000
  O   O8        1.0  0.65243  0.6224400000000002  0.55414  1.0000
  O   O9        1.0  0.93275  0.86849  0.58083  1.0000
  O   O10       1.0  0.94803  0.8840400000000003  0.45094  1.0000
  O   O11       1.0  0.9860499999999999  0.05328999999999988  0.7755099999999998  1.0000
  O   O12       1.0  0.02952  0.18712000000000006  0.75774  1.0000
  O   O13       1.0  0.13358  0.9358400000000002  0.41316  1.0000
  O   O14       1.0  0.15266  0.9325000000000001  0.55351  1.0000
  O   O15       1.0  0.42844  0.71316  0.58258  1.0000
  O   O16       1.0  0.44779  0.5683900000000002  0.45369999999999994  1.0000
  O   O17       1.0  0.4863199999999999  0.7211000000000001  0.7749299999999998  1.0000
  O   O18       1.0  0.52874  0.56878  0.7568599999999999  1.0000
  O   O19       1.0  0.36727  0.52059  0.58652  1.0000
  O   O20       1.0  0.34798  0.37771  0.4458499999999999  1.0000
  O   O21       1.0  0.07081  0.13125999999999993  0.4188899999999999  1.0000
  O   O22       1.0  0.05277  0.11664000000000005  0.54896  1.0000
  O   O23       1.0  0.01412  0.9469000000000002  0.22457  1.0000
  O   O24       1.0  0.9715799999999999  0.81319  0.24293999999999993  1.0000
