data_image0
_chemical_formula_structural       Nd4H18C48N6O36
_chemical_formula_sum              "Nd4 H18 C48 N6 O36"
_cell_length_a       13.92646
_cell_length_b       13.90562
_cell_length_c       16.4805
_cell_angle_alpha    66.62876
_cell_angle_beta     66.50491
_cell_angle_gamma    72.41503

_symmetry_space_group_name_H-M    'P 1'
_symmetry_Int_Tables_number       1

loop_
  _symmetry_equiv_pos_as_xyz
  'x,y,z'

loop_
  _atom_site_type_symbol
  _atom_site_label
  _atom_site_symmetry_multiplicity
  _atom_site_fract_x
  _atom_site_fract_y
  _atom_site_fract_z
  _atom_site_occupancy
  Nd  Nd1       1.0  0.34537000000000007  0.05903999999999997  0.49835000000000007  1.0000
  Nd  Nd2       1.0  0.94016  0.65235  0.00195  1.0000
  Nd  Nd3       1.0  0.6524700000000001  0.94104  0.50187  1.0000
  Nd  Nd4       1.0  0.05823000000000004  0.34731000000000006  0.99806  1.0000
  H   H1        1.0  0.15885  0.2612  0.26279  1.0000
  H   H2        1.0  0.04438000000000001  0.59834  0.21587  1.0000
  H   H3        1.0  0.14711  0.4064  0.45489  1.0000
  H   H4        1.0  0.4198800000000001  0.36934  0.35767  1.0000
  H   H5        1.0  0.73781  0.84066  0.23736  1.0000
  H   H6        1.0  0.40167  0.95743  0.28397  1.0000
  H   H7        1.0  0.5924100000000001  0.85211  0.04557  1.0000
  H   H8        1.0  0.63355  0.57802  0.14029  1.0000
  H   H9        1.0  0.84032  0.73878  0.737  1.0000
  H   H10       1.0  0.9566400000000002  0.4022300000000001  0.78292  1.0000
  H   H11       1.0  0.8519899999999999  0.59345  0.54474  1.0000
  H   H12       1.0  0.5777399999999999  0.6332100000000003  0.6414  1.0000
  H   H13       1.0  0.26096  0.15914  0.76256  1.0000
  H   H14       1.0  0.59771  0.044059999999999974  0.71585  1.0000
  H   H15       1.0  0.4052499999999999  0.1474399999999999  0.9550100000000002  1.0000
  H   H16       1.0  0.3671399999999999  0.4220800000000001  0.85942  1.0000
  H   H17       1.0  0.75246  0.24402000000000004  0.2502  1.0000
  H   H18       1.0  0.24427999999999986  0.75491  0.7501500000000002  1.0000
  C   C1        1.0  0.15841999999999995  0.3229099999999999  0.3642400000000001  1.0000
  C   C2        1.0  0.14040999999999998  0.3314  0.28378  1.0000
  C   C3        1.0  0.09824000000000002  0.43023999999999996  0.23054000000000002  1.0000
  C   C4        1.0  0.07613000000000003  0.5210399999999997  0.25681  1.0000
  C   C5        1.0  0.09460000000000002  0.51031  0.33728  1.0000
  C   C6        1.0  0.13433  0.41278  0.39202  1.0000
  C   C7        1.0  0.20483999999999994  0.21958000000000003  0.42134  1.0000
  C   C8        1.0  0.07401000000000002  0.43829  0.14733  1.0000
  C   C9        1.0  0.58497  0.29512  0.31196000000000007  1.0000
  C   C10       1.0  0.4998  0.38049  0.31085  1.0000
  C   C11       1.0  0.5673000000000002  0.18669  0.37849  1.0000
  C   C12       1.0  0.67604  0.84122  0.13563  1.0000
  C   C13       1.0  0.66798  0.85939  0.21599  1.0000
  C   C14       1.0  0.56933  0.90217  0.26918  1.0000
  C   C15       1.0  0.4786  0.92487  0.24307  1.0000
  C   C16       1.0  0.48896999999999996  0.90591  0.16293  1.0000
  C   C17       1.0  0.58619  0.86554  0.10815000000000001  1.0000
  C   C18       1.0  0.77864  0.79392  0.07829  1.0000
  C   C19       1.0  0.5608799999999999  0.9259  0.3527400000000001  1.0000
  C   C20       1.0  0.70481  0.41174  0.18722  1.0000
  C   C21       1.0  0.62104  0.49854  0.18747  1.0000
  C   C22       1.0  0.81406  0.426  0.12056000000000003  1.0000
  C   C23       1.0  0.84078  0.6769299999999999  0.63532  1.0000
  C   C24       1.0  0.8589900000000001  0.66881  0.71559  1.0000
  C   C25       1.0  0.9019899999999997  0.5702100000000002  0.76839  1.0000
  C   C26       1.0  0.92426  0.47934000000000004  0.74225  1.0000
  C   C27       1.0  0.9052699999999999  0.48971  0.66216  1.0000
  C   C28       1.0  0.8651  0.5870499999999998  0.60749  1.0000
  C   C29       1.0  0.7932800000000002  0.7799299999999998  0.5787400000000001  1.0000
  C   C30       1.0  0.9264200000000002  0.56251  0.8513  1.0000
  C   C31       1.0  0.412  0.70591  0.68798  1.0000
  C   C32       1.0  0.49804000000000015  0.6215099999999999  0.68845  1.0000
  C   C33       1.0  0.4279299999999999  0.81467  0.6213  1.0000
  C   C34       1.0  0.32239000000000007  0.15893  0.8642  1.0000
  C   C35       1.0  0.33083000000000007  0.14063999999999996  0.78379  1.0000
  C   C36       1.0  0.42961  0.09798999999999998  0.73064  1.0000
  C   C37       1.0  0.5202700000000001  0.07590999999999995  0.7567000000000002  1.0000
  C   C38       1.0  0.5095300000000001  0.09458  0.83709  1.0000
  C   C39       1.0  0.41204000000000013  0.13452  0.89203  1.0000
  C   C40       1.0  0.21941000000000002  0.2067799999999999  0.9207800000000002  1.0000
  C   C41       1.0  0.43792  0.07404999999999998  0.64726  1.0000
  C   C42       1.0  0.29397999999999996  0.58744  0.8130500000000002  1.0000
  C   C43       1.0  0.3787799999999998  0.5017100000000002  0.81222  1.0000
  C   C44       1.0  0.18517000000000008  0.57107  0.87977  1.0000
  C   C45       1.0  0.6868099999999999  0.31069  0.24992000000000006  1.0000
  C   C46       1.0  0.51993  0.48079999999999995  0.24901000000000006  1.0000
  C   C47       1.0  0.31057000000000007  0.6889  0.75043  1.0000
  C   C48       1.0  0.47925999999999996  0.5208299999999999  0.7501500000000002  1.0000
  N   N1        1.0  0.06965  0.60503  0.36684  1.0000
  N   N2        1.0  0.39429000000000003  0.93088  0.13386  1.0000
  N   N3        1.0  0.9302900000000001  0.39473000000000014  0.63313  1.0000
  N   N4        1.0  0.6044700000000001  0.06971000000000001  0.86593  1.0000
  N   N5        1.0  0.43063  0.5719  0.24863  1.0000
  N   N6        1.0  0.5695200000000001  0.4308699999999999  0.74968  1.0000
  O   O1        1.0  0.2133  0.21505999999999997  0.49767  1.0000
  O   O2        1.0  0.24073999999999998  0.13803999999999994  0.39262000000000014  1.0000
  O   O3        1.0  0.08979000000000002  0.35374999999999995  0.12795  1.0000
  O   O4        1.0  0.037079999999999974  0.53022  0.09955000000000001  1.0000
  O   O5        1.0  0.03805  0.69183  0.31518  1.0000
  O   O6        1.0  0.08112000000000003  0.59101  0.44192  1.0000
  O   O7        1.0  0.64797  0.11755999999999998  0.3929500000000001  1.0000
  O   O8        1.0  0.47134999999999994  0.17055000000000003  0.41669  1.0000
  O   O9        1.0  0.4526800000000001  0.6619099999999999  0.20056000000000002  1.0000
  O   O10       1.0  0.78306  0.78569  0.00197  1.0000
  O   O11       1.0  0.85987  0.7567699999999999  0.10735000000000003  1.0000
  O   O12       1.0  0.64507  0.90931  0.37253  1.0000
  O   O13       1.0  0.46879999999999994  0.96292  0.40047  1.0000
  O   O14       1.0  0.30762  0.96271  0.1857  1.0000
  O   O15       1.0  0.40837999999999997  0.919  0.05888  1.0000
  O   O16       1.0  0.88119  0.34362  0.10711  1.0000
  O   O17       1.0  0.83393  0.52075  0.08081  1.0000
  O   O18       1.0  0.33980000000000005  0.55209  0.29641  1.0000
  O   O19       1.0  0.78727  0.7855099999999999  0.50121  1.0000
  O   O20       1.0  0.7539799999999999  0.86017  0.6094300000000002  1.0000
  O   O21       1.0  0.90903  0.64695  0.87129  1.0000
  O   O22       1.0  0.9651899999999998  0.4708900000000001  0.89811  1.0000
  O   O23       1.0  0.9620500000000001  0.30821  0.685  1.0000
  O   O24       1.0  0.91866  0.40832000000000007  0.55821  1.0000
  O   O25       1.0  0.34636999999999996  0.88237  0.60736  1.0000
  O   O26       1.0  0.5231700000000001  0.83315  0.58225  1.0000
  O   O27       1.0  0.54884  0.34037  0.79776  1.0000
  O   O28       1.0  0.21354  0.21291000000000002  0.9983900000000001  1.0000
  O   O29       1.0  0.13953999999999997  0.24638999999999994  0.8898900000000001  1.0000
  O   O30       1.0  0.35357000000000005  0.08940000000000001  0.62808  1.0000
  O   O31       1.0  0.53006  0.038109999999999984  0.59889  1.0000
  O   O32       1.0  0.6910700000000001  0.038119999999999994  0.81385  1.0000
  O   O33       1.0  0.59077  0.08133000000000001  0.94091  1.0000
  O   O34       1.0  0.11629000000000002  0.65275  0.89248  1.0000
  O   O35       1.0  0.1674499999999999  0.47567  0.9202  1.0000
  O   O36       1.0  0.6597100000000001  0.45217999999999986  0.7011700000000001  1.0000
