data_image0
_chemical_formula_structural       Er4H24C60N4O36
_chemical_formula_sum              "Er4 H24 C60 N4 O36"
_cell_length_a       14.3846
_cell_length_b       14.34582
_cell_length_c       15.207010000000002
_cell_angle_alpha    97.75299
_cell_angle_beta     116.44661
_cell_angle_gamma    112.67714

_space_group_name_H-M_alt    "P 1"
_space_group_IT_number       1

loop_
  _space_group_symop_operation_xyz
  'x, y, z'

loop_
  _atom_site_type_symbol
  _atom_site_label
  _atom_site_symmetry_multiplicity
  _atom_site_fract_x
  _atom_site_fract_y
  _atom_site_fract_z
  _atom_site_occupancy
  Er  Er1       1.0  0.50919  0.49244  0.62443  1.0000
  Er  Er2       1.0  0.37228  0.889  0.87774  1.0000
  Er  Er3       1.0  0.48585  0.50478  0.3752  1.0000
  Er  Er4       1.0  0.63006  0.11275999999999999  0.12253  1.0000
  H   H1        1.0  0.19936000000000004  0.13456000000000004  0.4555200000000001  1.0000
  H   H2        1.0  0.09700000000000002  0.98972  0.08931  1.0000
  H   H3        1.0  0.23866  0.18867  0.199  1.0000
  H   H4        1.0  0.88205  0.9692399999999999  0.16229  1.0000
  H   H5        1.0  0.53051  0.7474399999999999  0.88122  1.0000
  H   H6        1.0  0.81459  0.67073  0.9709000000000002  1.0000
  H   H7        1.0  0.1806699999999999  0.74675  0.04578000000000001  1.0000
  H   H8        1.0  0.40337  0.008580000000000034  0.41321  1.0000
  H   H9        1.0  0.49148000000000003  0.0429  0.30275  1.0000
  H   H10       1.0  0.30586  0.71815  0.33888000000000007  1.0000
  H   H11       1.0  0.3651599999999998  0.64944  0.62048  1.0000
  H   H12       1.0  0.20264000000000001  0.8471900000000001  0.53027  1.0000
  H   H13       1.0  0.79716  0.86181  0.5443  1.0000
  H   H14       1.0  0.90346  0.00841000000000001  0.9113  1.0000
  H   H15       1.0  0.75952  0.80946  0.80188  1.0000
  H   H16       1.0  0.12031000000000008  0.031020000000000072  0.83729  1.0000
  H   H17       1.0  0.47019000000000005  0.25489  0.11972000000000001  1.0000
  H   H18       1.0  0.18145  0.32592  0.02816  1.0000
  H   H19       1.0  0.82103  0.25351  0.95396  1.0000
  H   H20       1.0  0.59827  0.9927300000000001  0.58626  1.0000
  H   H21       1.0  0.5105  0.9575799999999999  0.69709  1.0000
  H   H22       1.0  0.69287  0.28099  0.66053  1.0000
  H   H23       1.0  0.6327  0.35028  0.37908  1.0000
  H   H24       1.0  0.7991600000000001  0.15586000000000003  0.46962  1.0000
  C   C1        1.0  0.22591  0.17507  0.33337  1.0000
  C   C2        1.0  0.17691000000000004  0.10440000000000002  0.37521  1.0000
  C   C3        1.0  0.09408999999999995  0.99463  0.31211  1.0000
  C   C4        1.0  0.06208  0.9538599999999999  0.20732000000000003  1.0000
  C   C5        1.0  0.11850999999999995  0.023559999999999998  0.16878  1.0000
  C   C6        1.0  0.19808  0.13362  0.23028  1.0000
  C   C7        1.0  0.86166  0.8230299999999999  0.07441  1.0000
  C   C8        1.0  0.82201  0.89282  0.09469  1.0000
  C   C9        1.0  0.70191  0.8646  0.02702  1.0000
  C   C10       1.0  0.62273  0.7688299999999999  0.93684  1.0000
  C   C11       1.0  0.66489  0.7001099999999999  0.91752  1.0000
  C   C12       1.0  0.78367  0.7254799999999999  0.9867  1.0000
  C   C13       1.0  0.30672999999999995  0.29449000000000003  0.39591000000000004  1.0000
  C   C14       1.0  0.6653199999999999  0.94127  0.0556  1.0000
  C   C15       1.0  0.58591  0.60217  0.81809  1.0000
  C   C16       1.0  0.34348  0.89572  0.16823000000000002  1.0000
  C   C17       1.0  0.23145  0.80424  0.12645  1.0000
  C   C18       1.0  0.1852299999999999  0.78407  0.18973000000000004  1.0000
  C   C19       1.0  0.24933000000000002  0.85666  0.29468  1.0000
  C   C20       1.0  0.35759  0.9514999999999999  0.33335  1.0000
  C   C21       1.0  0.40558  0.97057  0.27166  1.0000
  C   C22       1.0  0.24935  0.7881300000000001  0.42689  1.0000
  C   C23       1.0  0.2976399999999999  0.7270599999999999  0.40665  1.0000
  C   C24       1.0  0.33684  0.67491  0.47488  1.0000
  C   C25       1.0  0.33136  0.68643  0.56498  1.0000
  C   C26       1.0  0.28284000000000004  0.74883  0.58417  1.0000
  C   C27       1.0  0.23996000000000003  0.79873  0.5147  1.0000
  C   C28       1.0  0.39873  0.9159  0.1047  1.0000
  C   C29       1.0  0.38367  0.6084  0.4466  1.0000
  C   C30       1.0  0.28519  0.77059  0.68389  1.0000
  C   C31       1.0  0.7716499999999997  0.8218  0.66699  1.0000
  C   C32       1.0  0.8206399999999998  0.89212  0.62488  1.0000
  C   C33       1.0  0.9039900000000001  0.001869999999999989  0.68754  1.0000
  C   C34       1.0  0.93705  0.043259999999999944  0.79255  1.0000
  C   C35       1.0  0.8809499999999999  0.97395  0.83159  1.0000
  C   C36       1.0  0.8003100000000001  0.86392  0.77029  1.0000
  C   C37       1.0  0.13783000000000012  0.17551000000000008  0.9249700000000002  1.0000
  C   C38       1.0  0.17916999999999994  0.10710999999999997  0.90521  1.0000
  C   C39       1.0  0.29970000000000013  0.1366900000000001  0.9735300000000002  1.0000
  C   C40       1.0  0.3776  0.23243  0.06374  1.0000
  C   C41       1.0  0.33367  0.29962  0.08261  1.0000
  C   C42       1.0  0.21439  0.27282  0.0129  1.0000
  C   C43       1.0  0.68914  0.70262  0.604  1.0000
  C   C44       1.0  0.33840999999999993  0.06188999999999999  0.9450400000000001  1.0000
  C   C45       1.0  0.41115  0.39714  0.1823  1.0000
  C   C46       1.0  0.65839  0.10484999999999996  0.83158  1.0000
  C   C47       1.0  0.77046  0.19616  0.87332  1.0000
  C   C48       1.0  0.8167800000000001  0.2167000000000001  0.81015  1.0000
  C   C49       1.0  0.7524700000000001  0.14439000000000007  0.7051000000000001  1.0000
  C   C50       1.0  0.64429  0.049360000000000015  0.66641  1.0000
  C   C51       1.0  0.59642  0.029919999999999995  0.72819  1.0000
  C   C52       1.0  0.75089  0.21296999999999996  0.5727  1.0000
  C   C53       1.0  0.70143  0.27292  0.59291  1.0000
  C   C54       1.0  0.66149  0.32503  0.52487  1.0000
  C   C55       1.0  0.66707  0.3137000000000001  0.43472000000000005  1.0000
  C   C56       1.0  0.7166699999999999  0.25239  0.41553  1.0000
  C   C57       1.0  0.7606  0.20307  0.48508  1.0000
  C   C58       1.0  0.60315  0.08507000000000005  0.89514  1.0000
  C   C59       1.0  0.61296  0.39026  0.55272  1.0000
  C   C60       1.0  0.7150499999999999  0.23089  0.31605  1.0000
  N   N1        1.0  0.04017000000000006  0.9253  0.35861000000000004  1.0000
  N   N2        1.0  0.06916999999999994  0.6839799999999999  0.14324  1.0000
  N   N3        1.0  0.9570299999999997  0.07132000000000004  0.6404200000000001  1.0000
  N   N4        1.0  0.93286  0.31707  0.85702  1.0000
  O   O1        1.0  0.33033  0.35366  0.34477  1.0000
  O   O2        1.0  0.34741  0.32994  0.4946  1.0000
  O   O3        1.0  0.10227000000000001  0.9522800000000001  0.45603  1.0000
  O   O4        1.0  0.93713  0.84649  0.29821  1.0000
  O   O5        1.0  0.74302  0.029709999999999997  0.13522  1.0000
  O   O6        1.0  0.5547000000000002  0.9186700000000002  0.9999700000000001  1.0000
  O   O7        1.0  0.4903799999999999  0.5927699999999998  0.74059  1.0000
  O   O8        1.0  0.6177100000000002  0.53206  0.8052  1.0000
  O   O9        1.0  0.9794099999999998  0.8463099999999999  0.14061  1.0000
  O   O10       1.0  0.50785  0.99267  0.15485  1.0000
  O   O11       1.0  0.3356  0.858  0.00615  1.0000
  O   O12       1.0  0.99843  0.64869  0.04587  1.0000
  O   O13       1.0  0.050800000000000047  0.6417  0.20389  1.0000
  O   O14       1.0  0.38698  0.60155  0.36398  1.0000
  O   O15       1.0  0.42132  0.55779  0.50578  1.0000
  O   O16       1.0  0.35173999999999994  0.7507  0.7608500000000001  1.0000
  O   O17       1.0  0.23059999999999992  0.81787  0.69766  1.0000
  O   O18       1.0  0.20863000000000004  0.8414  0.36146  1.0000
  O   O19       1.0  0.66457  0.64361  0.65498  1.0000
  O   O20       1.0  0.64785  0.66726  0.50524  1.0000
  O   O21       1.0  0.89343  0.045739999999999975  0.54339  1.0000
  O   O22       1.0  0.060819999999999985  0.14905999999999994  0.70004  1.0000
  O   O23       1.0  0.26186999999999994  0.9737299999999998  0.86489  1.0000
  O   O24       1.0  0.44932  0.08567  0.00099  1.0000
  O   O25       1.0  0.5073  0.40756000000000003  0.26008  1.0000
  O   O26       1.0  0.37745999999999996  0.4656100000000001  0.19506000000000007  1.0000
  O   O27       1.0  0.019620000000000033  0.15116000000000007  0.85829  1.0000
  O   O28       1.0  0.49417  0.008000000000000044  0.8448400000000003  1.0000
  O   O29       1.0  0.666  0.14335  0.99355  1.0000
  O   O30       1.0  0.002910000000000057  0.35202  0.95448  1.0000
  O   O31       1.0  0.9518999999999999  0.35993  0.79691  1.0000
  O   O32       1.0  0.60835  0.39598  0.63472  1.0000
  O   O33       1.0  0.57484  0.44061  0.49364  1.0000
  O   O34       1.0  0.64947  0.25094  0.23876000000000003  1.0000
  O   O35       1.0  0.7695499999999998  0.18312  0.30295  1.0000
  O   O36       1.0  0.7929199999999998  0.16043999999999994  0.63825  1.0000
