data_image0
_chemical_formula_structural       Mg8H24C24O48
_chemical_formula_sum              "Mg8 H24 C24 O48"
_cell_length_a       11.79625
_cell_length_b       11.91681
_cell_length_c       12.43203
_cell_angle_alpha    89.66654999999999
_cell_angle_beta     90.23554
_cell_angle_gamma    87.96835

_symmetry_space_group_name_H-M    'P 1'
_symmetry_Int_Tables_number       1

loop_
  _symmetry_equiv_pos_as_xyz
  'x,y,z'

loop_
  _atom_site_type_symbol
  _atom_site_label
  _atom_site_symmetry_multiplicity
  _atom_site_fract_x
  _atom_site_fract_y
  _atom_site_fract_z
  _atom_site_occupancy
  Mg  Mg1       1.0  0.26684  0.24365  0.99073  1.0000
  Mg  Mg2       1.0  0.76864  0.25655  0.98828  1.0000
  Mg  Mg3       1.0  0.23916  0.7485999999999999  0.5127  1.0000
  Mg  Mg4       1.0  0.73984  0.74938  0.5076  1.0000
  Mg  Mg5       1.0  0.73316  0.75636  0.00926  1.0000
  Mg  Mg6       1.0  0.23136  0.7434499999999998  0.01173  1.0000
  Mg  Mg7       1.0  0.76084  0.2514  0.48731000000000013  1.0000
  Mg  Mg8       1.0  0.26017  0.25062  0.49240000000000006  1.0000
  H   H1        1.0  0.021910000000000006  0.3070899999999999  0.0022900000000000004  1.0000
  H   H2        1.0  0.8263300000000002  0.34720999999999996  0.22670000000000004  1.0000
  H   H3        1.0  0.19093000000000004  0.012989999999999998  0.018040000000000004  1.0000
  H   H4        1.0  0.30890000000000006  0.50137  0.00931  1.0000
  H   H5        1.0  0.18435000000000007  0.18449999999999994  0.24157000000000006  1.0000
  H   H6        1.0  0.5358  0.18918  0.9706000000000002  1.0000
  H   H7        1.0  0.4832200000000001  0.80854  0.50733  1.0000
  H   H8        1.0  0.67055  0.84153  0.27206  1.0000
  H   H9        1.0  0.31014  0.50469  0.49554  1.0000
  H   H10       1.0  0.18779000000000007  0.010999999999999998  0.4928200000000001  1.0000
  H   H11       1.0  0.30862  0.6778799999999998  0.27248  1.0000
  H   H12       1.0  0.9902200000000001  0.68715  0.5254600000000001  1.0000
  H   H13       1.0  0.9780900000000002  0.6929099999999998  0.99771  1.0000
  H   H14       1.0  0.17367000000000002  0.65279  0.7733000000000001  1.0000
  H   H15       1.0  0.8090700000000002  0.98702  0.9819600000000003  1.0000
  H   H16       1.0  0.6911  0.4986299999999999  0.99069  1.0000
  H   H17       1.0  0.8156500000000002  0.8154999999999998  0.7584200000000002  1.0000
  H   H18       1.0  0.46420000000000006  0.8108199999999999  0.029390000000000006  1.0000
  H   H19       1.0  0.51678  0.19145999999999994  0.4926700000000001  1.0000
  H   H20       1.0  0.3294500000000001  0.15846999999999997  0.72793  1.0000
  H   H21       1.0  0.6898600000000001  0.49530999999999986  0.5044600000000001  1.0000
  H   H22       1.0  0.8122200000000003  0.9889999999999998  0.50718  1.0000
  H   H23       1.0  0.6913800000000001  0.32212  0.72754  1.0000
  H   H24       1.0  0.009780000000000004  0.31286  0.47454000000000013  1.0000
  C   C1        1.0  0.017650000000000002  0.21339  0.016810000000000002  1.0000
  C   C2        1.0  0.7536200000000002  0.29034  0.23416  1.0000
  C   C3        1.0  0.28650000000000003  0.99672  0.01227  1.0000
  C   C4        1.0  0.21496000000000004  0.49626  0.9947700000000003  1.0000
  C   C5        1.0  0.26567  0.22936  0.24243  1.0000
  C   C6        1.0  0.5198  0.28383  0.9590700000000002  1.0000
  C   C7        1.0  0.48891  0.7178499999999999  0.48176000000000013  1.0000
  C   C8        1.0  0.7470300000000001  0.78457  0.26285  1.0000
  C   C9        1.0  0.21491000000000005  0.50103  0.49013000000000007  1.0000
  C   C10       1.0  0.28118000000000004  0.0011099999999999999  0.51318  1.0000
  C   C11       1.0  0.23055000000000003  0.73323  0.26544  1.0000
  C   C12       1.0  0.98978  0.7807199999999997  0.54169  1.0000
  C   C13       1.0  0.9823500000000002  0.7866099999999998  0.98318  1.0000
  C   C14       1.0  0.24639000000000003  0.7096699999999999  0.7658400000000002  1.0000
  C   C15       1.0  0.7135000000000001  0.003279999999999999  0.98773  1.0000
  C   C16       1.0  0.7850400000000002  0.50374  0.005230000000000002  1.0000
  C   C17       1.0  0.73433  0.77064  0.7575700000000001  1.0000
  C   C18       1.0  0.48020000000000007  0.71617  0.04093000000000001  1.0000
  C   C19       1.0  0.51109  0.28215  0.5182400000000001  1.0000
  C   C20       1.0  0.25297000000000003  0.21544  0.73714  1.0000
  C   C21       1.0  0.78509  0.4989699999999999  0.50987  1.0000
  C   C22       1.0  0.7188200000000002  0.9988899999999998  0.4868200000000001  1.0000
  C   C23       1.0  0.76945  0.26678  0.73457  1.0000
  C   C24       1.0  0.010220000000000003  0.21927999999999995  0.4583000000000001  1.0000
  O   O1        1.0  0.9218500000000002  0.17121  0.017720000000000003  1.0000
  O   O2        1.0  0.41845  0.31922999999999996  0.95284  1.0000
  O   O3        1.0  0.17709  0.3986699999999999  0.9898100000000002  1.0000
  O   O4        1.0  0.34309000000000006  0.08038999999999998  0.9897600000000002  1.0000
  O   O5        1.0  0.30439000000000005  0.2575  0.15221000000000004  1.0000
  O   O6        1.0  0.11424000000000002  0.16536  0.03164000000000001  1.0000
  O   O7        1.0  0.7201000000000002  0.2459  0.14845000000000003  1.0000
  O   O8        1.0  0.61008  0.33704999999999996  0.9528700000000001  1.0000
  O   O9        1.0  0.30877  0.24592  0.33367000000000013  1.0000
  O   O10       1.0  0.16030000000000005  0.5886999999999999  0.9848000000000001  1.0000
  O   O11       1.0  0.31963  0.8963999999999998  0.03151000000000001  1.0000
  O   O12       1.0  0.71417  0.2797  0.32768  1.0000
  O   O13       1.0  0.58703  0.67418  0.4710900000000001  1.0000
  O   O14       1.0  0.08456000000000002  0.8235399999999998  0.55526  1.0000
  O   O15       1.0  0.3202400000000001  0.9016899999999998  0.52293  1.0000
  O   O16       1.0  0.16093000000000005  0.59351  0.5028  1.0000
  O   O17       1.0  0.19478  0.7773099999999998  0.3513  1.0000
  O   O18       1.0  0.3945  0.67366  0.46581000000000006  1.0000
  O   O19       1.0  0.7886500000000001  0.7427899999999998  0.3481600000000001  1.0000
  O   O20       1.0  0.8922200000000002  0.82834  0.5451400000000001  1.0000
  O   O21       1.0  0.18860000000000005  0.7438099999999997  0.17227000000000003  1.0000
  O   O22       1.0  0.33285  0.09101  0.52338  1.0000
  O   O23       1.0  0.17608  0.40596999999999994  0.4712700000000001  1.0000
  O   O24       1.0  0.7825000000000002  0.7711299999999998  0.16810000000000005  1.0000
  O   O25       1.0  0.07815  0.82879  0.9822600000000002  1.0000
  O   O26       1.0  0.5815500000000001  0.6807699999999998  0.047150000000000004  1.0000
  O   O27       1.0  0.82291  0.60133  0.01019  1.0000
  O   O28       1.0  0.65691  0.91961  0.01024  1.0000
  O   O29       1.0  0.69561  0.74251  0.84779  1.0000
  O   O30       1.0  0.8857700000000001  0.8346399999999999  0.96836  1.0000
  O   O31       1.0  0.2799  0.7540999999999999  0.8515500000000003  1.0000
  O   O32       1.0  0.38992  0.6629499999999999  0.04712000000000001  1.0000
  O   O33       1.0  0.6912400000000002  0.7540799999999998  0.6663300000000001  1.0000
  O   O34       1.0  0.8397000000000002  0.4113  0.015200000000000002  1.0000
  O   O35       1.0  0.6803700000000001  0.10359999999999997  0.96849  1.0000
  O   O36       1.0  0.28583000000000003  0.7203099999999999  0.6723200000000001  1.0000
  O   O37       1.0  0.4129800000000001  0.32583  0.52891  1.0000
  O   O38       1.0  0.9154400000000001  0.17646  0.4447400000000001  1.0000
  O   O39       1.0  0.67976  0.09830999999999998  0.4770700000000001  1.0000
  O   O40       1.0  0.8390700000000001  0.40648999999999996  0.4972000000000001  1.0000
  O   O41       1.0  0.8052200000000003  0.22268999999999997  0.64872  1.0000
  O   O42       1.0  0.6055000000000001  0.32633999999999996  0.53419  1.0000
  O   O43       1.0  0.21135  0.25721  0.6518400000000001  1.0000
  O   O44       1.0  0.10778  0.17166  0.45486000000000004  1.0000
  O   O45       1.0  0.8114000000000002  0.25619999999999993  0.82775  1.0000
  O   O46       1.0  0.6671500000000001  0.9089899999999999  0.4766200000000001  1.0000
  O   O47       1.0  0.82392  0.59403  0.52873  1.0000
  O   O48       1.0  0.2175  0.22887999999999994  0.8319  1.0000
