data_image0
_chemical_formula_structural       Zn9P6H24C42O32
_chemical_formula_sum              "Zn9 P6 H24 C42 O32"
_cell_length_a       10.16481
_cell_length_b       10.02852
_cell_length_c       15.70503
_cell_angle_alpha    87.39928
_cell_angle_beta     73.74564
_cell_angle_gamma    81.3259

_symmetry_space_group_name_H-M    'P 1'
_symmetry_Int_Tables_number       1

loop_
  _symmetry_equiv_pos_as_xyz
  'x,y,z'

loop_
  _atom_site_type_symbol
  _atom_site_label
  _atom_site_symmetry_multiplicity
  _atom_site_fract_x
  _atom_site_fract_y
  _atom_site_fract_z
  _atom_site_occupancy
  Zn  Zn1       1.0  0.47866999999999993  0.24861000000000003  0.14897  1.0000
  Zn  Zn2       1.0  0.4654400000000001  0.23660000000000006  0.93066  1.0000
  Zn  Zn3       1.0  0.44989  0.76706  0.3094  1.0000
  Zn  Zn4       1.0  0.45176  0.08177  0.3876299999999999  1.0000
  Zn  Zn5       1.0  0.52133  0.7513900000000001  0.8510299999999998  1.0000
  Zn  Zn6       1.0  0.53455  0.7634  0.06934  1.0000
  Zn  Zn7       1.0  0.5501  0.23294  0.6906  1.0000
  Zn  Zn8       1.0  0.54823  0.9182300000000001  0.61237  1.0000
  Zn  Zn9       1.0  0.5  0.5  0.0  1.0000
  P   P1        1.0  0.58934  0.5036700000000001  0.19486  1.0000
  P   P2        1.0  0.6426400000000001  0.9520900000000001  0.19695  1.0000
  P   P3        1.0  0.65398  0.15705  0.48398  1.0000
  P   P4        1.0  0.41066  0.49633000000000005  0.80514  1.0000
  P   P5        1.0  0.35735  0.0479  0.80305  1.0000
  P   P6        1.0  0.34601  0.84295  0.51602  1.0000
  H   H1        1.0  0.77918  0.28995  0.07956  1.0000
  H   H2        1.0  0.036619999999999986  0.25157  0.01947  1.0000
  H   H3        1.0  0.06490999999999994  0.6008  0.15923999999999996  1.0000
  H   H4        1.0  0.80723  0.64326  0.21631  1.0000
  H   H5        1.0  0.89535  0.9849000000000001  0.0643  1.0000
  H   H6        1.0  0.14524  0.94494  0.06282  1.0000
  H   H7        1.0  0.029300000000000014  0.83071  0.33738999999999997  1.0000
  H   H8        1.0  0.7802799999999999  0.8704000000000001  0.34028  1.0000
  H   H9        1.0  0.02969  0.24246  0.2176  1.0000
  H   H10       1.0  0.78127  0.23089000000000004  0.29941  1.0000
  H   H11       1.0  0.90037  0.13118  0.53993  1.0000
  H   H12       1.0  0.14692  0.14574  0.45915  1.0000
  H   H13       1.0  0.22082  0.71005  0.92044  1.0000
  H   H14       1.0  0.9633800000000007  0.74843  0.98053  1.0000
  H   H15       1.0  0.9350800000000001  0.3992  0.84076  1.0000
  H   H16       1.0  0.19276999999999997  0.35673  0.7836899999999999  1.0000
  H   H17       1.0  0.10464999999999995  0.015100000000000004  0.9357  1.0000
  H   H18       1.0  0.85476  0.055060000000000005  0.9371799999999999  1.0000
  H   H19       1.0  0.9706900000000002  0.16929000000000002  0.6626  1.0000
  H   H20       1.0  0.21971999999999994  0.12959000000000004  0.65971  1.0000
  H   H21       1.0  0.9702999999999999  0.75754  0.78239  1.0000
  H   H22       1.0  0.21871999999999986  0.76911  0.70059  1.0000
  H   H23       1.0  0.09962999999999998  0.8688200000000001  0.46007  1.0000
  H   H24       1.0  0.8530799999999998  0.85426  0.54084  1.0000
  C   C1        1.0  0.77627  0.4711000000000001  0.15117  1.0000
  C   C2        1.0  0.8412399999999999  0.35946000000000006  0.09584  1.0000
  C   C3        1.0  0.9850899999999998  0.33639  0.06289  1.0000
  C   C4        1.0  0.06554  0.42244  0.08707  1.0000
  C   C5        1.0  0.0016500000000000193  0.53365  0.14223999999999998  1.0000
  C   C6        1.0  0.85783  0.55725  0.17396  1.0000
  C   C7        1.0  0.22115  0.39380000000000004  0.05365  1.0000
  C   C8        1.0  0.82077  0.93014  0.20214999999999997  1.0000
  C   C9        1.0  0.9249699999999998  0.9513500000000001  0.12405  1.0000
  C   C10       1.0  0.06403999999999992  0.9292900000000001  0.12281  1.0000
  C   C11       1.0  0.10248000000000003  0.8856  0.20004  1.0000
  C   C12       1.0  0.99909  0.86436  0.2779  1.0000
  C   C13       1.0  0.8594299999999999  0.88634  0.27927  1.0000
  C   C14       1.0  0.25305000000000005  0.8584200000000001  0.19798  1.0000
  C   C15       1.0  0.24954999999999997  0.20462000000000002  0.28677  1.0000
  C   C16       1.0  0.10231  0.19552000000000003  0.33351  1.0000
  C   C17       1.0  0.99986  0.21929  0.2879999999999999  1.0000
  C   C18       1.0  0.8624  0.21193000000000004  0.33313  1.0000
  C   C19       1.0  0.82746  0.17846  0.42386  1.0000
  C   C20       1.0  0.9299600000000002  0.15607  0.4696  1.0000
  C   C21       1.0  0.06674000000000001  0.16463  0.42482  1.0000
  C   C22       1.0  0.22372  0.52889  0.84883  1.0000
  C   C23       1.0  0.15876000000000004  0.64054  0.90416  1.0000
  C   C24       1.0  0.01489999999999991  0.6636000000000001  0.93711  1.0000
  C   C25       1.0  0.9344499999999999  0.57755  0.91293  1.0000
  C   C26       1.0  0.99835  0.4663500000000001  0.85775  1.0000
  C   C27       1.0  0.14217  0.44275000000000003  0.82604  1.0000
  C   C28       1.0  0.7788500000000003  0.60619  0.94634  1.0000
  C   C29       1.0  0.17923  0.06986  0.79784  1.0000
  C   C30       1.0  0.07503000000000001  0.048650000000000006  0.8759399999999999  1.0000
  C   C31       1.0  0.93595  0.07071  0.87719  1.0000
  C   C32       1.0  0.89751  0.11439  0.79995  1.0000
  C   C33       1.0  0.0009000000000000011  0.13563  0.7221  1.0000
  C   C34       1.0  0.14057000000000003  0.11366  0.7207299999999999  1.0000
  C   C35       1.0  0.7469499999999999  0.14157  0.8020199999999997  1.0000
  C   C36       1.0  0.7504499999999997  0.79538  0.71323  1.0000
  C   C37       1.0  0.89768  0.80448  0.66648  1.0000
  C   C38       1.0  0.00012999999999997933  0.7807  0.71199  1.0000
  C   C39       1.0  0.13760000000000003  0.78806  0.66687  1.0000
  C   C40       1.0  0.17252999999999996  0.82153  0.57614  1.0000
  C   C41       1.0  0.07002999999999995  0.84392  0.5304  1.0000
  C   C42       1.0  0.93326  0.83537  0.57518  1.0000
  O   O1        1.0  0.5322699999999999  0.3067  0.0259  1.0000
  O   O2        1.0  0.52573  0.5728  0.12140999999999999  1.0000
  O   O3        1.0  0.54025  0.3668600000000001  0.22068  1.0000
  O   O4        1.0  0.56209  0.59681  0.27428  1.0000
  O   O5        1.0  0.26927000000000006  0.2792  0.0177  1.0000
  O   O6        1.0  0.2873  0.48678  0.06449  1.0000
  O   O7        1.0  0.63319  0.82704  0.14692999999999998  1.0000
  O   O8        1.0  0.61511  0.08585  0.15139  1.0000
  O   O9        1.0  0.5465499999999998  0.93964  0.29466999999999993  1.0000
  O   O10       1.0  0.34111  0.86794  0.12281  1.0000
  O   O11       1.0  0.27961999999999987  0.82641  0.27183  1.0000
  O   O12       1.0  0.33374  0.20709000000000002  0.33298  1.0000
  O   O13       1.0  0.28537  0.21404000000000004  0.20197  1.0000
  O   O14       1.0  0.66123  0.0058  0.51111  1.0000
  O   O15       1.0  0.56606  0.19362  0.41905  1.0000
  O   O16       1.0  0.61292  0.25304  0.56317  1.0000
  O   O17       1.0  0.46772999999999987  0.6933  0.9741  1.0000
  O   O18       1.0  0.47427  0.42719000000000007  0.87859  1.0000
  O   O19       1.0  0.45975  0.63313  0.77931  1.0000
  O   O20       1.0  0.4379100000000001  0.40319  0.72572  1.0000
  O   O21       1.0  0.7307299999999998  0.7208  0.9823  1.0000
  O   O22       1.0  0.7126900000000002  0.51322  0.9355099999999998  1.0000
  O   O23       1.0  0.3667999999999999  0.17296  0.85307  1.0000
  O   O24       1.0  0.38489  0.9141400000000001  0.84861  1.0000
  O   O25       1.0  0.45344  0.06036  0.70533  1.0000
  O   O26       1.0  0.6588899999999998  0.13206000000000004  0.87719  1.0000
  O   O27       1.0  0.72038  0.17359  0.72817  1.0000
  O   O28       1.0  0.66626  0.79291  0.66702  1.0000
  O   O29       1.0  0.7146300000000001  0.78595  0.79803  1.0000
  O   O30       1.0  0.33876000000000006  0.99419  0.48889  1.0000
  O   O31       1.0  0.43393999999999994  0.80638  0.58095  1.0000
  O   O32       1.0  0.38707  0.74696  0.43682  1.0000
