data_image0
_chemical_formula_structural       Zn8H24C56N8O32
_chemical_formula_sum              "Zn8 H24 C56 N8 O32"
_cell_length_a       12.53282
_cell_length_b       13.805180000000002
_cell_length_c       14.466360000000002
_cell_angle_alpha    105.26038000000001
_cell_angle_beta     90.13355000000001
_cell_angle_gamma    90.17342

_symmetry_space_group_name_H-M    'P 1'
_symmetry_Int_Tables_number       1

loop_
  _symmetry_equiv_pos_as_xyz
  'x,y,z'

loop_
  _atom_site_type_symbol
  _atom_site_label
  _atom_site_symmetry_multiplicity
  _atom_site_fract_x
  _atom_site_fract_y
  _atom_site_fract_z
  _atom_site_occupancy
  Zn  Zn1       1.0  0.7810500000000001  0.79554  0.91932  1.0000
  Zn  Zn2       1.0  0.9813300000000001  0.64706  0.8346799999999998  1.0000
  Zn  Zn3       1.0  0.27913  0.70412  0.5809  1.0000
  Zn  Zn4       1.0  0.4794500000000001  0.8542100000000002  0.66721  1.0000
  Zn  Zn5       1.0  0.21895  0.20446000000000003  0.08067999999999999  1.0000
  Zn  Zn6       1.0  0.01868  0.35294  0.16532  1.0000
  Zn  Zn7       1.0  0.7208800000000001  0.29588  0.41909  1.0000
  Zn  Zn8       1.0  0.52055  0.14579000000000006  0.33279  1.0000
  H   H1        1.0  0.98457  0.52429  0.0651  1.0000
  H   H2        1.0  0.66656  0.6315800000000003  0.14352999999999994  1.0000
  H   H3        1.0  0.6642500000000001  0.52018  0.25778  1.0000
  H   H4        1.0  0.8200500000000002  0.47365  0.59085  1.0000
  H   H5        1.0  0.54499  0.60953  0.74927  1.0000
  H   H6        1.0  0.4299  0.48700000000000004  0.62601  1.0000
  H   H7        1.0  0.48510000000000003  0.9746800000000002  0.434  1.0000
  H   H8        1.0  0.16561000000000003  0.86833  0.35631  1.0000
  H   H9        1.0  0.16286  0.9808000000000001  0.24314  1.0000
  H   H10       1.0  0.31873  0.02617000000000001  0.90981  1.0000
  H   H11       1.0  0.04375000000000001  0.8894100000000001  0.7489599999999997  1.0000
  H   H12       1.0  0.9286900000000001  0.01034999999999994  0.8718799999999998  1.0000
  H   H13       1.0  0.01543  0.47571  0.9348999999999998  1.0000
  H   H14       1.0  0.33344  0.36842  0.85646  1.0000
  H   H15       1.0  0.3357500000000001  0.47982000000000014  0.74222  1.0000
  H   H16       1.0  0.17996000000000006  0.5263500000000001  0.40914  1.0000
  H   H17       1.0  0.45501  0.3904700000000001  0.25073  1.0000
  H   H18       1.0  0.5701  0.513  0.3739799999999999  1.0000
  H   H19       1.0  0.5149  0.025319999999999974  0.5659999999999998  1.0000
  H   H20       1.0  0.8344  0.13167  0.64368  1.0000
  H   H21       1.0  0.83714  0.019199999999999978  0.7568499999999999  1.0000
  H   H22       1.0  0.68127  0.9738300000000002  0.09019  1.0000
  H   H23       1.0  0.9562500000000002  0.11059  0.25104  1.0000
  H   H24       1.0  0.07132  0.9896500000000003  0.12811  1.0000
  C   C1        1.0  0.9108300000000001  0.52446  0.10402  1.0000
  C   C2        1.0  0.8246200000000001  0.5847100000000001  0.09326999999999999  1.0000
  C   C3        1.0  0.73426  0.5844  0.14981  1.0000
  C   C4        1.0  0.7326100000000002  0.5227  0.21247999999999997  1.0000
  C   C5        1.0  0.82018  0.4614700000000001  0.21573999999999993  1.0000
  C   C6        1.0  0.8322100000000001  0.64268  0.01824  1.0000
  C   C7        1.0  0.82656  0.3886300000000001  0.27761  1.0000
  C   C8        1.0  0.7341400000000001  0.4777800000000001  0.60154  1.0000
  C   C9        1.0  0.69094  0.54705  0.6810199999999998  1.0000
  C   C10       1.0  0.5797700000000001  0.55251  0.69042  1.0000
  C   C11       1.0  0.51665  0.48557  0.62327  1.0000
  C   C12       1.0  0.56592  0.4163400000000001  0.5477  1.0000
  C   C13       1.0  0.76364  0.61299  0.75409  1.0000
  C   C14       1.0  0.50118  0.33883000000000013  0.4757599999999999  1.0000
  C   C15       1.0  0.41102  0.9750000000000002  0.39536  1.0000
  C   C16       1.0  0.32443000000000005  0.91482  0.40629  1.0000
  C   C17       1.0  0.23355  0.91559  0.35017  1.0000
  C   C18       1.0  0.23165000000000002  0.9778700000000002  0.28803999999999996  1.0000
  C   C19       1.0  0.31966  0.038940000000000016  0.28449  1.0000
  C   C20       1.0  0.3319400000000001  0.85683  0.4813699999999999  1.0000
  C   C21       1.0  0.32619  0.11135  0.22203999999999996  1.0000
  C   C22       1.0  0.2328  0.02174  0.8985  1.0000
  C   C23       1.0  0.18961  0.9524000000000002  0.8185599999999998  1.0000
  C   C24       1.0  0.07853  0.94637  0.8082199999999998  1.0000
  C   C25       1.0  0.015409999999999995  0.01262999999999995  0.8750999999999998  1.0000
  C   C26       1.0  0.06451  0.08203999999999993  0.9510999999999997  1.0000
  C   C27       1.0  0.26191  0.8866100000000002  0.74591  1.0000
  C   C28       1.0  0.9991300000000001  0.15874  0.0225  1.0000
  C   C29       1.0  0.08917  0.47554  0.89597  1.0000
  C   C30       1.0  0.17538  0.41529000000000005  0.9067299999999998  1.0000
  C   C31       1.0  0.26574  0.4156000000000001  0.85019  1.0000
  C   C32       1.0  0.26739  0.47730000000000006  0.7875199999999998  1.0000
  C   C33       1.0  0.17982000000000006  0.53853  0.78426  1.0000
  C   C34       1.0  0.16780000000000003  0.35732000000000014  0.98175  1.0000
  C   C35       1.0  0.17344  0.61137  0.7223799999999998  1.0000
  C   C36       1.0  0.26586  0.52222  0.39845  1.0000
  C   C37       1.0  0.30906  0.45294999999999996  0.3189799999999999  1.0000
  C   C38       1.0  0.42023  0.44748999999999994  0.30957999999999997  1.0000
  C   C39       1.0  0.48335  0.51443  0.37673  1.0000
  C   C40       1.0  0.4340800000000001  0.5836600000000001  0.45229999999999987  1.0000
  C   C41       1.0  0.23636  0.38701000000000013  0.24590999999999993  1.0000
  C   C42       1.0  0.4988300000000001  0.66117  0.52424  1.0000
  C   C43       1.0  0.58898  0.025  0.60464  1.0000
  C   C44       1.0  0.67558  0.08518999999999996  0.5936999999999998  1.0000
  C   C45       1.0  0.76645  0.08441000000000001  0.64982  1.0000
  C   C46       1.0  0.7683500000000001  0.022129999999999986  0.71195  1.0000
  C   C47       1.0  0.68035  0.96107  0.7155099999999999  1.0000
  C   C48       1.0  0.66806  0.14317000000000005  0.51863  1.0000
  C   C49       1.0  0.67381  0.8886499999999999  0.7779599999999999  1.0000
  C   C50       1.0  0.7672  0.9782600000000001  0.10149  1.0000
  C   C51       1.0  0.8103900000000002  0.04760000000000001  0.18144  1.0000
  C   C52       1.0  0.9214700000000001  0.05363  0.19177  1.0000
  C   C53       1.0  0.9845900000000002  0.9873700000000001  0.1249  1.0000
  C   C54       1.0  0.93549  0.9179600000000002  0.0489  1.0000
  C   C55       1.0  0.7381000000000001  0.11339000000000003  0.25409  1.0000
  C   C56       1.0  0.0008699999999999986  0.84126  0.9774999999999998  1.0000
  N   N1        1.0  0.9077400000000002  0.46304  0.16182999999999995  1.0000
  N   N2        1.0  0.6730300000000001  0.41454000000000013  0.53634  1.0000
  N   N3        1.0  0.40788000000000013  0.03671000000000001  0.33777  1.0000
  N   N4        1.0  0.17167000000000002  0.08460999999999995  0.9633299999999998  1.0000
  N   N5        1.0  0.09227  0.5369600000000001  0.8381599999999998  1.0000
  N   N6        1.0  0.3269700000000001  0.58546  0.46365  1.0000
  N   N7        1.0  0.59213  0.9632900000000001  0.66223  1.0000
  N   N8        1.0  0.82833  0.9153900000000003  0.03665999999999999  1.0000
  O   O1        1.0  0.76629  0.71372  0.023369999999999995  1.0000
  O   O2        1.0  0.9049700000000003  0.6129200000000002  0.95626  1.0000
  O   O3        1.0  0.75149  0.3944000000000001  0.3382799999999999  1.0000
  O   O4        1.0  0.90524  0.3296  0.26495  1.0000
  O   O5        1.0  0.71889  0.67483  0.82341  1.0000
  O   O6        1.0  0.8637  0.59961  0.7398  1.0000
  O   O7        1.0  0.4068500000000001  0.32385000000000014  0.49080999999999997  1.0000
  O   O8        1.0  0.5557  0.29063  0.39908  1.0000
  O   O9        1.0  0.26463  0.7865700000000002  0.47695  1.0000
  O   O10       1.0  0.40614  0.8859900000000005  0.54264  1.0000
  O   O11       1.0  0.24815  0.10903  0.16470999999999994  1.0000
  O   O12       1.0  0.40812  0.16661  0.23087  1.0000
  O   O13       1.0  0.21686  0.82443  0.67648  1.0000
  O   O14       1.0  0.36203000000000013  0.9004200000000002  0.76066  1.0000
  O   O15       1.0  0.90406  0.17117  0.008189999999999998  1.0000
  O   O16       1.0  0.0541  0.20924000000000006  0.09821  1.0000
  O   O17       1.0  0.23371  0.28628  0.97663  1.0000
  O   O18       1.0  0.09503  0.3870800000000001  0.04374  1.0000
  O   O19       1.0  0.24851000000000004  0.6056  0.6617099999999999  1.0000
  O   O20       1.0  0.09476000000000002  0.6704000000000002  0.7350499999999998  1.0000
  O   O21       1.0  0.28112  0.3251700000000001  0.17657999999999993  1.0000
  O   O22       1.0  0.1363  0.4003900000000001  0.2602  1.0000
  O   O23       1.0  0.59315  0.67615  0.50919  1.0000
  O   O24       1.0  0.4443  0.7093700000000002  0.6009099999999998  1.0000
  O   O25       1.0  0.7353700000000001  0.21343  0.52305  1.0000
  O   O26       1.0  0.59387  0.11401000000000003  0.45736  1.0000
  O   O27       1.0  0.75186  0.8909700000000003  0.83528  1.0000
  O   O28       1.0  0.5918900000000001  0.8333900000000001  0.7691299999999999  1.0000
  O   O29       1.0  0.7831400000000002  0.17557  0.32352  1.0000
  O   O30       1.0  0.63797  0.09958000000000002  0.23933  1.0000
  O   O31       1.0  0.09594  0.82883  0.99181  1.0000
  O   O32       1.0  0.9459100000000001  0.7907700000000001  0.9017899999999998  1.0000
