data_image0
_chemical_formula_structural       Eu8H12C60O48
_chemical_formula_sum              "Eu8 H12 C60 O48"
_cell_length_a       10.81833
_cell_length_b       13.66653
_cell_length_c       14.566009999999999
_cell_angle_alpha    90.07568
_cell_angle_beta     89.96268
_cell_angle_gamma    90.22316000000001

_symmetry_space_group_name_H-M    'P 1'
_symmetry_Int_Tables_number       1

loop_
  _symmetry_equiv_pos_as_xyz
  'x,y,z'

loop_
  _atom_site_type_symbol
  _atom_site_label
  _atom_site_symmetry_multiplicity
  _atom_site_fract_x
  _atom_site_fract_y
  _atom_site_fract_z
  _atom_site_occupancy
  Eu  Eu1       1.0  0.25814  0.7173899999999998  0.78146  1.0000
  Eu  Eu2       1.0  0.00557  0.8724  0.63626  1.0000
  Eu  Eu3       1.0  0.24152  0.7845  0.28404  1.0000
  Eu  Eu4       1.0  0.49663  0.63008  0.13766  1.0000
  Eu  Eu5       1.0  0.74136  0.28442  0.2162  1.0000
  Eu  Eu6       1.0  0.9964  0.12976  0.36239  1.0000
  Eu  Eu7       1.0  0.75945  0.21683999999999998  0.71794  1.0000
  Eu  Eu8       1.0  0.50769  0.37113  0.86387  1.0000
  H   H1        1.0  0.13045  0.86281  0.050119999999999984  1.0000
  H   H2        1.0  0.06328  0.41485999999999995  0.85669  1.0000
  H   H3        1.0  0.0421  0.4321699999999999  0.65321  1.0000
  H   H4        1.0  0.36935  0.63816  0.55084  1.0000
  H   H5        1.0  0.4384199999999999  0.08609  0.35531  1.0000
  H   H6        1.0  0.45746  0.06822  0.15355999999999997  1.0000
  H   H7        1.0  0.8694999999999999  0.13907  0.94981  1.0000
  H   H8        1.0  0.9399599999999999  0.5861  0.14458  1.0000
  H   H9        1.0  0.9573999999999999  0.5679  0.34642  1.0000
  H   H10       1.0  0.63186  0.36297  0.4492899999999999  1.0000
  H   H11       1.0  0.5624  0.91564  0.64279  1.0000
  H   H12       1.0  0.54206  0.9316199999999998  0.8464699999999998  1.0000
  C   C1        1.0  0.07356  0.92382  0.02804  1.0000
  C   C2        1.0  0.03594  0.9278599999999999  0.93633  1.0000
  C   C3        1.0  0.03933  0.9955399999999998  0.09182  1.0000
  C   C4        1.0  0.08648999999999998  0.8497999999999999  0.87462  1.0000
  C   C5        1.0  0.08671  0.98263  0.18752999999999995  1.0000
  C   C6        1.0  0.12542  0.50215  0.97259  1.0000
  C   C7        1.0  0.03636999999999999  0.4518199999999999  0.9197999999999997  1.0000
  C   C8        1.0  0.09012  0.5521  0.05415  1.0000
  C   C9        1.0  0.2544  0.50724  0.93621  1.0000
  C   C10       1.0  0.18582  0.6034999999999999  0.11245  1.0000
  C   C11       1.0  0.0239  0.46197  0.58544  1.0000
  C   C12       1.0  0.9868799999999999  0.3984  0.51468  1.0000
  C   C13       1.0  0.0382  0.56281  0.57285  1.0000
  C   C14       1.0  0.08553  0.6194899999999999  0.65413  1.0000
  C   C15       1.0  0.9714  0.29352  0.54389  1.0000
  C   C16       1.0  0.42702  0.57763  0.52849  1.0000
  C   C17       1.0  0.46431999999999995  0.57355  0.43664999999999987  1.0000
  C   C18       1.0  0.46173  0.5061  0.5920799999999999  1.0000
  C   C19       1.0  0.41315  0.6506  0.37412999999999996  1.0000
  C   C20       1.0  0.41340000000000005  0.51719  0.68785  1.0000
  C   C21       1.0  0.37726  0.9984099999999999  0.47077  1.0000
  C   C22       1.0  0.46593  0.04937  0.4182399999999999  1.0000
  C   C23       1.0  0.41225  0.9489999999999997  0.5523399999999999  1.0000
  C   C24       1.0  0.24822  0.9932999999999997  0.4349299999999999  1.0000
  C   C25       1.0  0.31805  0.89666  0.61084  1.0000
  C   C26       1.0  0.4758899999999999  0.03838  0.08569999999999997  1.0000
  C   C27       1.0  0.51384  0.10156  0.01501  1.0000
  C   C28       1.0  0.4610699999999999  0.93759  0.07292  1.0000
  C   C29       1.0  0.4138  0.8808999999999998  0.15417  1.0000
  C   C30       1.0  0.53086  0.20596  0.04475  1.0000
  C   C31       1.0  0.92652  0.07812  0.97189  1.0000
  C   C32       1.0  0.96398  0.07394999999999999  0.06367  1.0000
  C   C33       1.0  0.9604200000000002  0.00617  0.90812  1.0000
  C   C34       1.0  0.91339  0.15088999999999997  0.12687  1.0000
  C   C35       1.0  0.91285  0.01736  0.81216  1.0000
  C   C36       1.0  0.8782499999999999  0.49837  0.029049999999999992  1.0000
  C   C37       1.0  0.96715  0.54916  0.08156  1.0000
  C   C38       1.0  0.9134599999999999  0.44872  0.94747  1.0000
  C   C39       1.0  0.749  0.49319  0.06496  1.0000
  C   C40       1.0  0.8189099999999999  0.39655  0.88908  1.0000
  C   C41       1.0  0.97593  0.53832  0.41427  1.0000
  C   C42       1.0  0.01365  0.60177  0.48492  1.0000
  C   C43       1.0  0.96174  0.43747  0.42696  1.0000
  C   C44       1.0  0.91434  0.38052  0.34586  1.0000
  C   C45       1.0  0.03078  0.70604  0.45519  1.0000
  C   C46       1.0  0.57487  0.42383999999999994  0.47181  1.0000
  C   C47       1.0  0.53746  0.42786  0.5636599999999998  1.0000
  C   C48       1.0  0.54013  0.49548  0.40822  1.0000
  C   C49       1.0  0.58752  0.34965  0.62529  1.0000
  C   C50       1.0  0.5869  0.48277  0.31225  1.0000
  C   C51       1.0  0.62383  0.00293  0.52717  1.0000
  C   C52       1.0  0.53503  0.95246  0.57988  1.0000
  C   C53       1.0  0.58887  0.05255  0.44562  1.0000
  C   C54       1.0  0.75243  0.007119999999999999  0.5637699999999998  1.0000
  C   C55       1.0  0.68506  0.1036  0.38756  1.0000
  C   C56       1.0  0.52359  0.9614699999999999  0.91433  1.0000
  C   C57       1.0  0.48573999999999995  0.8982799999999997  0.98508  1.0000
  C   C58       1.0  0.53848  0.06232  0.92707  1.0000
  C   C59       1.0  0.58625  0.11877999999999998  0.8458499999999999  1.0000
  C   C60       1.0  0.46856999999999993  0.79341  0.9561  1.0000
  O   O1        1.0  0.10661  0.76587  0.9074  1.0000
  O   O2        1.0  0.11906  0.8704799999999999  0.79119  1.0000
  O   O3        1.0  0.10013  0.8948599999999998  0.2136  1.0000
  O   O4        1.0  0.1127  0.05723  0.23645999999999998  1.0000
  O   O5        1.0  0.32455  0.43355  0.93987  1.0000
  O   O6        1.0  0.28169  0.58778  0.8985799999999998  1.0000
  O   O7        1.0  0.15037  0.66655  0.17045  1.0000
  O   O8        1.0  0.29738  0.57665  0.09823  1.0000
  O   O9        1.0  0.11274  0.57542  0.72708  1.0000
  O   O10       1.0  0.10491  0.71335  0.648  1.0000
  O   O11       1.0  0.9060199999999999  0.28484  0.6162199999999999  1.0000
  O   O12       1.0  0.025059999999999995  0.22394  0.50371  1.0000
  O   O13       1.0  0.3930699999999999  0.73493  0.40706  1.0000
  O   O14       1.0  0.38151999999999997  0.6287499999999999  0.2912499999999999  1.0000
  O   O15       1.0  0.39437999999999995  0.60499  0.71337  1.0000
  O   O16       1.0  0.39275  0.44236999999999993  0.7367899999999997  1.0000
  O   O17       1.0  0.18075  0.06851  0.43966  1.0000
  O   O18       1.0  0.21671  0.91322  0.39817  1.0000
  O   O19       1.0  0.3548  0.83295  0.6670799999999998  1.0000
  O   O20       1.0  0.20574  0.9236499999999999  0.59877  1.0000
  O   O21       1.0  0.38663  0.92528  0.22714  1.0000
  O   O22       1.0  0.39528  0.7870899999999998  0.14772999999999994  1.0000
  O   O23       1.0  0.59301  0.21462  0.11846  1.0000
  O   O24       1.0  0.48088  0.27678  0.00379  1.0000
  O   O25       1.0  0.89383  0.2358  0.09520999999999999  1.0000
  O   O26       1.0  0.88146  0.1284  0.20944  1.0000
  O   O27       1.0  0.8994999999999999  0.10558  0.78589  1.0000
  O   O28       1.0  0.88785  0.9427599999999998  0.76376  1.0000
  O   O29       1.0  0.68083  0.56807  0.06039  1.0000
  O   O30       1.0  0.71798  0.4131  0.10174  1.0000
  O   O31       1.0  0.85526  0.3329099999999999  0.83247  1.0000
  O   O32       1.0  0.70663  0.4235099999999999  0.90184  1.0000
  O   O33       1.0  0.88678  0.42461  0.27295  1.0000
  O   O34       1.0  0.8959999999999999  0.28672  0.35233  1.0000
  O   O35       1.0  0.09283  0.71459  0.38137  1.0000
  O   O36       1.0  0.98086  0.7768499999999999  0.49642999999999987  1.0000
  O   O37       1.0  0.60664  0.26544  0.5925999999999999  1.0000
  O   O38       1.0  0.6206  0.3702599999999999  0.70865  1.0000
  O   O39       1.0  0.59997  0.39501  0.28585  1.0000
  O   O40       1.0  0.61262  0.55741  0.26347  1.0000
  O   O41       1.0  0.8202799999999999  0.93214  0.5602  1.0000
  O   O42       1.0  0.7819900000000001  0.08704  0.60172  1.0000
  O   O43       1.0  0.65016  0.16655  0.32946  1.0000
  O   O44       1.0  0.79644  0.07665999999999999  0.40203  1.0000
  O   O45       1.0  0.6133  0.0745  0.77287  1.0000
  O   O46       1.0  0.60587  0.21265  0.8519899999999999  1.0000
  O   O47       1.0  0.40104  0.7852  0.88477  1.0000
  O   O48       1.0  0.52258  0.72372  0.99563  1.0000
