data_image0
_chemical_formula_structural       Mg6Cu2H18C42N6O26
_chemical_formula_sum              "Mg6 Cu2 H18 C42 N6 O26"
_cell_length_a       13.17436
_cell_length_b       13.17441
_cell_length_c       14.83562
_cell_angle_alpha    90.0
_cell_angle_beta     90.0
_cell_angle_gamma    120.35434000000001

_space_group_name_H-M_alt    "P 1"
_space_group_IT_number       1

loop_
  _space_group_symop_operation_xyz
  'x, y, z'

loop_
  _atom_site_type_symbol
  _atom_site_label
  _atom_site_symmetry_multiplicity
  _atom_site_fract_x
  _atom_site_fract_y
  _atom_site_fract_z
  _atom_site_occupancy
  Mg  Mg1       1.0  0.17677999999999996  0.5383699999999999  0.25  1.0000
  Mg  Mg2       1.0  0.36244999999999994  0.82271  0.25  1.0000
  Mg  Mg3       1.0  0.4606099999999999  0.6379199999999999  0.25  1.0000
  Mg  Mg4       1.0  0.63792  0.46061  0.75  1.0000
  Mg  Mg5       1.0  0.5383699999999999  0.17677999999999994  0.75  1.0000
  Mg  Mg6       1.0  0.82272  0.36245  0.75  1.0000
  Cu  Cu1       1.0  0.99752  0.9975199999999999  0.5  1.0000
  Cu  Cu2       1.0  0.99752  0.9975199999999999  0.0  1.0000
  H   H1        1.0  0.13514999999999983  0.9076499999999998  0.40256  1.0000
  H   H2        1.0  0.7755699999999998  0.8703299999999998  0.40185  1.0000
  H   H3        1.0  0.09163999999999999  0.22416  0.40289  1.0000
  H   H4        1.0  0.13514999999999983  0.9076499999999998  0.09744000000000003  1.0000
  H   H5        1.0  0.7755699999999998  0.8703299999999998  0.09815  1.0000
  H   H6        1.0  0.09163999999999999  0.22416  0.09711  1.0000
  H   H7        1.0  0.22416  0.09164999999999998  0.59712  1.0000
  H   H8        1.0  0.9076499999999998  0.13516  0.59744  1.0000
  H   H9        1.0  0.87032  0.77557  0.5981500000000001  1.0000
  H   H10       1.0  0.22416  0.09164999999999998  0.9028900000000002  1.0000
  H   H11       1.0  0.9076499999999998  0.13516  0.90256  1.0000
  H   H12       1.0  0.87032  0.77557  0.90185  1.0000
  H   H13       1.0  0.9993500000000001  0.5546  0.49972  1.0000
  H   H14       1.0  0.5545999999999999  0.9993499999999998  0.50029  1.0000
  H   H15       1.0  0.44481999999999994  0.44481999999999994  0.5  1.0000
  H   H16       1.0  0.9993500000000001  0.5546  0.00028  1.0000
  H   H17       1.0  0.5545999999999999  0.9993499999999998  0.99972  1.0000
  H   H18       1.0  0.44481999999999994  0.44481999999999994  0.0  1.0000
  C   C1        1.0  0.07502999999999987  0.8345299999999999  0.44511000000000006  1.0000
  C   C2        1.0  0.07350999999999995  0.7279699999999999  0.44091  1.0000
  C   C3        1.0  0.1499799999999999  0.7126499999999999  0.37268  1.0000
  C   C4        1.0  0.76199  0.9294799999999998  0.44465  1.0000
  C   C5        1.0  0.6555599999999999  0.9280799999999998  0.4410600000000001  1.0000
  C   C6        1.0  0.56378  0.85061  0.37273000000000006  1.0000
  C   C7        1.0  0.16480999999999998  0.23764  0.44525  1.0000
  C   C8        1.0  0.27129  0.34395  0.44117  1.0000
  C   C9        1.0  0.2863899999999999  0.43582999999999994  0.3728  1.0000
  C   C10       1.0  0.07502999999999987  0.8345299999999999  0.0549  1.0000
  C   C11       1.0  0.07350999999999995  0.7279699999999999  0.05909  1.0000
  C   C12       1.0  0.1499799999999999  0.7126499999999999  0.12732  1.0000
  C   C13       1.0  0.76199  0.9294799999999998  0.05535  1.0000
  C   C14       1.0  0.6555599999999999  0.9280799999999998  0.05895  1.0000
  C   C15       1.0  0.56378  0.85061  0.12727  1.0000
  C   C16       1.0  0.16480999999999998  0.23764  0.054750000000000014  1.0000
  C   C17       1.0  0.27129  0.34395  0.05884  1.0000
  C   C18       1.0  0.2863899999999999  0.43582999999999994  0.1272  1.0000
  C   C19       1.0  0.23763999999999996  0.16482  0.55475  1.0000
  C   C20       1.0  0.34395  0.27129  0.55884  1.0000
  C   C21       1.0  0.43583  0.28639  0.6272  1.0000
  C   C22       1.0  0.83454  0.07504  0.5549  1.0000
  C   C23       1.0  0.72797  0.07350999999999999  0.55909  1.0000
  C   C24       1.0  0.71265  0.14998  0.62733  1.0000
  C   C25       1.0  0.92948  0.76199  0.55535  1.0000
  C   C26       1.0  0.92808  0.6555599999999999  0.55895  1.0000
  C   C27       1.0  0.8506099999999999  0.56378  0.62727  1.0000
  C   C28       1.0  0.23763999999999996  0.16482  0.94526  1.0000
  C   C29       1.0  0.34395  0.27129  0.94117  1.0000
  C   C30       1.0  0.43583  0.28639  0.87281  1.0000
  C   C31       1.0  0.83454  0.07504  0.94511  1.0000
  C   C32       1.0  0.72797  0.07350999999999999  0.9409100000000001  1.0000
  C   C33       1.0  0.71265  0.14998  0.87268  1.0000
  C   C34       1.0  0.92948  0.76199  0.94466  1.0000
  C   C35       1.0  0.92808  0.6555599999999999  0.94106  1.0000
  C   C36       1.0  0.8506099999999999  0.56378  0.87273  1.0000
  C   C37       1.0  0.000179999999999999  0.63764  0.49985  1.0000
  C   C38       1.0  0.63764  0.00017999999999999998  0.50016  1.0000
  C   C39       1.0  0.36172  0.36172  0.5  1.0000
  C   C40       1.0  0.000179999999999999  0.63764  0.00015  1.0000
  C   C41       1.0  0.63764  0.00017999999999999998  0.9998500000000001  1.0000
  C   C42       1.0  0.36172  0.36172  0.0  1.0000
  N   N1        1.0  0.0030599999999999833  0.85143  0.50039  1.0000
  N   N2        1.0  0.8514399999999999  0.00307  0.49961  1.0000
  N   N3        1.0  0.14825999999999998  0.14825999999999998  0.5  1.0000
  N   N4        1.0  0.0030599999999999833  0.85143  0.99961  1.0000
  N   N5        1.0  0.8514399999999999  0.00307  0.00039  1.0000
  N   N6        1.0  0.14825999999999998  0.14825999999999998  0.0  1.0000
  O   O1        1.0  0.1158299999999999  0.6071999999999999  0.34988000000000014  1.0000
  O   O2        1.0  0.2387199999999999  0.8072099999999999  0.34503  1.0000
  O   O3        1.0  0.49233999999999994  0.884  0.34974  1.0000
  O   O4        1.0  0.5698699999999998  0.7625199999999999  0.34515  1.0000
  O   O5        1.0  0.39186999999999994  0.5076699999999998  0.34982  1.0000
  O   O6        1.0  0.19205999999999995  0.42955999999999994  0.3451900000000001  1.0000
  O   O7        1.0  0.1158299999999999  0.6071999999999999  0.15012  1.0000
  O   O8        1.0  0.2387199999999999  0.8072099999999999  0.15497  1.0000
  O   O9        1.0  0.49233999999999994  0.884  0.15026  1.0000
  O   O10       1.0  0.5698699999999998  0.7625199999999999  0.15485000000000002  1.0000
  O   O11       1.0  0.39186999999999994  0.5076699999999998  0.15018  1.0000
  O   O12       1.0  0.19205999999999995  0.42955999999999994  0.15481  1.0000
  O   O13       1.0  0.50767  0.3918699999999999  0.65018  1.0000
  O   O14       1.0  0.42956  0.19206  0.65481  1.0000
  O   O15       1.0  0.6072  0.11583  0.65013  1.0000
  O   O16       1.0  0.80721  0.23871999999999996  0.65497  1.0000
  O   O17       1.0  0.8839999999999999  0.4923399999999999  0.6502600000000002  1.0000
  O   O18       1.0  0.76252  0.56987  0.6548500000000003  1.0000
  O   O19       1.0  0.50767  0.3918699999999999  0.8498200000000002  1.0000
  O   O20       1.0  0.42956  0.19206  0.84519  1.0000
  O   O21       1.0  0.6072  0.11583  0.84988  1.0000
  O   O22       1.0  0.80721  0.23871999999999996  0.8450300000000002  1.0000
  O   O23       1.0  0.8839999999999999  0.4923399999999999  0.84974  1.0000
  O   O24       1.0  0.76252  0.56987  0.84516  1.0000
  O   O25       1.0  0.3334099999999999  0.6664799999999999  0.25  1.0000
  O   O26       1.0  0.6664799999999999  0.33340999999999993  0.75  1.0000
