data_image0
_chemical_formula_structural       Cd4H40C64N24O16
_chemical_formula_sum              "Cd4 H40 C64 N24 O16"
_cell_length_a       11.52593
_cell_length_b       13.836050000000002
_cell_length_c       13.77869
_cell_angle_alpha    102.35627
_cell_angle_beta     89.97874
_cell_angle_gamma    114.6979

_space_group_name_H-M_alt    "P 1"
_space_group_IT_number       1

loop_
  _space_group_symop_operation_xyz
  'x, y, z'

loop_
  _atom_site_type_symbol
  _atom_site_label
  _atom_site_symmetry_multiplicity
  _atom_site_fract_x
  _atom_site_fract_y
  _atom_site_fract_z
  _atom_site_occupancy
  Cd  Cd1       1.0  0.40368  0.44462  0.3655499999999999  1.0000
  Cd  Cd2       1.0  0.9592599999999999  0.55507  0.13431  1.0000
  Cd  Cd3       1.0  0.59633  0.55538  0.63445  1.0000
  Cd  Cd4       1.0  0.04074999999999998  0.44492  0.8656899999999997  1.0000
  H   H1        1.0  0.2622499999999999  0.3536099999999999  0.77073  1.0000
  H   H2        1.0  0.44029999999999997  0.31305000000000005  0.83513  1.0000
  H   H3        1.0  0.20107  0.20376  0.3650599999999999  1.0000
  H   H4        1.0  0.18226  0.01717999999999997  0.3759699999999999  1.0000
  H   H5        1.0  0.59324  0.14441999999999994  0.3755399999999999  1.0000
  H   H6        1.0  0.59566  0.32505  0.36463  1.0000
  H   H7        1.0  0.23607  0.76662  0.37763999999999986  1.0000
  H   H8        1.0  0.21883999999999998  0.5824999999999999  0.3801699999999999  1.0000
  H   H9        1.0  0.61241  0.6847  0.37733999999999995  1.0000
  H   H10       1.0  0.6448099999999999  0.8746699999999997  0.36817  1.0000
  H   H11       1.0  0.90713  0.64545  0.72851  1.0000
  H   H12       1.0  0.12636999999999995  0.68615  0.66459  1.0000
  H   H13       1.0  0.9966399999999999  0.79556  0.1351  1.0000
  H   H14       1.0  0.16407999999999992  0.98197  0.12391  1.0000
  H   H15       1.0  0.44843999999999995  0.8556  0.12422999999999997  1.0000
  H   H16       1.0  0.27029  0.67503  0.13538  1.0000
  H   H17       1.0  0.46985999999999994  0.2333  0.1224  1.0000
  H   H18       1.0  0.6367399999999999  0.41729  0.11961999999999998  1.0000
  H   H19       1.0  0.9283499999999999  0.31566  0.12239  1.0000
  H   H20       1.0  0.77103  0.12601  0.13187  1.0000
  H   H21       1.0  0.7377599999999999  0.6463899999999999  0.22927  1.0000
  H   H22       1.0  0.5597  0.68695  0.16487  1.0000
  H   H23       1.0  0.79894  0.79624  0.6349399999999998  1.0000
  H   H24       1.0  0.8177499999999999  0.9828200000000001  0.62403  1.0000
  H   H25       1.0  0.40676999999999996  0.8555799999999999  0.62446  1.0000
  H   H26       1.0  0.40435  0.67495  0.63537  1.0000
  H   H27       1.0  0.76394  0.23336999999999994  0.6223599999999999  1.0000
  H   H28       1.0  0.7811599999999999  0.4175  0.61983  1.0000
  H   H29       1.0  0.38759999999999994  0.3153  0.62266  1.0000
  H   H30       1.0  0.35518999999999995  0.12533000000000002  0.63183  1.0000
  H   H31       1.0  0.09286999999999998  0.35455  0.27148999999999995  1.0000
  H   H32       1.0  0.8736299999999998  0.31383999999999995  0.33540999999999993  1.0000
  H   H33       1.0  0.003370000000000006  0.20443  0.8649  1.0000
  H   H34       1.0  0.8359299999999998  0.01802000000000001  0.87609  1.0000
  H   H35       1.0  0.5515699999999999  0.1444  0.87577  1.0000
  H   H36       1.0  0.72972  0.3249699999999999  0.8646199999999999  1.0000
  H   H37       1.0  0.53015  0.76669  0.8776  1.0000
  H   H38       1.0  0.36327  0.58271  0.88038  1.0000
  H   H39       1.0  0.07166000000000002  0.68434  0.87761  1.0000
  H   H40       1.0  0.22896999999999978  0.8739899999999998  0.8681299999999997  1.0000
  C   C1        1.0  0.32884  0.37603  0.045949999999999984  1.0000
  C   C2        1.0  0.23762999999999998  0.40733  0.01134  1.0000
  C   C3        1.0  0.28301  0.36007  0.84952  1.0000
  C   C4        1.0  0.3785299999999999  0.33596999999999994  0.8856999999999998  1.0000
  C   C5        1.0  0.34592  0.37829  0.1554  1.0000
  C   C6        1.0  0.17120999999999997  0.46179  0.08285  1.0000
  C   C7        1.0  0.2851399999999999  0.18705999999999992  0.36809999999999987  1.0000
  C   C8        1.0  0.27451999999999993  0.08454999999999999  0.37381  1.0000
  C   C9        1.0  0.38629  0.06792000000000001  0.3759799999999999  1.0000
  C   C10       1.0  0.50508  0.15502  0.37327  1.0000
  C   C11       1.0  0.50668  0.25488  0.36837  1.0000
  C   C12       1.0  0.44268  0.83473  0.37329  1.0000
  C   C13       1.0  0.32135999999999987  0.75161  0.37722  1.0000
  C   C14       1.0  0.31230999999999987  0.6487199999999999  0.3794599999999999  1.0000
  C   C15       1.0  0.5321  0.7065  0.3759799999999999  1.0000
  C   C16       1.0  0.54997  0.81129  0.37162  1.0000
  C   C17       1.0  0.95297  0.62491  0.45367  1.0000
  C   C18       1.0  0.8300299999999998  0.5925399999999997  0.4878499999999999  1.0000
  C   C19       1.0  0.92202  0.63919  0.6498399999999999  1.0000
  C   C20       1.0  0.0419  0.6636  0.61393  1.0000
  C   C21       1.0  0.9689  0.62408  0.3445699999999999  1.0000
  C   C22       1.0  0.7093199999999998  0.53714  0.4160699999999999  1.0000
  C   C23       1.0  0.09749999999999999  0.81244  0.13206  1.0000
  C   C24       1.0  0.18943000000000007  0.91499  0.12618  1.0000
  C   C25       1.0  0.31801999999999986  0.9319499999999997  0.12400999999999997  1.0000
  C   C26       1.0  0.34966999999999987  0.84496  0.12668  1.0000
  C   C27       1.0  0.2513699999999998  0.7450599999999998  0.13175  1.0000
  C   C28       1.0  0.60829  0.16532  0.12677  1.0000
  C   C29       1.0  0.57019  0.24834  0.12276999999999998  1.0000
  C   C30       1.0  0.6641099999999999  0.35124999999999995  0.12035  1.0000
  C   C31       1.0  0.8261799999999998  0.29381  0.12384  1.0000
  C   C32       1.0  0.7391799999999998  0.18902  0.1284  1.0000
  C   C33       1.0  0.67117  0.62396  0.95405  1.0000
  C   C34       1.0  0.76238  0.5926699999999999  0.9886599999999999  1.0000
  C   C35       1.0  0.71699  0.63993  0.15049  1.0000
  C   C36       1.0  0.62148  0.66403  0.1143  1.0000
  C   C37       1.0  0.6540899999999998  0.62171  0.8445999999999999  1.0000
  C   C38       1.0  0.82879  0.5382  0.91715  1.0000
  C   C39       1.0  0.71487  0.81294  0.6319  1.0000
  C   C40       1.0  0.72549  0.91545  0.6261899999999998  1.0000
  C   C41       1.0  0.6137199999999998  0.9320699999999998  0.62402  1.0000
  C   C42       1.0  0.4949299999999999  0.84498  0.62673  1.0000
  C   C43       1.0  0.49333  0.7451199999999999  0.6316299999999999  1.0000
  C   C44       1.0  0.55733  0.16527  0.62671  1.0000
  C   C45       1.0  0.67865  0.24839000000000003  0.62278  1.0000
  C   C46       1.0  0.6876999999999999  0.3512799999999999  0.6205399999999999  1.0000
  C   C47       1.0  0.46791  0.2935  0.62402  1.0000
  C   C48       1.0  0.45004  0.18870999999999993  0.6283799999999999  1.0000
  C   C49       1.0  0.04704000000000004  0.37508  0.54633  1.0000
  C   C50       1.0  0.16997999999999994  0.40746  0.51215  1.0000
  C   C51       1.0  0.07799000000000002  0.36081  0.35016  1.0000
  C   C52       1.0  0.9581099999999999  0.3363999999999999  0.38607  1.0000
  C   C53       1.0  0.03109999999999994  0.3759199999999999  0.65543  1.0000
  C   C54       1.0  0.29069  0.46286  0.58393  1.0000
  C   C55       1.0  0.90251  0.18755999999999998  0.8679399999999998  1.0000
  C   C56       1.0  0.81058  0.08501000000000003  0.87382  1.0000
  C   C57       1.0  0.6819899999999999  0.06804999999999993  0.8759899999999998  1.0000
  C   C58       1.0  0.65034  0.15502999999999995  0.87332  1.0000
  C   C59       1.0  0.7486399999999999  0.25494  0.86825  1.0000
  C   C60       1.0  0.39172  0.8346799999999999  0.8732299999999997  1.0000
  C   C61       1.0  0.42980999999999997  0.7516599999999999  0.87723  1.0000
  C   C62       1.0  0.33589999999999987  0.6487499999999999  0.8796499999999998  1.0000
  C   C63       1.0  0.1738299999999999  0.70619  0.87616  1.0000
  C   C64       1.0  0.26082999999999995  0.81098  0.8715999999999999  1.0000
  N   N1        1.0  0.3998099999999999  0.34082999999999997  0.98285  1.0000
  N   N2        1.0  0.21269999999999997  0.39535999999999993  0.91292  1.0000
  N   N3        1.0  0.3989899999999999  0.27097  0.36613999999999997  1.0000
  N   N4        1.0  0.4155  0.62619  0.37954  1.0000
  N   N5        1.0  0.36721  0.96151  0.38177999999999995  1.0000
  N   N6        1.0  0.46591  0.94286  0.36883  1.0000
  N   N7        1.0  0.058879999999999974  0.65975  0.51698  1.0000
  N   N8        1.0  0.81658  0.60395  0.58618  1.0000
  N   N9        1.0  0.12750999999999996  0.7287299999999999  0.13407  1.0000
  N   N10       1.0  0.78993  0.37399  0.12025  1.0000
  N   N11       1.0  0.40562999999999994  0.03832  0.11803  1.0000
  N   N12       1.0  0.5230899999999999  0.05724  0.13149  1.0000
  N   N13       1.0  0.6002  0.65916  0.01715  1.0000
  N   N14       1.0  0.78731  0.60463  0.08708  1.0000
  N   N15       1.0  0.60102  0.72902  0.63386  1.0000
  N   N16       1.0  0.58451  0.37381  0.6204599999999999  1.0000
  N   N17       1.0  0.6327899999999999  0.03848999999999994  0.6182199999999998  1.0000
  N   N18       1.0  0.5340999999999999  0.05713999999999997  0.6311699999999999  1.0000
  N   N19       1.0  0.9411299999999998  0.34024999999999994  0.48302  1.0000
  N   N20       1.0  0.18342999999999995  0.39605  0.41382  1.0000
  N   N21       1.0  0.8724999999999998  0.27127  0.86594  1.0000
  N   N22       1.0  0.21007999999999993  0.62601  0.87975  1.0000
  N   N23       1.0  0.59438  0.96167  0.8819699999999998  1.0000
  N   N24       1.0  0.47691999999999996  0.9427499999999999  0.8685099999999998  1.0000
  O   O1        1.0  0.45256  0.4497999999999999  0.20358999999999997  1.0000
  O   O2        1.0  0.255  0.30969  0.18983999999999998  1.0000
  O   O3        1.0  0.22332  0.50941  0.16931  1.0000
  O   O4        1.0  0.06535999999999993  0.4565899999999999  0.045429999999999984  1.0000
  O   O5        1.0  0.004100000000000009  0.55269  0.29618999999999995  1.0000
  O   O6        1.0  0.9470799999999998  0.69311  0.3107499999999999  1.0000
  O   O7        1.0  0.71436  0.48910999999999993  0.32989  1.0000
  O   O8        1.0  0.60837  0.54193  0.45323  1.0000
  O   O9        1.0  0.54744  0.5502  0.79641  1.0000
  O   O10       1.0  0.7450099999999998  0.6902999999999999  0.8101599999999999  1.0000
  O   O11       1.0  0.7766899999999997  0.49058999999999997  0.8306899999999998  1.0000
  O   O12       1.0  0.9346499999999998  0.54341  0.9545699999999999  1.0000
  O   O13       1.0  0.9959099999999997  0.44729999999999986  0.70381  1.0000
  O   O14       1.0  0.052930000000000005  0.30689  0.68925  1.0000
  O   O15       1.0  0.28564  0.51088  0.67011  1.0000
  O   O16       1.0  0.39164  0.45807  0.54677  1.0000
