data_image0
_chemical_formula_structural       Mn8H24C72O48
_chemical_formula_sum              "Mn8 H24 C72 O48"
_cell_length_a       12.21653
_cell_length_b       13.896810000000002
_cell_length_c       16.47626
_cell_angle_alpha    90.00463
_cell_angle_beta     89.99722
_cell_angle_gamma    89.91478

_space_group_name_H-M_alt    "P 1"
_space_group_IT_number       1

loop_
  _space_group_symop_operation_xyz
  'x, y, z'

loop_
  _atom_site_type_symbol
  _atom_site_label
  _atom_site_symmetry_multiplicity
  _atom_site_fract_x
  _atom_site_fract_y
  _atom_site_fract_z
  _atom_site_occupancy
  Mn  Mn1       1.0  0.54188  0.39076  0.4161299999999999  1.0000
  Mn  Mn2       1.0  0.4585699999999999  0.10912  0.91614  1.0000
  Mn  Mn3       1.0  0.04245999999999999  0.60903  0.08373  1.0000
  Mn  Mn4       1.0  0.95779  0.89132  0.58369  1.0000
  Mn  Mn5       1.0  0.45834  0.6091  0.58384  1.0000
  Mn  Mn6       1.0  0.54126  0.89098  0.08387  1.0000
  Mn  Mn7       1.0  0.95776  0.39142  0.91638  1.0000
  Mn  Mn8       1.0  0.04243  0.10879  0.41631  1.0000
  H   H1        1.0  0.24921999999999997  0.65825  0.52351  1.0000
  H   H2        1.0  0.51185  0.26215  0.15602  1.0000
  H   H3        1.0  0.7783399999999999  0.45227000000000006  0.21964  1.0000
  H   H4        1.0  0.7507399999999999  0.8416100000000001  0.0235  1.0000
  H   H5        1.0  0.48811999999999994  0.23782  0.65616  1.0000
  H   H6        1.0  0.22156999999999996  0.04780000000000001  0.71965  1.0000
  H   H7        1.0  0.74939  0.34211  0.9763299999999999  1.0000
  H   H8        1.0  0.01087  0.73746  0.34396  1.0000
  H   H9        1.0  0.27848  0.54759  0.28047  1.0000
  H   H10       1.0  0.25059  0.15808  0.47638  1.0000
  H   H11       1.0  0.98924  0.76269  0.84398  1.0000
  H   H12       1.0  0.7217099999999999  0.95242  0.78039  1.0000
  H   H13       1.0  0.7508099999999999  0.34157  0.4765199999999999  1.0000
  H   H14       1.0  0.48823  0.73786  0.844  1.0000
  H   H15       1.0  0.22178  0.54785  0.78032  1.0000
  H   H16       1.0  0.24921999999999997  0.15834  0.9765  1.0000
  H   H17       1.0  0.5119  0.76226  0.34386  1.0000
  H   H18       1.0  0.7785  0.95221  0.28042  1.0000
  H   H19       1.0  0.25062  0.65799  0.02368  1.0000
  H   H20       1.0  0.9893  0.2626  0.65599  1.0000
  H   H21       1.0  0.7216399999999998  0.45235  0.7195799999999998  1.0000
  H   H22       1.0  0.74942  0.84202  0.52373  1.0000
  H   H23       1.0  0.010829999999999998  0.23739  0.15609  1.0000
  H   H24       1.0  0.27836  0.04769  0.21964  1.0000
  C   C1        1.0  0.21963  0.65285  0.46156  1.0000
  C   C2        1.0  0.41728999999999994  0.27158  0.49678999999999995  1.0000
  C   C3        1.0  0.58583  0.3007800000000001  0.13924  1.0000
  C   C4        1.0  0.60498  0.3663300000000001  0.28161  1.0000
  C   C5        1.0  0.62731  0.29446  0.06017  1.0000
  C   C6        1.0  0.37027999999999994  0.53733  0.43018  1.0000
  C   C7        1.0  0.73567  0.4088  0.1749  1.0000
  C   C8        1.0  0.27371  0.59495  0.40505  1.0000
  C   C9        1.0  0.64155  0.35726  0.1968  1.0000
  C   C10       1.0  0.78034  0.84709  0.96154  1.0000
  C   C11       1.0  0.58263  0.22839  0.9968100000000001  1.0000
  C   C12       1.0  0.41417  0.1992  0.6393  1.0000
  C   C13       1.0  0.3949  0.13381  0.78172  1.0000
  C   C14       1.0  0.37271  0.20557000000000006  0.56022  1.0000
  C   C15       1.0  0.62978  0.96267  0.93018  1.0000
  C   C16       1.0  0.26432  0.09126000000000002  0.67495  1.0000
  C   C17       1.0  0.72643  0.9051100000000001  0.90502  1.0000
  C   C18       1.0  0.35844  0.14277  0.69687  1.0000
  C   C19       1.0  0.72016  0.34725  0.0384  1.0000
  C   C20       1.0  0.91778  0.72836  0.0030399999999999993  1.0000
  C   C21       1.0  0.08517000000000001  0.6990800000000001  0.36066  1.0000
  C   C22       1.0  0.10497  0.63398  0.21837  1.0000
  C   C23       1.0  0.12654  0.70543  0.43971  1.0000
  C   C24       1.0  0.8701200000000001  0.46338  0.07012  1.0000
  C   C25       1.0  0.23570999999999998  0.59126  0.32513  1.0000
  C   C26       1.0  0.77385  0.40532  0.09502  1.0000
  C   C27       1.0  0.14149  0.64292  0.30312  1.0000
  C   C28       1.0  0.27979  0.15292000000000003  0.5384599999999999  1.0000
  C   C29       1.0  0.08221999999999999  0.7716900000000002  0.50305  1.0000
  C   C30       1.0  0.9148699999999999  0.80092  0.86067  1.0000
  C   C31       1.0  0.89535  0.86596  0.71833  1.0000
  C   C32       1.0  0.8734  0.7945  0.93969  1.0000
  C   C33       1.0  0.12985  0.03693  0.57017  1.0000
  C   C34       1.0  0.7644999999999998  0.9087900000000002  0.82508  1.0000
  C   C35       1.0  0.22611  0.09487  0.59509  1.0000
  C   C36       1.0  0.85874  0.85713  0.8031  1.0000
  C   C37       1.0  0.78042  0.34701  0.53847  1.0000
  C   C38       1.0  0.58267  0.7283500000000003  0.50322  1.0000
  C   C39       1.0  0.41429  0.6992100000000002  0.86079  1.0000
  C   C40       1.0  0.39509  0.63371  0.71833  1.0000
  C   C41       1.0  0.37284  0.70556  0.93989  1.0000
  C   C42       1.0  0.62981  0.46255  0.56985  1.0000
  C   C43       1.0  0.26444  0.59134  0.82506  1.0000
  C   C44       1.0  0.7264199999999998  0.40493  0.59503  1.0000
  C   C45       1.0  0.35859  0.6428100000000002  0.80317  1.0000
  C   C46       1.0  0.21960999999999997  0.15291000000000005  0.03845  1.0000
  C   C47       1.0  0.41749  0.7717  0.00321  1.0000
  C   C48       1.0  0.58586  0.80084  0.36077  1.0000
  C   C49       1.0  0.60505  0.86615  0.21830999999999998  1.0000
  C   C50       1.0  0.62728  0.79448  0.43987  1.0000
  C   C51       1.0  0.37024999999999997  0.03745  0.0698  1.0000
  C   C52       1.0  0.73569  0.9087900000000002  0.32513  1.0000
  C   C53       1.0  0.27367  0.09502  0.09497  1.0000
  C   C54       1.0  0.64167  0.85716  0.30315  1.0000
  C   C55       1.0  0.27991  0.65288  0.96162  1.0000
  C   C56       1.0  0.08216000000000001  0.27173  0.9970100000000001  1.0000
  C   C57       1.0  0.91498  0.30091  0.63931  1.0000
  C   C58       1.0  0.8954400000000001  0.3659700000000001  0.78168  1.0000
  C   C59       1.0  0.87355  0.29449  0.56028  1.0000
  C   C60       1.0  0.1299  0.53703  0.92984  1.0000
  C   C61       1.0  0.76452  0.40868  0.67495  1.0000
  C   C62       1.0  0.2262  0.59494  0.90491  1.0000
  C   C63       1.0  0.85881  0.35707  0.69692  1.0000
  C   C64       1.0  0.72018  0.84718  0.46165  1.0000
  C   C65       1.0  0.91785  0.22827000000000006  0.49694000000000005  1.0000
  C   C66       1.0  0.08514  0.19909  0.13935  1.0000
  C   C67       1.0  0.10479999999999999  0.13397  0.28162  1.0000
  C   C68       1.0  0.12648  0.20544  0.06029  1.0000
  C   C69       1.0  0.8701499999999999  0.96319  0.4299  1.0000
  C   C70       1.0  0.23564999999999997  0.09131  0.17492  1.0000
  C   C71       1.0  0.77387  0.9052200000000002  0.40501  1.0000
  C   C72       1.0  0.1414  0.14293  0.19687999999999997  1.0000
  O   O1        1.0  0.52216  0.29367  0.50001  1.0000
  O   O2        1.0  0.35581  0.30539  0.44385  1.0000
  O   O3        1.0  0.65353  0.42528  0.33001  1.0000
  O   O4        1.0  0.42729999999999996  0.49484000000000006  0.37739  1.0000
  O   O5        1.0  0.61126  0.4716800000000001  0.49230000000000007  1.0000
  O   O6        1.0  0.52441  0.31816000000000005  0.31276  1.0000
  O   O7        1.0  0.47786999999999996  0.20601  0.00022  1.0000
  O   O8        1.0  0.64402  0.19462  0.94377  1.0000
  O   O9        1.0  0.34681999999999996  0.07450000000000001  0.83  1.0000
  O   O10       1.0  0.5727  0.00502  0.87732  1.0000
  O   O11       1.0  0.3889  0.02841  0.99228  1.0000
  O   O12       1.0  0.47518  0.18231  0.81294  1.0000
  O   O13       1.0  0.02255  0.70571  0.9998400000000001  1.0000
  O   O14       1.0  0.85606  0.69478  0.055879999999999985  1.0000
  O   O15       1.0  0.1542  0.57514  0.17008  1.0000
  O   O16       1.0  0.92738  0.50534  0.12294000000000001  1.0000
  O   O17       1.0  0.11166  0.52788  0.00745  1.0000
  O   O18       1.0  0.02383  0.68164  0.18727  1.0000
  O   O19       1.0  0.97753  0.7946  0.49981000000000003  1.0000
  O   O20       1.0  0.14401  0.80526  0.55585  1.0000
  O   O21       1.0  0.84605  0.92469  0.67003  1.0000
  O   O22       1.0  0.07265  0.9947300000000001  0.6228999999999998  1.0000
  O   O23       1.0  0.8884499999999999  0.97242  0.50749  1.0000
  O   O24       1.0  0.97656  0.8183700000000003  0.68722  1.0000
  O   O25       1.0  0.4779  0.70598  0.49981000000000003  1.0000
  O   O26       1.0  0.64407  0.69459  0.55625  1.0000
  O   O27       1.0  0.34671  0.57455  0.67002  1.0000
  O   O28       1.0  0.5727  0.50497  0.62264  1.0000
  O   O29       1.0  0.38887  0.52837  0.50772  1.0000
  O   O30       1.0  0.47545999999999994  0.6820500000000002  0.68707  1.0000
  O   O31       1.0  0.52214  0.79438  0.99956  1.0000
  O   O32       1.0  0.35619  0.80539  0.05633  1.0000
  O   O33       1.0  0.65272  0.92572  0.17006  1.0000
  O   O34       1.0  0.42729  0.99506  0.12266  1.0000
  O   O35       1.0  0.61113  0.9716100000000001  0.007710000000000001  1.0000
  O   O36       1.0  0.52496  0.81745  0.18701  1.0000
  O   O37       1.0  0.9774799999999999  0.2947  0.00026  1.0000
  O   O38       1.0  0.14396  0.30525000000000013  0.94419  1.0000
  O   O39       1.0  0.84613  0.42474  0.82997  1.0000
  O   O40       1.0  0.07274  0.49473  0.87713  1.0000
  O   O41       1.0  0.88841  0.4727900000000001  0.9925299999999999  1.0000
  O   O42       1.0  0.97656  0.31831  0.81285  1.0000
  O   O43       1.0  0.022549999999999994  0.20539000000000004  0.50019  1.0000
  O   O44       1.0  0.85607  0.19471  0.44413  1.0000
  O   O45       1.0  0.15412  0.07523  0.32992  1.0000
  O   O46       1.0  0.92739  0.005240000000000001  0.37711999999999996  1.0000
  O   O47       1.0  0.11167999999999999  0.02765  0.49256000000000005  1.0000
  O   O48       1.0  0.02356  0.18152  0.31272  1.0000
