data_image0
_chemical_formula_structural       Ag6H48C54N24
_chemical_formula_sum              "Ag6 H48 C54 N24"
_cell_length_a       13.6672
_cell_length_b       17.371050000000004
_cell_length_c       17.39974
_cell_angle_alpha    113.24151
_cell_angle_beta     105.34678
_cell_angle_gamma    105.48488000000002

_symmetry_space_group_name_H-M    'P 1'
_symmetry_Int_Tables_number       1

loop_
  _symmetry_equiv_pos_as_xyz
  'x,y,z'

loop_
  _atom_site_type_symbol
  _atom_site_label
  _atom_site_symmetry_multiplicity
  _atom_site_fract_x
  _atom_site_fract_y
  _atom_site_fract_z
  _atom_site_occupancy
  Ag  Ag1       1.0  0.2045500000000001  0.54428  0.8634300000000003  1.0000
  Ag  Ag2       1.0  0.34008999999999995  0.1362  0.68062  1.0000
  Ag  Ag3       1.0  0.65822  0.31775  0.45385  1.0000
  Ag  Ag4       1.0  0.7954500000000001  0.4557200000000001  0.13658000000000006  1.0000
  Ag  Ag5       1.0  0.65991  0.8638000000000001  0.31938000000000005  1.0000
  Ag  Ag6       1.0  0.3417700000000002  0.6822500000000002  0.5461500000000001  1.0000
  H   H1        1.0  0.43963  0.58892  0.66337  1.0000
  H   H2        1.0  0.05768000000000008  0.6545100000000001  0.6998300000000002  1.0000
  H   H3        1.0  0.12316999999999999  0.66662  0.8101  1.0000
  H   H4        1.0  0.14404000000000006  0.6228200000000002  0.5920000000000002  1.0000
  H   H5        1.0  0.81251  0.28006  0.60383  1.0000
  H   H6        1.0  0.9034000000000002  0.5142000000000002  0.5780100000000002  1.0000
  H   H7        1.0  0.4164  0.58279  0.79896  1.0000
  H   H8        1.0  0.98135  0.36178  0.75315  1.0000
  H   H9        1.0  0.77676  0.33797  0.9273600000000002  1.0000
  H   H10       1.0  0.3558799999999998  0.2999499999999999  0.95323  1.0000
  H   H11       1.0  0.3102500000000001  0.1895600000000001  0.8550400000000002  1.0000
  H   H12       1.0  0.55169  0.40847  0.030900000000000007  1.0000
  H   H13       1.0  0.20999000000000018  0.3954600000000002  0.6751100000000002  1.0000
  H   H14       1.0  0.32523000000000013  0.4215600000000001  0.9347500000000002  1.0000
  H   H15       1.0  0.6167900000000001  0.2017100000000001  0.7849800000000002  1.0000
  H   H16       1.0  0.22732000000000002  0.24602000000000002  0.60773  1.0000
  H   H17       1.0  0.8505400000000001  0.07511000000000007  0.41210000000000013  1.0000
  H   H18       1.0  0.40123  0.043520000000000045  0.3460000000000001  1.0000
  H   H19       1.0  0.45371  0.14187000000000002  0.33348000000000005  1.0000
  H   H20       1.0  0.52036  0.96807  0.3779300000000001  1.0000
  H   H21       1.0  0.5345999999999999  0.32387  0.71868  1.0000
  H   H22       1.0  0.38862000000000013  0.06275000000000008  0.48645000000000005  1.0000
  H   H23       1.0  0.8322000000000003  0.2159100000000001  0.4162200000000001  1.0000
  H   H24       1.0  0.6186900000000001  0.3911600000000001  0.6359100000000002  1.0000
  H   H25       1.0  0.5603600000000001  0.4110800000000002  0.33664000000000005  1.0000
  H   H26       1.0  0.9423199999999999  0.34549  0.30017  1.0000
  H   H27       1.0  0.8768299999999999  0.33338  0.1899  1.0000
  H   H28       1.0  0.85596  0.37718000000000007  0.408  1.0000
  H   H29       1.0  0.18748000000000004  0.71994  0.39617  1.0000
  H   H30       1.0  0.09659000000000001  0.48580000000000007  0.42199  1.0000
  H   H31       1.0  0.5836  0.4172100000000001  0.20104000000000005  1.0000
  H   H32       1.0  0.018649999999999976  0.63822  0.24685  1.0000
  H   H33       1.0  0.22324  0.66203  0.07264  1.0000
  H   H34       1.0  0.64411  0.70005  0.04677  1.0000
  H   H35       1.0  0.68975  0.8104400000000002  0.14496000000000006  1.0000
  H   H36       1.0  0.44831000000000004  0.59153  0.9691100000000002  1.0000
  H   H37       1.0  0.79001  0.60454  0.32489  1.0000
  H   H38       1.0  0.67476  0.57844  0.06525000000000002  1.0000
  H   H39       1.0  0.3832  0.79829  0.21503  1.0000
  H   H40       1.0  0.77268  0.75398  0.39227  1.0000
  H   H41       1.0  0.14946000000000012  0.9248900000000002  0.5879000000000001  1.0000
  H   H42       1.0  0.5987600000000001  0.95648  0.6540000000000002  1.0000
  H   H43       1.0  0.54628  0.8581300000000001  0.6665200000000002  1.0000
  H   H44       1.0  0.47963999999999996  0.031929999999999965  0.62208  1.0000
  H   H45       1.0  0.4653900000000001  0.6761300000000001  0.28133000000000014  1.0000
  H   H46       1.0  0.6113799999999999  0.93725  0.5135500000000001  1.0000
  H   H47       1.0  0.16779000000000005  0.78409  0.5837800000000001  1.0000
  H   H48       1.0  0.3813  0.60884  0.36409000000000014  1.0000
  C   C1        1.0  0.36981  0.59713  0.67885  1.0000
  C   C2        1.0  0.012720000000000113  0.5275900000000001  0.7016900000000001  1.0000
  C   C3        1.0  0.19670000000000015  0.6176200000000001  0.7175000000000002  1.0000
  C   C4        1.0  0.09598  0.62316  0.73553  1.0000
  C   C5        1.0  0.20708000000000018  0.6168600000000003  0.6400800000000002  1.0000
  C   C6        1.0  0.87029  0.35108  0.63195  1.0000
  C   C7        1.0  0.91985  0.48010000000000014  0.6177200000000003  1.0000
  C   C8        1.0  0.35762  0.5951  0.75435  1.0000
  C   C9        1.0  0.9628  0.3964200000000001  0.71471  1.0000
  C   C10       1.0  0.69094  0.3223200000000001  0.9194000000000002  1.0000
  C   C11       1.0  0.31030000000000013  0.2979800000000001  0.8246900000000003  1.0000
  C   C12       1.0  0.47803  0.2828300000000001  0.89981  1.0000
  C   C13       1.0  0.35873000000000005  0.2643200000000001  0.8864800000000003  1.0000
  C   C14       1.0  0.5664100000000002  0.3605400000000003  0.9769100000000002  1.0000
  C   C15       1.0  0.23908000000000013  0.3675200000000002  0.7180900000000002  1.0000
  C   C16       1.0  0.30220000000000014  0.38190000000000013  0.8610800000000002  1.0000
  C   C17       1.0  0.6026900000000001  0.24659000000000014  0.8414600000000002  1.0000
  C   C18       1.0  0.24769000000000002  0.28465  0.68076  1.0000
  C   C19       1.0  0.7721  0.08186000000000007  0.4036600000000001  1.0000
  C   C20       1.0  0.48414000000000007  0.1728500000000001  0.4721500000000001  1.0000
  C   C21       1.0  0.57766  0.0989700000000001  0.3827300000000001  1.0000
  C   C22       1.0  0.47097  0.11089  0.37703  1.0000
  C   C23       1.0  0.5893  0.022469999999999997  0.38385  1.0000
  C   C24       1.0  0.5202900000000001  0.2805800000000001  0.64787  1.0000
  C   C25       1.0  0.43964  0.13666  0.51996  1.0000
  C   C26       1.0  0.76136  0.15902000000000005  0.4048500000000001  1.0000
  C   C27       1.0  0.56605  0.3177600000000001  0.6020200000000002  1.0000
  C   C28       1.0  0.63019  0.40287000000000006  0.3211500000000001  1.0000
  C   C29       1.0  0.9872799999999999  0.4724100000000001  0.29832000000000003  1.0000
  C   C30       1.0  0.80329  0.38238  0.2825100000000001  1.0000
  C   C31       1.0  0.9040200000000002  0.37684000000000006  0.26448000000000005  1.0000
  C   C32       1.0  0.7929199999999998  0.38314000000000015  0.35992000000000013  1.0000
  C   C33       1.0  0.1297  0.64892  0.36805  1.0000
  C   C34       1.0  0.08015000000000008  0.51989  0.38228000000000006  1.0000
  C   C35       1.0  0.64238  0.4048999999999999  0.24566  1.0000
  C   C36       1.0  0.037190000000000015  0.60357  0.28529  1.0000
  C   C37       1.0  0.30906  0.67768  0.0806  1.0000
  C   C38       1.0  0.6897  0.70202  0.17532  1.0000
  C   C39       1.0  0.5219600000000001  0.7171700000000002  0.10019  1.0000
  C   C40       1.0  0.6412600000000002  0.73568  0.11353000000000003  1.0000
  C   C41       1.0  0.43359  0.63946  0.023090000000000006  1.0000
  C   C42       1.0  0.76092  0.63248  0.28192  1.0000
  C   C43       1.0  0.6978  0.6181  0.13892  1.0000
  C   C44       1.0  0.39731  0.75341  0.15854  1.0000
  C   C45       1.0  0.7522999999999999  0.71535  0.31925  1.0000
  C   C46       1.0  0.22790000000000007  0.9181400000000002  0.5963400000000002  1.0000
  C   C47       1.0  0.5158500000000001  0.8271500000000004  0.5278500000000003  1.0000
  C   C48       1.0  0.42233999999999994  0.9010299999999999  0.61727  1.0000
  C   C49       1.0  0.5290300000000001  0.8891000000000001  0.6229700000000002  1.0000
  C   C50       1.0  0.41070000000000023  0.9775300000000002  0.6161500000000002  1.0000
  C   C51       1.0  0.47971  0.71942  0.35213  1.0000
  C   C52       1.0  0.5603600000000001  0.8633400000000001  0.48004000000000013  1.0000
  C   C53       1.0  0.23864000000000002  0.84098  0.5951500000000001  1.0000
  C   C54       1.0  0.43394999999999995  0.68224  0.39798  1.0000
  N   N1        1.0  0.035250000000000115  0.48655000000000004  0.7532300000000002  1.0000
  N   N2        1.0  0.2730600000000002  0.6079800000000002  0.7774500000000002  1.0000
  N   N3        1.0  0.29533  0.60989  0.6201  1.0000
  N   N4        1.0  0.8457  0.39217  0.58133  1.0000
  N   N5        1.0  0.2812100000000001  0.24625000000000016  0.7322300000000003  1.0000
  N   N6        1.0  0.4943500000000001  0.22314000000000012  0.8304100000000001  1.0000
  N   N7        1.0  0.6751700000000003  0.3810700000000002  0.9904800000000002  1.0000
  N   N8        1.0  0.2654200000000001  0.4183800000000001  0.8097100000000003  1.0000
  N   N9        1.0  0.54768  0.26564  0.51236  1.0000
  N   N10       1.0  0.6635100000000002  0.16884000000000005  0.3920000000000001  1.0000
  N   N11       1.0  0.6850500000000002  0.010070000000000055  0.3913700000000001  1.0000
  N   N12       1.0  0.45477999999999996  0.18861000000000006  0.60768  1.0000
  N   N13       1.0  0.9647500000000002  0.51345  0.24677000000000004  1.0000
  N   N14       1.0  0.72694  0.39202000000000004  0.22255000000000005  1.0000
  N   N15       1.0  0.70466  0.39011  0.37991  1.0000
  N   N16       1.0  0.15430000000000008  0.6078300000000001  0.4186800000000001  1.0000
  N   N17       1.0  0.71879  0.7537500000000001  0.26778000000000013  1.0000
  N   N18       1.0  0.5056500000000003  0.7768600000000002  0.1696  1.0000
  N   N19       1.0  0.32482000000000016  0.6189300000000002  0.009530000000000002  1.0000
  N   N20       1.0  0.73457  0.58162  0.19029  1.0000
  N   N21       1.0  0.45232  0.7343600000000001  0.48764000000000013  1.0000
  N   N22       1.0  0.33647999999999995  0.83116  0.6080000000000001  1.0000
  N   N23       1.0  0.3149500000000002  0.9899300000000002  0.6086300000000002  1.0000
  N   N24       1.0  0.5452100000000001  0.8113900000000003  0.3923200000000001  1.0000
