data_image0
_chemical_formula_structural       Ag4H56C56S8N8
_chemical_formula_sum              "Ag4 H56 C56 S8 N8"
_cell_length_a       13.58108
_cell_length_b       13.53166
_cell_length_c       13.445270000000002
_cell_angle_alpha    110.19829000000001
_cell_angle_beta     110.80166
_cell_angle_gamma    107.52540999999998

_symmetry_space_group_name_H-M    'P 1'
_symmetry_Int_Tables_number       1

loop_
  _symmetry_equiv_pos_as_xyz
  'x,y,z'

loop_
  _atom_site_type_symbol
  _atom_site_label
  _atom_site_symmetry_multiplicity
  _atom_site_fract_x
  _atom_site_fract_y
  _atom_site_fract_z
  _atom_site_occupancy
  Ag  Ag1       1.0  0.37032  0.32513  0.8070100000000001  1.0000
  Ag  Ag2       1.0  0.63025  0.4379100000000001  0.95524  1.0000
  Ag  Ag3       1.0  0.5165100000000001  0.82281  0.45603000000000005  1.0000
  Ag  Ag4       1.0  0.48319000000000006  0.93827  0.30619  1.0000
  H   H1        1.0  0.004939999999999986  0.02828999999999999  0.67017  1.0000
  H   H2        1.0  0.09082000000000001  0.12602  0.83241  1.0000
  H   H3        1.0  0.9832800000000002  0.27017999999999986  0.90341  1.0000
  H   H4        1.0  0.60119  0.03658999999999999  0.71531  1.0000
  H   H5        1.0  0.8004700000000001  0.9204600000000001  0.57921  1.0000
  H   H6        1.0  0.86205  0.34209  0.97448  1.0000
  H   H7        1.0  0.7365  0.22897  0.95482  1.0000
  H   H8        1.0  0.7014  0.41447  0.72775  1.0000
  H   H9        1.0  0.84182  0.44623  0.84204  1.0000
  H   H10       1.0  0.9588100000000003  0.37777  0.76  1.0000
  H   H11       1.0  0.7657199999999998  0.04805999999999998  0.41063999999999995  1.0000
  H   H12       1.0  0.57131  0.17435000000000006  0.54712  1.0000
  H   H13       1.0  0.04554  0.29758  0.59177  1.0000
  H   H14       1.0  0.97236  0.1384  0.51548  1.0000
  H   H15       1.0  0.9935799999999999  0.66156  0.01834  1.0000
  H   H16       1.0  0.90885  0.73766  0.0301  1.0000
  H   H17       1.0  0.017669999999999988  0.9176  0.28303  1.0000
  H   H18       1.0  0.39986  0.11221999999999999  0.43410999999999994  1.0000
  H   H19       1.0  0.1986  0.77598  0.11577  1.0000
  H   H20       1.0  0.13953000000000002  0.11019  0.47723999999999994  1.0000
  H   H21       1.0  0.26489  0.2162  0.48937  1.0000
  H   H22       1.0  0.30302  0.029279999999999962  0.71512  1.0000
  H   H23       1.0  0.16156000000000004  0.0008500000000000056  0.60597  1.0000
  H   H24       1.0  0.04322000000000003  0.80173  0.41872  1.0000
  H   H25       1.0  0.23353000000000004  0.6450000000000001  0.28134  1.0000
  H   H26       1.0  0.43047  0.9777  0.6038  1.0000
  H   H27       1.0  0.9546700000000001  0.54689  0.25151  1.0000
  H   H28       1.0  0.026659999999999986  0.54257  0.16416  1.0000
  H   H29       1.0  0.3588  0.52802  0.51813  1.0000
  H   H30       1.0  0.29413  0.62435  0.52914  1.0000
  H   H31       1.0  0.36806  0.76828  0.78346  1.0000
  H   H32       1.0  0.31866  0.5333  0.93187  1.0000
  H   H33       1.0  0.33895  0.41836999999999996  0.61414  1.0000
  H   H34       1.0  0.36759000000000003  0.8390100000000001  0.97722  1.0000
  H   H35       1.0  0.27331  0.72557  0.9888  1.0000
  H   H36       1.0  0.68322  0.90983  0.21404  1.0000
  H   H37       1.0  0.6037499999999999  0.9441399999999998  0.10593  1.0000
  H   H38       1.0  0.6151400000000001  0.87614  0.91743  1.0000
  H   H39       1.0  0.6364800000000002  0.5491600000000003  0.7803600000000002  1.0000
  H   H40       1.0  0.62469  0.67202  0.10273999999999998  1.0000
  H   H41       1.0  0.7038  0.7989199999999999  0.7503  1.0000
  H   H42       1.0  0.6210300000000002  0.63971  0.66296  1.0000
  H   H43       1.0  0.64023  0.16325  0.17119  1.0000
  H   H44       1.0  0.70487  0.23905  0.3336  1.0000
  H   H45       1.0  0.63102  0.41778000000000004  0.40381000000000006  1.0000
  H   H46       1.0  0.68177  0.61489  0.21749  1.0000
  H   H47       1.0  0.65902  0.2778099999999999  0.08056  1.0000
  H   H48       1.0  0.6322000000000001  0.61172  0.47553000000000006  1.0000
  H   H49       1.0  0.72581  0.71735  0.45565  1.0000
  H   H50       1.0  0.31575  0.5275  0.22869000000000003  1.0000
  H   H51       1.0  0.39735  0.5010400000000003  0.3435  1.0000
  H   H52       1.0  0.38409  0.3015  0.26252  1.0000
  H   H53       1.0  0.3620900000000001  0.1438900000000001  0.9114400000000001  1.0000
  H   H54       1.0  0.37454000000000004  0.4763  0.047639999999999995  1.0000
  H   H55       1.0  0.29517  0.046180000000000006  0.09477  1.0000
  H   H56       1.0  0.37759  0.04258  0.01804  1.0000
  C   C1        1.0  0.02174000000000003  0.10975000000000008  0.74551  1.0000
  C   C2        1.0  0.90725  0.09436000000000007  0.7446500000000001  1.0000
  C   C3        1.0  0.9021800000000003  0.1851500000000001  0.8318200000000001  1.0000
  C   C4        1.0  0.79062  0.16401  0.82201  1.0000
  C   C5        1.0  0.68886  0.05511999999999995  0.72531  1.0000
  C   C6        1.0  0.80023  0.99016  0.65047  1.0000
  C   C7        1.0  0.77626  0.25917  0.9054099999999999  1.0000
  C   C8        1.0  0.7535  0.37339  0.76244  1.0000
  C   C9        1.0  0.7634300000000002  0.2888  0.66384  1.0000
  C   C10       1.0  0.87489  0.30292  0.67777  1.0000
  C   C11       1.0  0.87695  0.21496  0.58456  1.0000
  C   C12       1.0  0.76756  0.11869000000000002  0.48303  1.0000
  C   C13       1.0  0.6586500000000001  0.18901000000000004  0.55819  1.0000
  C   C14       1.0  0.99206  0.21948  0.59371  1.0000
  C   C15       1.0  0.97777  0.72058  0.08353  1.0000
  C   C16       1.0  0.09279  0.83463  0.18305  1.0000
  C   C17       1.0  0.09853000000000002  0.9272  0.27929  1.0000
  C   C18       1.0  0.21039  0.02927  0.37057  1.0000
  C   C19       1.0  0.31192  0.03443  0.36402  1.0000
  C   C20       1.0  0.19948  0.84757  0.18623  1.0000
  C   C21       1.0  0.22518999999999997  0.12751  0.48040999999999995  1.0000
  C   C22       1.0  0.24952  0.010330000000000002  0.62087  1.0000
  C   C23       1.0  0.23862  0.90166  0.52571  1.0000
  C   C24       1.0  0.12670999999999996  0.80361  0.4278  1.0000
  C   C25       1.0  0.12361000000000003  0.7079500000000001  0.33725  1.0000
  C   C26       1.0  0.23248  0.71594  0.35045  1.0000
  C   C27       1.0  0.34284000000000003  0.9009800000000001  0.53073  1.0000
  C   C28       1.0  0.00789000000000001  0.60148  0.22603000000000004  1.0000
  C   C29       1.0  0.36421  0.6086900000000002  0.58298  1.0000
  C   C30       1.0  0.3489  0.59227  0.68228  1.0000
  C   C31       1.0  0.35326  0.68291  0.77902  1.0000
  C   C32       1.0  0.34105  0.66113  0.86972  1.0000
  C   C33       1.0  0.32776  0.55207  0.8623  1.0000
  C   C34       1.0  0.33806  0.48796  0.6849  1.0000
  C   C35       1.0  0.3528500000000001  0.7559100000000001  0.9798800000000001  1.0000
  C   C36       1.0  0.6086  0.87017  0.11996  1.0000
  C   C37       1.0  0.62246  0.78667  0.02459  1.0000
  C   C38       1.0  0.62276  0.80162  0.92666  1.0000
  C   C39       1.0  0.62852  0.7147499999999999  0.83627  1.0000
  C   C40       1.0  0.63436  0.61892  0.84962  1.0000
  C   C41       1.0  0.62868  0.68734  0.02972  1.0000
  C   C42       1.0  0.62413  0.72029  0.7251  1.0000
  C   C43       1.0  0.63467  0.22198999999999997  0.2469  1.0000
  C   C44       1.0  0.64967  0.33598999999999996  0.24582  1.0000
  C   C45       1.0  0.64577  0.42806  0.33278  1.0000
  C   C46       1.0  0.6582800000000001  0.53053  0.32318  1.0000
  C   C47       1.0  0.6719100000000001  0.5363900000000001  0.22696000000000002  1.0000
  C   C48       1.0  0.66068  0.3494  0.15183  1.0000
  C   C49       1.0  0.6464799999999999  0.62844  0.40625999999999995  1.0000
  C   C50       1.0  0.39091  0.50956  0.26347  1.0000
  C   C51       1.0  0.37677  0.40076  0.16521  1.0000
  C   C52       1.0  0.37637999999999994  0.30305999999999994  0.17977  1.0000
  C   C53       1.0  0.37021000000000004  0.20732  0.08627  1.0000
  C   C54       1.0  0.36454  0.21493000000000007  0.98403  1.0000
  C   C55       1.0  0.3704200000000001  0.39966  0.05886  1.0000
  C   C56       1.0  0.3747500000000001  0.10127000000000001  0.09619000000000001  1.0000
  S   S1        1.0  0.10107999999999999  0.24175  0.73902  1.0000
  S   S2        1.0  0.66849  0.29678  0.81851  1.0000
  S   S3        1.0  0.8991400000000002  0.6364900000000001  0.13813  1.0000
  S   S4        1.0  0.33343  0.15075000000000005  0.62785  1.0000
  S   S5        1.0  0.5020599999999997  0.74225  0.63826  1.0000
  S   S6        1.0  0.47564  0.79299  0.12684  1.0000
  S   S7        1.0  0.4971  0.13768  0.24167  1.0000
  S   S8        1.0  0.5231099999999997  0.6501  0.31879  1.0000
  N   N1        1.0  0.6910100000000001  0.96782  0.63863  1.0000
  N   N2        1.0  0.65849  0.10444000000000005  0.46669  1.0000
  N   N3        1.0  0.30907  0.94522  0.27416  1.0000
  N   N4        1.0  0.342  0.80913  0.44597  1.0000
  N   N5        1.0  0.32724999999999993  0.46522  0.77245  1.0000
  N   N6        1.0  0.6364600000000001  0.60403  0.94517  1.0000
  N   N7        1.0  0.6721000000000001  0.44741000000000003  0.14002  1.0000
  N   N8        1.0  0.36256  0.30784  0.96706  1.0000
