data_image0
_chemical_formula_structural       Fe2H48C54S4N12O8
_chemical_formula_sum              "Fe2 H48 C54 S4 N12 O8"
_cell_length_a       9.18805
_cell_length_b       12.44287
_cell_length_c       24.14941
_cell_angle_alpha    90.0
_cell_angle_beta     90.0
_cell_angle_gamma    111.66261

_symmetry_space_group_name_H-M    'P 1'
_symmetry_Int_Tables_number       1

loop_
  _symmetry_equiv_pos_as_xyz
  'x,y,z'

loop_
  _atom_site_type_symbol
  _atom_site_label
  _atom_site_symmetry_multiplicity
  _atom_site_fract_x
  _atom_site_fract_y
  _atom_site_fract_z
  _atom_site_occupancy
  Fe  Fe1       1.0  0.5  0.4999999999999999  0.5  1.0000
  Fe  Fe2       1.0  0.9999899999999999  0.4999999999999999  0.0  1.0000
  H   H1        1.0  0.8444799999999999  0.5885899999999998  0.54527  1.0000
  H   H2        1.0  0.016139999999999894  0.7300899999999998  0.61142  1.0000
  H   H3        1.0  0.6082999999999998  0.7998299999999999  0.6642  1.0000
  H   H4        1.0  0.45647  0.65945  0.59328  1.0000
  H   H5        1.0  0.8236100000000001  0.97705  0.68578  1.0000
  H   H6        1.0  0.76757  0.86849  0.73926  1.0000
  H   H7        1.0  0.15552  0.41141  0.54527  1.0000
  H   H8        1.0  0.98386  0.26991999999999994  0.61142  1.0000
  H   H9        1.0  0.39169999999999994  0.20016999999999996  0.6642  1.0000
  H   H10       1.0  0.54353  0.34056  0.59328  1.0000
  H   H11       1.0  0.17639000000000002  0.02295  0.68578  1.0000
  H   H12       1.0  0.23243000000000003  0.13152  0.73926  1.0000
  H   H13       1.0  0.7433599999999999  0.5897099999999998  0.95505  1.0000
  H   H14       1.0  0.71308  0.7307599999999999  0.88878  1.0000
  H   H15       1.0  0.18999999999999997  0.7994199999999999  0.83561  1.0000
  H   H16       1.0  0.20147  0.65921  0.9067200000000002  1.0000
  H   H17       1.0  0.1538499999999999  0.9755799999999998  0.8133600000000001  1.0000
  H   H18       1.0  0.09806999999999991  0.8668699999999998  0.76004  1.0000
  H   H19       1.0  0.25664  0.41029999999999994  0.95505  1.0000
  H   H20       1.0  0.28691  0.26924999999999993  0.88878  1.0000
  H   H21       1.0  0.81  0.20057999999999998  0.83561  1.0000
  H   H22       1.0  0.79853  0.34079  0.9067200000000002  1.0000
  H   H23       1.0  0.84615  0.024419999999999997  0.8133500000000001  1.0000
  H   H24       1.0  0.9019199999999999  0.13313  0.76004  1.0000
  H   H25       1.0  0.15552  0.41141  0.45473000000000013  1.0000
  H   H26       1.0  0.98386  0.26991999999999994  0.38858  1.0000
  H   H27       1.0  0.39169999999999994  0.20016999999999996  0.3358  1.0000
  H   H28       1.0  0.54353  0.34056  0.40672  1.0000
  H   H29       1.0  0.17639000000000002  0.02295  0.31421  1.0000
  H   H30       1.0  0.23242  0.13152  0.26074  1.0000
  H   H31       1.0  0.8444799999999999  0.5885899999999998  0.45473000000000013  1.0000
  H   H32       1.0  0.016139999999999894  0.7300899999999998  0.38858  1.0000
  H   H33       1.0  0.6082999999999998  0.7998299999999999  0.3358  1.0000
  H   H34       1.0  0.45647  0.65945  0.40672  1.0000
  H   H35       1.0  0.8236100000000001  0.97705  0.31421  1.0000
  H   H36       1.0  0.76757  0.86849  0.26074  1.0000
  H   H37       1.0  0.25664  0.41029999999999994  0.044950000000000004  1.0000
  H   H38       1.0  0.28691  0.26924999999999993  0.11122000000000001  1.0000
  H   H39       1.0  0.81  0.20057999999999998  0.16439  1.0000
  H   H40       1.0  0.79852  0.34079  0.09328  1.0000
  H   H41       1.0  0.84615  0.024429999999999993  0.18664000000000003  1.0000
  H   H42       1.0  0.9019199999999999  0.13313  0.23995  1.0000
  H   H43       1.0  0.74335  0.5897099999999998  0.044950000000000004  1.0000
  H   H44       1.0  0.71308  0.7307599999999999  0.11122000000000001  1.0000
  H   H45       1.0  0.18999999999999997  0.7994199999999999  0.16439  1.0000
  H   H46       1.0  0.20147  0.65921  0.09328  1.0000
  H   H47       1.0  0.15383999999999992  0.9755799999999998  0.18664000000000003  1.0000
  H   H48       1.0  0.09806999999999991  0.8668699999999998  0.23995  1.0000
  C   C1        1.0  0.79627  0.63735  0.57207  1.0000
  C   C2        1.0  0.8920600000000001  0.71564  0.60976  1.0000
  C   C3        1.0  0.82636  0.7765899999999998  0.64405  1.0000
  C   C4        1.0  0.6664  0.75584  0.63874  1.0000
  C   C5        1.0  0.58031  0.67624  0.59919  1.0000
  C   C6        1.0  0.8644499999999999  0.92359  0.71324  1.0000
  C   C7        1.0  0.20372999999999997  0.36265999999999987  0.57207  1.0000
  C   C8        1.0  0.10793  0.28436  0.60976  1.0000
  C   C9        1.0  0.17363  0.22340999999999994  0.64405  1.0000
  C   C10       1.0  0.3336  0.24416  0.63874  1.0000
  C   C11       1.0  0.41969  0.32377  0.59919  1.0000
  C   C12       1.0  0.13555  0.07641  0.71324  1.0000
  C   C13       1.0  0.8402899999999999  0.63799  0.92813  1.0000
  C   C14       1.0  0.82265  0.71616  0.89037  1.0000
  C   C15       1.0  0.94907  0.77668  0.8559  1.0000
  C   C16       1.0  0.08808  0.75569  0.8611800000000002  1.0000
  C   C17       1.0  0.09463999999999997  0.67624  0.9008  1.0000
  C   C18       1.0  0.058079999999999875  0.9226699999999998  0.78627  1.0000
  C   C19       1.0  0.15970999999999994  0.3620099999999999  0.92813  1.0000
  C   C20       1.0  0.17735  0.28384  0.89037  1.0000
  C   C21       1.0  0.05092999999999999  0.22332  0.8559  1.0000
  C   C22       1.0  0.9119100000000001  0.24431  0.8611800000000002  1.0000
  C   C23       1.0  0.90536  0.32377  0.9008  1.0000
  C   C24       1.0  0.9419199999999999  0.07733  0.78627  1.0000
  C   C25       1.0  0.20372999999999997  0.36265999999999987  0.42792  1.0000
  C   C26       1.0  0.10793  0.28436  0.39024  1.0000
  C   C27       1.0  0.17363  0.22340999999999994  0.35595  1.0000
  C   C28       1.0  0.3336  0.24416  0.36125  1.0000
  C   C29       1.0  0.41969  0.32377  0.4008  1.0000
  C   C30       1.0  0.13555  0.07641  0.28675  1.0000
  C   C31       1.0  0.79627  0.63735  0.42792  1.0000
  C   C32       1.0  0.8920600000000001  0.71564  0.39024  1.0000
  C   C33       1.0  0.82636  0.7765899999999998  0.35595  1.0000
  C   C34       1.0  0.6663999999999999  0.7558499999999998  0.36125  1.0000
  C   C35       1.0  0.58031  0.67624  0.4008  1.0000
  C   C36       1.0  0.8644499999999998  0.9235999999999998  0.28675  1.0000
  C   C37       1.0  0.15970999999999994  0.3620099999999999  0.07186  1.0000
  C   C38       1.0  0.17735  0.28384  0.10963  1.0000
  C   C39       1.0  0.050930000000000024  0.22333  0.1441  1.0000
  C   C40       1.0  0.9119100000000001  0.24432  0.13882  1.0000
  C   C41       1.0  0.90536  0.32377  0.09919  1.0000
  C   C42       1.0  0.9419199999999999  0.07733  0.21372000000000002  1.0000
  C   C43       1.0  0.8402799999999999  0.63799  0.07186  1.0000
  C   C44       1.0  0.82265  0.71616  0.10963  1.0000
  C   C45       1.0  0.94906  0.77668  0.1441  1.0000
  C   C46       1.0  0.08808  0.75569  0.13882  1.0000
  C   C47       1.0  0.09462999999999999  0.67624  0.09919  1.0000
  C   C48       1.0  0.058079999999999875  0.9226699999999998  0.21372000000000002  1.0000
  C   C49       1.0  0.725  0.35221  0.5  1.0000
  C   C50       1.0  0.275  0.6478  0.5  1.0000
  C   C51       1.0  0.6269899999999999  0.3524799999999999  0.0  1.0000
  C   C52       1.0  0.373  0.64752  0.0  1.0000
  C   C53       1.0  0.0  0.0  0.74985  1.0000
  C   C54       1.0  0.0  0.0  0.25015  1.0000
  S   S1        1.0  0.82116  0.26653  0.5  1.0000
  S   S2        1.0  0.17883999999999992  0.7334699999999997  0.5  1.0000
  S   S3        1.0  0.4453  0.26659999999999995  0.0  1.0000
  S   S4        1.0  0.55469  0.7334  0.0  1.0000
  N   N1        1.0  0.642  0.61726  0.56577  1.0000
  N   N2        1.0  0.358  0.38274  0.56577  1.0000
  N   N3        1.0  0.97421  0.61747  0.9343600000000001  1.0000
  N   N4        1.0  0.025790000000000007  0.38253  0.9343600000000001  1.0000
  N   N5        1.0  0.358  0.38274  0.43423  1.0000
  N   N6        1.0  0.642  0.61726  0.43423  1.0000
  N   N7        1.0  0.025779999999999997  0.38253  0.06564  1.0000
  N   N8        1.0  0.97421  0.61747  0.06564  1.0000
  N   N9        1.0  0.65367  0.41565  0.5  1.0000
  N   N10       1.0  0.34633  0.58436  0.5  1.0000
  N   N11       1.0  0.7617299999999999  0.4160099999999999  0.0  1.0000
  N   N12       1.0  0.23826  0.58399  0.0  1.0000
  O   O1        1.0  0.9256699999999999  0.8529  0.68047  1.0000
  O   O2        1.0  0.07433  0.1471  0.68047  1.0000
  O   O3        1.0  0.9263599999999999  0.8528799999999999  0.81937  1.0000
  O   O4        1.0  0.07364  0.14712  0.81937  1.0000
  O   O5        1.0  0.07433  0.1471  0.31953  1.0000
  O   O6        1.0  0.9256699999999999  0.8529  0.31953  1.0000
  O   O7        1.0  0.07364  0.14712  0.18063  1.0000
  O   O8        1.0  0.9263599999999999  0.8528799999999999  0.18063  1.0000
