data_image0
_chemical_formula_structural       Cd4H48C64N8O16
_chemical_formula_sum              "Cd4 H48 C64 N8 O16"
_cell_length_a       12.32219
_cell_length_b       13.28259
_cell_length_c       14.09816
_cell_angle_alpha    90.02664999999999
_cell_angle_beta     90.0
_cell_angle_gamma    90.0

_symmetry_space_group_name_H-M    'P 1'
_symmetry_Int_Tables_number       1

loop_
  _symmetry_equiv_pos_as_xyz
  'x,y,z'

loop_
  _atom_site_type_symbol
  _atom_site_label
  _atom_site_symmetry_multiplicity
  _atom_site_fract_x
  _atom_site_fract_y
  _atom_site_fract_z
  _atom_site_occupancy
  Cd  Cd1       1.0  0.27918  0.25  0.0  1.0000
  Cd  Cd2       1.0  0.77957  0.7500000000000002  0.4999999999999999  1.0000
  Cd  Cd3       1.0  0.22043  0.25  0.4999999999999999  1.0000
  Cd  Cd4       1.0  0.72082  0.7500000000000002  0.0  1.0000
  H   H1        1.0  0.028440000000000007  0.51938  0.08224999999999998  1.0000
  H   H2        1.0  0.15905000000000002  0.44627  0.25631  1.0000
  H   H3        1.0  0.9344200000000003  0.6271000000000002  0.16656  1.0000
  H   H4        1.0  0.8324600000000001  0.7351200000000001  0.27977999999999986  1.0000
  H   H5        1.0  0.00206  0.62322  0.5105799999999999  1.0000
  H   H6        1.0  0.11687000000000003  0.51384  0.40638999999999986  1.0000
  H   H7        1.0  0.028440000000000007  0.98061  0.9177499999999997  1.0000
  H   H8        1.0  0.15905000000000002  0.05373  0.7436899999999997  1.0000
  H   H9        1.0  0.9344200000000003  0.8729000000000002  0.8334499999999998  1.0000
  H   H10       1.0  0.8324600000000001  0.76487  0.7202199999999997  1.0000
  H   H11       1.0  0.00206  0.8767800000000001  0.48941999999999997  1.0000
  H   H12       1.0  0.11687000000000003  0.98616  0.5936099999999997  1.0000
  H   H13       1.0  0.52908  0.01805  0.41803  1.0000
  H   H14       1.0  0.65783  0.94572  0.24285999999999994  1.0000
  H   H15       1.0  0.4342900000000001  0.12746  0.3338399999999999  1.0000
  H   H16       1.0  0.3321100000000001  0.23533  0.22083999999999995  1.0000
  H   H17       1.0  0.50105  0.12295  0.9896  1.0000
  H   H18       1.0  0.6166300000000001  0.014230000000000001  0.09384999999999998  1.0000
  H   H19       1.0  0.52908  0.48194  0.5819699999999998  1.0000
  H   H20       1.0  0.65783  0.55428  0.7571399999999999  1.0000
  H   H21       1.0  0.4342900000000001  0.3725400000000001  0.66617  1.0000
  H   H22       1.0  0.3321100000000001  0.26467  0.77916  1.0000
  H   H23       1.0  0.50105  0.3770500000000001  0.0104  1.0000
  H   H24       1.0  0.6166300000000001  0.48577  0.9061599999999999  1.0000
  H   H25       1.0  0.4709200000000001  0.98194  0.5819699999999998  1.0000
  H   H26       1.0  0.34216000000000013  0.05428  0.7571399999999999  1.0000
  H   H27       1.0  0.56571  0.87254  0.66617  1.0000
  H   H28       1.0  0.6678900000000001  0.76467  0.77916  1.0000
  H   H29       1.0  0.4989500000000001  0.87705  0.0104  1.0000
  H   H30       1.0  0.38337  0.9857700000000001  0.9061599999999999  1.0000
  H   H31       1.0  0.4709200000000001  0.51805  0.41803  1.0000
  H   H32       1.0  0.34216000000000013  0.44572  0.24285999999999994  1.0000
  H   H33       1.0  0.56571  0.62746  0.3338399999999999  1.0000
  H   H34       1.0  0.6678900000000001  0.73532  0.22083999999999995  1.0000
  H   H35       1.0  0.4989500000000001  0.62295  0.9896  1.0000
  H   H36       1.0  0.38337  0.51423  0.09384999999999998  1.0000
  H   H37       1.0  0.9715600000000002  0.48062  0.9177499999999997  1.0000
  H   H38       1.0  0.8409500000000002  0.55373  0.7436899999999997  1.0000
  H   H39       1.0  0.06558  0.3729  0.8334499999999998  1.0000
  H   H40       1.0  0.16754000000000005  0.26487  0.7202199999999997  1.0000
  H   H41       1.0  0.99794  0.37678  0.48941999999999997  1.0000
  H   H42       1.0  0.8831300000000002  0.48616000000000004  0.5936099999999997  1.0000
  H   H43       1.0  0.9715600000000002  0.01938  0.08224999999999998  1.0000
  H   H44       1.0  0.8409500000000002  0.9462600000000002  0.25631  1.0000
  H   H45       1.0  0.06558  0.1271  0.16656  1.0000
  H   H46       1.0  0.16754000000000005  0.23512000000000005  0.27977999999999986  1.0000
  H   H47       1.0  0.99794  0.12322  0.5105799999999999  1.0000
  H   H48       1.0  0.8831300000000002  0.013840000000000002  0.40638999999999986  1.0000
  C   C1        1.0  0.15598000000000004  0.40349000000000007  0.07303  1.0000
  C   C2        1.0  0.08818000000000002  0.4783200000000001  0.12417999999999997  1.0000
  C   C3        1.0  0.09863  0.49129  0.21867999999999996  1.0000
  C   C4        1.0  0.03440000000000001  0.55927  0.2774699999999999  1.0000
  C   C5        1.0  0.9531800000000002  0.62379  0.24201999999999996  1.0000
  C   C6        1.0  0.8946200000000002  0.6832500000000002  0.30474  1.0000
  C   C7        1.0  0.9901  0.6216900000000002  0.4340299999999999  1.0000
  C   C8        1.0  0.05339  0.56093  0.3760099999999999  1.0000
  C   C9        1.0  0.15598000000000004  0.09651  0.9269699999999997  1.0000
  C   C10       1.0  0.08818000000000002  0.02168  0.87582  1.0000
  C   C11       1.0  0.09863  0.0087  0.7813199999999998  1.0000
  C   C12       1.0  0.03440000000000001  0.94073  0.7225299999999999  1.0000
  C   C13       1.0  0.9531800000000002  0.8762  0.75798  1.0000
  C   C14       1.0  0.8946200000000002  0.81674  0.6952599999999998  1.0000
  C   C15       1.0  0.9901  0.8783  0.56597  1.0000
  C   C16       1.0  0.05339  0.93907  0.6239899999999998  1.0000
  C   C17       1.0  0.6562900000000003  0.9014300000000002  0.42479  1.0000
  C   C18       1.0  0.5880300000000002  0.9770400000000002  0.37523  1.0000
  C   C19       1.0  0.59793  0.9909600000000001  0.28079999999999994  1.0000
  C   C20       1.0  0.53399  0.05958  0.22263999999999995  1.0000
  C   C21       1.0  0.4529400000000001  0.12413  0.25832999999999995  1.0000
  C   C22       1.0  0.39418  0.18346000000000004  0.19564999999999994  1.0000
  C   C23       1.0  0.48941000000000007  0.12174  0.06617999999999999  1.0000
  C   C24       1.0  0.55302  0.06127000000000001  0.12411999999999997  1.0000
  C   C25       1.0  0.6562900000000003  0.59856  0.5752099999999998  1.0000
  C   C26       1.0  0.5880300000000002  0.52296  0.62477  1.0000
  C   C27       1.0  0.59793  0.50903  0.7192  1.0000
  C   C28       1.0  0.53399  0.44042000000000003  0.7773599999999999  1.0000
  C   C29       1.0  0.4529400000000001  0.37587000000000004  0.7416699999999998  1.0000
  C   C30       1.0  0.39418  0.3165400000000001  0.8043499999999998  1.0000
  C   C31       1.0  0.48941000000000007  0.37826  0.9338199999999999  1.0000
  C   C32       1.0  0.55302  0.43872  0.8758799999999999  1.0000
  C   C33       1.0  0.34371  0.09857000000000003  0.5752099999999998  1.0000
  C   C34       1.0  0.41197  0.02296  0.62477  1.0000
  C   C35       1.0  0.40207  0.00903  0.7192  1.0000
  C   C36       1.0  0.4660100000000001  0.9404100000000001  0.7773599999999999  1.0000
  C   C37       1.0  0.54706  0.8758700000000001  0.7416699999999998  1.0000
  C   C38       1.0  0.60582  0.81654  0.8043499999999998  1.0000
  C   C39       1.0  0.51059  0.87826  0.9338199999999999  1.0000
  C   C40       1.0  0.4469800000000001  0.93872  0.8758799999999999  1.0000
  C   C41       1.0  0.34371  0.40143  0.42479  1.0000
  C   C42       1.0  0.41197  0.47704000000000013  0.37523  1.0000
  C   C43       1.0  0.40207  0.49097  0.28079999999999994  1.0000
  C   C44       1.0  0.4660100000000001  0.55958  0.22263999999999995  1.0000
  C   C45       1.0  0.54706  0.62413  0.25832999999999995  1.0000
  C   C46       1.0  0.60582  0.68345  0.19564999999999994  1.0000
  C   C47       1.0  0.51059  0.62174  0.06617999999999999  1.0000
  C   C48       1.0  0.4469800000000001  0.56127  0.12411999999999997  1.0000
  C   C49       1.0  0.84402  0.59651  0.9269699999999997  1.0000
  C   C50       1.0  0.9118200000000002  0.52168  0.87582  1.0000
  C   C51       1.0  0.9013700000000002  0.5087  0.7813199999999998  1.0000
  C   C52       1.0  0.9656000000000002  0.44073  0.7225299999999999  1.0000
  C   C53       1.0  0.04682  0.37621  0.75798  1.0000
  C   C54       1.0  0.10538000000000002  0.31674  0.6952599999999998  1.0000
  C   C55       1.0  0.0099  0.3783  0.56597  1.0000
  C   C56       1.0  0.94661  0.43907  0.6239899999999998  1.0000
  C   C57       1.0  0.84402  0.90348  0.07303  1.0000
  C   C58       1.0  0.9118200000000002  0.97831  0.12417999999999997  1.0000
  C   C59       1.0  0.9013700000000002  0.9912900000000002  0.21867999999999996  1.0000
  C   C60       1.0  0.9656000000000002  0.05927  0.2774699999999999  1.0000
  C   C61       1.0  0.04682  0.12379000000000001  0.24201999999999996  1.0000
  C   C62       1.0  0.10538000000000002  0.18325  0.30474  1.0000
  C   C63       1.0  0.0099  0.1217  0.4340299999999999  1.0000
  C   C64       1.0  0.94661  0.06093  0.3760099999999999  1.0000
  N   N1        1.0  0.9107600000000002  0.68143  0.3997  1.0000
  N   N2        1.0  0.9107600000000002  0.8185600000000001  0.6003  1.0000
  N   N3        1.0  0.41001000000000004  0.18133  0.10064999999999998  1.0000
  N   N4        1.0  0.41001000000000004  0.31867  0.8993499999999998  1.0000
  N   N5        1.0  0.58999  0.8186700000000001  0.8993499999999998  1.0000
  N   N6        1.0  0.58999  0.68133  0.10064999999999998  1.0000
  N   N7        1.0  0.08924000000000003  0.31856  0.6003  1.0000
  N   N8        1.0  0.08924000000000003  0.18144000000000005  0.3997  1.0000
  O   O1        1.0  0.23274000000000003  0.35905000000000004  0.11926999999999997  1.0000
  O   O2        1.0  0.13629  0.38435  0.9862699999999998  1.0000
  O   O3        1.0  0.23274000000000003  0.14095  0.8807299999999999  1.0000
  O   O4        1.0  0.13629  0.11564  0.013729999999999996  1.0000
  O   O5        1.0  0.72987  0.85466  0.3767  1.0000
  O   O6        1.0  0.6398500000000001  0.88435  0.5125599999999998  1.0000
  O   O7        1.0  0.72987  0.64534  0.6233  1.0000
  O   O8        1.0  0.6398500000000001  0.6156400000000002  0.4874399999999999  1.0000
  O   O9        1.0  0.27013  0.14534  0.6233  1.0000
  O   O10       1.0  0.36015  0.11565  0.4874399999999999  1.0000
  O   O11       1.0  0.27013  0.35466  0.3767  1.0000
  O   O12       1.0  0.36015  0.38435  0.5125599999999998  1.0000
  O   O13       1.0  0.76726  0.64095  0.8807299999999999  1.0000
  O   O14       1.0  0.8637100000000002  0.6156400000000002  0.013729999999999996  1.0000
  O   O15       1.0  0.76726  0.85904  0.11926999999999997  1.0000
  O   O16       1.0  0.8637100000000002  0.88435  0.9862699999999998  1.0000
