data_image0
_chemical_formula_structural       Cd4H32C40S4N8O16
_chemical_formula_sum              "Cd4 H32 C40 S4 N8 O16"
_cell_length_a       9.12497
_cell_length_b       13.11571
_cell_length_c       12.75677
_cell_angle_alpha    118.63150999999999
_cell_angle_beta     89.99685999999998
_cell_angle_gamma    110.33737

_symmetry_space_group_name_H-M    'P 1'
_symmetry_Int_Tables_number       1

loop_
  _symmetry_equiv_pos_as_xyz
  'x,y,z'

loop_
  _atom_site_type_symbol
  _atom_site_label
  _atom_site_symmetry_multiplicity
  _atom_site_fract_x
  _atom_site_fract_y
  _atom_site_fract_z
  _atom_site_occupancy
  Cd  Cd1       1.0  0.36167999999999995  0.49429999999999985  0.8099799999999999  1.0000
  Cd  Cd2       1.0  0.7815599999999999  0.4775699999999999  0.62635  1.0000
  Cd  Cd3       1.0  0.86756  0.50609  0.19131999999999996  1.0000
  Cd  Cd4       1.0  0.30451  0.52252  0.37457999999999997  1.0000
  H   H1        1.0  0.35834  0.77444  0.9865699999999998  1.0000
  H   H2        1.0  0.55828  0.99504  0.1112  1.0000
  H   H3        1.0  0.9212600000000001  0.84201  0.05761  1.0000
  H   H4        1.0  0.70773  0.6295099999999999  0.9419399999999999  1.0000
  H   H5        1.0  0.72661  0.17153  0.22081  1.0000
  H   H6        1.0  0.9422  0.3799199999999999  0.32765  1.0000
  H   H7        1.0  0.29115  0.23378  0.22831999999999997  1.0000
  H   H8        1.0  0.08809999999999998  0.014679999999999986  0.12104999999999998  1.0000
  H   H9        1.0  0.98157  0.39885999999999994  0.8117899999999999  1.0000
  H   H10       1.0  0.75106  0.19822999999999993  0.72274  1.0000
  H   H11       1.0  0.08215000000000001  0.011010000000000032  0.63457  1.0000
  H   H12       1.0  0.3007099999999999  0.21974999999999997  0.7262399999999999  1.0000
  H   H13       1.0  0.68293  0.6423599999999999  0.44647  1.0000
  H   H14       1.0  0.9086499999999997  0.8479299999999996  0.5478899999999999  1.0000
  H   H15       1.0  0.56776  0.024700000000000062  0.64273  1.0000
  H   H16       1.0  0.35324  0.80696  0.5374  1.0000
  H   H17       1.0  0.5843  0.22649999999999998  0.015549999999999998  1.0000
  H   H18       1.0  0.56302  0.005649999999999893  0.8901699999999999  1.0000
  H   H19       1.0  0.07853999999999997  0.15765999999999994  0.9412999999999999  1.0000
  H   H20       1.0  0.07825  0.37047  0.05819  1.0000
  H   H21       1.0  0.55438  0.8291999999999998  0.77984  1.0000
  H   H22       1.0  0.56104  0.6203499999999997  0.67294  1.0000
  H   H23       1.0  0.0558  0.76558  0.7710599999999999  1.0000
  H   H24       1.0  0.07271000000000002  0.9849899999999999  0.87728  1.0000
  H   H25       1.0  0.5821699999999999  0.6008999999999998  0.18893  1.0000
  H   H26       1.0  0.55214  0.80155  0.27728  1.0000
  H   H27       1.0  0.07011999999999999  0.98867  0.3643799999999999  1.0000
  H   H28       1.0  0.08001  0.77989  0.27352  1.0000
  H   H29       1.0  0.03848999999999993  0.35732999999999987  0.55269  1.0000
  H   H30       1.0  0.059139999999999984  0.15168999999999996  0.4512399999999999  1.0000
  H   H31       1.0  0.54169  0.9747700000000001  0.35722  1.0000
  H   H32       1.0  0.54444  0.19247999999999996  0.4624499999999999  1.0000
  C   C1        1.0  0.48434999999999995  0.7939999999999999  0.00591  1.0000
  C   C2        1.0  0.59778  0.9174299999999999  0.07465  1.0000
  C   C3        1.0  0.7606  0.94012  0.09325  1.0000
  C   C4        1.0  0.79909  0.83363  0.04477  1.0000
  C   C5        1.0  0.67994  0.71309  0.97905  1.0000
  C   C6        1.0  0.88593  0.07001999999999997  0.1592  1.0000
  C   C7        1.0  0.8481  0.17651  0.21804  1.0000
  C   C8        1.0  0.96994  0.2965999999999999  0.27898  1.0000
  C   C9        1.0  0.16461  0.21506999999999998  0.22507  1.0000
  C   C10       1.0  0.048909999999999995  0.09215999999999999  0.16473  1.0000
  C   C11       1.0  9.999999999995875e-05  0.31119999999999987  0.7721399999999999  1.0000
  C   C12       1.0  0.8695  0.19586999999999988  0.72115  1.0000
  C   C13       1.0  0.8937099999999999  0.08294000000000001  0.66714  1.0000
  C   C14       1.0  0.05265999999999997  0.09357999999999994  0.6719799999999999  1.0000
  C   C15       1.0  0.17745999999999998  0.21135999999999994  0.7237999999999999  1.0000
  C   C16       1.0  0.6623899999999999  0.7290299999999997  0.49174  1.0000
  C   C17       1.0  0.78883  0.8461399999999998  0.54929  1.0000
  C   C18       1.0  0.75998  0.9571299999999999  0.60613  1.0000
  C   C19       1.0  0.5996399999999998  0.9429599999999998  0.60168  1.0000
  C   C20       1.0  0.47873  0.8220499999999997  0.5426399999999999  1.0000
  C   C21       1.0  0.69047  0.20663999999999982  0.9954399999999999  1.0000
  C   C22       1.0  0.68015  0.08314000000000002  0.92625  1.0000
  C   C23       1.0  0.8199700000000001  0.06013000000000006  0.90667  1.0000
  C   C24       1.0  0.96506  0.16643  0.95484  1.0000
  C   C25       1.0  0.96674  0.2870599999999999  0.02111  1.0000
  C   C26       1.0  0.8151999999999998  0.9301499999999998  0.84038  1.0000
  C   C27       1.0  0.67068  0.82384  0.78205  1.0000
  C   C28       1.0  0.67213  0.7036199999999998  0.7213  1.0000
  C   C29       1.0  0.94825  0.7846799999999999  0.77442  1.0000
  C   C30       1.0  0.95585  0.9077099999999999  0.8343099999999999  1.0000
  C   C31       1.0  0.68824  0.68856  0.22812999999999994  1.0000
  C   C32       1.0  0.67286  0.8038299999999998  0.27866  1.0000
  C   C33       1.0  0.8098  0.91678  0.33237  1.0000
  C   C34       1.0  0.9581199999999997  0.9061599999999997  0.3274  1.0000
  C   C35       1.0  0.96526  0.78843  0.27604  1.0000
  C   C36       1.0  0.9314599999999998  0.27053  0.50753  1.0000
  C   C37       1.0  0.9411400000000001  0.15351999999999996  0.45003  1.0000
  C   C38       1.0  0.80144  0.04247999999999998  0.39330999999999994  1.0000
  C   C39       1.0  0.6552  0.05657  0.398  1.0000
  C   C40       1.0  0.65489  0.1774199999999999  0.45703999999999995  1.0000
  S   S1        1.0  0.20538000000000006  0.60469  0.66428  1.0000
  S   S2        1.0  0.59728  0.37292999999999993  0.78099  1.0000
  S   S3        1.0  0.6022  0.39648  0.33781  1.0000
  S   S4        1.0  0.22422  0.62749  0.22041999999999998  1.0000
  N   N1        1.0  0.5243299999999999  0.6929699999999999  0.95755  1.0000
  N   N2        1.0  0.12576  0.31648  0.28189  1.0000
  N   N3        1.0  0.15191999999999997  0.31927999999999995  0.77189  1.0000
  N   N4        1.0  0.50916  0.71659  0.48827  1.0000
  N   N5        1.0  0.83157  0.30747  0.0434  1.0000
  N   N6        1.0  0.80787  0.68348  0.7183299999999999  1.0000
  N   N7        1.0  0.83197  0.68052  0.22845999999999997  1.0000
  N   N8        1.0  0.79067  0.28291999999999995  0.51122  1.0000
  O   O1        1.0  0.30374  0.52989  0.66185  1.0000
  O   O2        1.0  0.29640999999999984  0.7426799999999997  0.7468499999999999  1.0000
  O   O3        1.0  0.05559999999999999  0.55957  0.70836  1.0000
  O   O4        1.0  0.1608899999999999  0.5709699999999999  0.53463  1.0000
  O   O5        1.0  0.52448  0.39971  0.69075  1.0000
  O   O6        1.0  0.54932  0.23442999999999997  0.72509  1.0000
  O   O7        1.0  0.7746299999999999  0.44400999999999985  0.8044999999999999  1.0000
  O   O8        1.0  0.53196  0.4264599999999999  0.89486  1.0000
  O   O9        1.0  0.7754  0.4697199999999999  0.33870999999999996  1.0000
  O   O10       1.0  0.5556  0.25814  0.25827  1.0000
  O   O11       1.0  0.49729  0.43986  0.29145  1.0000
  O   O12       1.0  0.59166  0.43390999999999996  0.46829999999999994  1.0000
  O   O13       1.0  0.12542  0.59991  0.31061  1.0000
  O   O14       1.0  0.31655  0.76595  0.27784  1.0000
  O   O15       1.0  0.32859000000000005  0.5546  0.19411999999999996  1.0000
  O   O16       1.0  0.1046299999999999  0.5766199999999999  0.10788  1.0000
