data_image0
_chemical_formula_structural       Mg6H42C66O18
_chemical_formula_sum              "Mg6 H42 C66 O18"
_cell_length_a       6.78694
_cell_length_b       26.86888
_cell_length_c       26.88826
_cell_angle_alpha    119.4005
_cell_angle_beta     94.75814
_cell_angle_gamma    94.77080000000001

_symmetry_space_group_name_H-M    'P 1'
_symmetry_Int_Tables_number       1

loop_
  _symmetry_equiv_pos_as_xyz
  'x,y,z'

loop_
  _atom_site_type_symbol
  _atom_site_label
  _atom_site_symmetry_multiplicity
  _atom_site_fract_x
  _atom_site_fract_y
  _atom_site_fract_z
  _atom_site_occupancy
  Mg  Mg1       1.0  0.52406  0.32673  0.62284  1.0000
  Mg  Mg2       1.0  0.19669  0.29599  0.67273  1.0000
  Mg  Mg3       1.0  0.89997  0.37667  0.70342  1.0000
  Mg  Mg4       1.0  0.4759399999999999  0.6732599999999999  0.37716  1.0000
  Mg  Mg5       1.0  0.80331  0.70401  0.32727  1.0000
  Mg  Mg6       1.0  0.10003  0.62333  0.29658  1.0000
  H   H1        1.0  0.56125  0.44332000000000005  0.60083  1.0000
  H   H2        1.0  0.21204  0.39654999999999996  0.53122  1.0000
  H   H3        1.0  0.9934100000000001  0.44226  0.49143000000000003  1.0000
  H   H4        1.0  0.6826099999999999  0.55454  0.599  1.0000
  H   H5        1.0  0.4916600000000001  0.35286  0.4450500000000001  1.0000
  H   H6        1.0  0.4421  0.36083  0.38348  1.0000
  H   H7        1.0  0.69174  0.37115000000000004  0.41654000000000013  1.0000
  H   H8        1.0  0.11903999999999998  0.15762  0.55665  1.0000
  H   H9        1.0  0.81534  0.1341600000000001  0.6032700000000001  1.0000
  H   H10       1.0  0.5503800000000001  0.04872000000000007  0.5574900000000002  1.0000
  H   H11       1.0  0.12872  0.044539999999999996  0.44561  1.0000
  H   H12       1.0  0.13835  0.09211000000000001  0.64702  1.0000
  H   H13       1.0  0.08054000000000004  0.02242000000000006  0.6388400000000001  1.0000
  H   H14       1.0  0.31996  0.04511999999999998  0.62846  1.0000
  H   H15       1.0  0.96039  0.39905  0.84234  1.0000
  H   H16       1.0  0.67996  0.46848  0.86492  1.0000
  H   H17       1.0  0.50135  0.50829  0.95066  1.0000
  H   H18       1.0  0.08424000000000009  0.40086000000000005  0.9552600000000002  1.0000
  H   H19       1.0  0.04645000000000014  0.55485  0.9079400000000001  1.0000
  H   H20       1.0  0.057979999999999955  0.61654  0.9776  1.0000
  H   H21       1.0  0.27471  0.58332  0.9547800000000002  1.0000
  H   H22       1.0  0.43875  0.55668  0.39917  1.0000
  H   H23       1.0  0.78796  0.60345  0.4687800000000001  1.0000
  H   H24       1.0  0.006590000000000026  0.55773  0.5085700000000001  1.0000
  H   H25       1.0  0.3174  0.4454600000000001  0.4010000000000001  1.0000
  H   H26       1.0  0.50834  0.6471399999999999  0.55495  1.0000
  H   H27       1.0  0.5579000000000001  0.63917  0.61652  1.0000
  H   H28       1.0  0.3082599999999999  0.6288499999999999  0.58346  1.0000
  H   H29       1.0  0.88096  0.84237  0.44335  1.0000
  H   H30       1.0  0.18466999999999992  0.8658399999999998  0.39673  1.0000
  H   H31       1.0  0.4496200000000001  0.9512800000000001  0.44251  1.0000
  H   H32       1.0  0.87128  0.95546  0.55438  1.0000
  H   H33       1.0  0.86165  0.9078900000000002  0.3529800000000001  1.0000
  H   H34       1.0  0.91946  0.97758  0.3611500000000001  1.0000
  H   H35       1.0  0.6800399999999999  0.95488  0.37154  1.0000
  H   H36       1.0  0.03961000000000003  0.60094  0.15766  1.0000
  H   H37       1.0  0.32004  0.53152  0.13507000000000002  1.0000
  H   H38       1.0  0.49865  0.49171  0.04934  1.0000
  H   H39       1.0  0.9157699999999999  0.59914  0.04474000000000001  1.0000
  H   H40       1.0  0.95355  0.44515  0.09206  1.0000
  H   H41       1.0  0.94202  0.38345  0.022400000000000003  1.0000
  H   H42       1.0  0.7253  0.41668  0.04522  1.0000
  C   C1        1.0  0.15142000000000003  0.36519000000000007  0.6074000000000002  1.0000
  C   C2        1.0  0.01136  0.39301  0.5874  1.0000
  C   C3        1.0  0.8223400000000002  0.4055600000000001  0.6070600000000002  1.0000
  C   C4        1.0  0.7035  0.43311  0.58511  1.0000
  C   C5        1.0  0.76102  0.4456  0.54335  1.0000
  C   C6        1.0  0.94585  0.4319800000000001  0.5234000000000001  1.0000
  C   C7        1.0  0.06791999999999997  0.40663999999999995  0.54564  1.0000
  C   C8        1.0  0.62681  0.47284999999999994  0.52026  1.0000
  C   C9        1.0  0.5230300000000001  0.4412  0.46361000000000013  1.0000
  C   C10       1.0  0.60116  0.53062  0.55544  1.0000
  C   C11       1.0  0.53796  0.37822  0.42493  1.0000
  C   C12       1.0  0.7867  0.24192999999999998  0.6343900000000001  1.0000
  C   C13       1.0  0.61911  0.19411  0.6067  1.0000
  C   C14       1.0  0.4181500000000001  0.20134000000000005  0.5941300000000002  1.0000
  C   C15       1.0  0.2712399999999999  0.15198  0.56677  1.0000
  C   C16       1.0  0.31571999999999995  0.09764000000000003  0.5543100000000001  1.0000
  C   C17       1.0  0.51376  0.09110999999999998  0.56785  1.0000
  C   C18       1.0  0.66149  0.13863  0.59316  1.0000
  C   C19       1.0  0.15404  0.04736  0.52711  1.0000
  C   C20       1.0  0.08160000000000003  0.022319999999999996  0.55867  1.0000
  C   C21       1.0  0.07084  0.024869999999999996  0.46946  1.0000
  C   C22       1.0  0.15924  0.04654000000000007  0.62153  1.0000
  C   C23       1.0  0.54366  0.39227000000000006  0.7573700000000001  1.0000
  C   C24       1.0  0.42345  0.4123  0.80522  1.0000
  C   C25       1.0  0.2149800000000001  0.3926600000000001  0.7981600000000002  1.0000
  C   C26       1.0  0.11822000000000005  0.41469  0.8477600000000002  1.0000
  C   C27       1.0  0.21743000000000007  0.45644  0.90205  1.0000
  C   C28       1.0  0.42195  0.47634  0.90835  1.0000
  C   C29       1.0  0.52163  0.45407  0.86065  1.0000
  C   C30       1.0  0.1064400000000001  0.4796300000000001  0.9525100000000002  1.0000
  C   C31       1.0  0.05910000000000004  0.53636  0.9776700000000002  1.0000
  C   C32       1.0  0.04600999999999998  0.44447  0.97502  1.0000
  C   C33       1.0  0.11260000000000009  0.575  0.9534500000000002  1.0000
  C   C34       1.0  0.84858  0.63481  0.3926  1.0000
  C   C35       1.0  0.9886400000000001  0.6069899999999999  0.41260000000000013  1.0000
  C   C36       1.0  0.17765999999999993  0.5944299999999998  0.39294  1.0000
  C   C37       1.0  0.2965  0.56689  0.4148900000000001  1.0000
  C   C38       1.0  0.23897999999999997  0.5543999999999999  0.45665  1.0000
  C   C39       1.0  0.05414999999999999  0.56802  0.4766  1.0000
  C   C40       1.0  0.93208  0.59336  0.45436  1.0000
  C   C41       1.0  0.3731899999999999  0.52714  0.47974  1.0000
  C   C42       1.0  0.47697  0.55879  0.53638  1.0000
  C   C43       1.0  0.39884  0.46937000000000006  0.4445600000000001  1.0000
  C   C44       1.0  0.46203999999999995  0.62177  0.57506  1.0000
  C   C45       1.0  0.2133  0.75807  0.36561  1.0000
  C   C46       1.0  0.38089000000000006  0.80589  0.3933  1.0000
  C   C47       1.0  0.58186  0.79865  0.40587  1.0000
  C   C48       1.0  0.72876  0.84802  0.43323000000000006  1.0000
  C   C49       1.0  0.68429  0.90236  0.44569000000000003  1.0000
  C   C50       1.0  0.48624  0.9088899999999999  0.4321500000000001  1.0000
  C   C51       1.0  0.33851000000000003  0.8613700000000001  0.40683  1.0000
  C   C52       1.0  0.84596  0.9526399999999998  0.47289000000000003  1.0000
  C   C53       1.0  0.9184  0.97768  0.44133  1.0000
  C   C54       1.0  0.9291599999999998  0.97513  0.53054  1.0000
  C   C55       1.0  0.8407599999999997  0.95346  0.37846  1.0000
  C   C56       1.0  0.45634  0.60773  0.24263000000000007  1.0000
  C   C57       1.0  0.57655  0.5877  0.19478  1.0000
  C   C58       1.0  0.7850199999999998  0.6073399999999998  0.20184000000000002  1.0000
  C   C59       1.0  0.8817799999999998  0.58531  0.15224  1.0000
  C   C60       1.0  0.78257  0.54356  0.09795000000000002  1.0000
  C   C61       1.0  0.5780500000000001  0.5236600000000001  0.09164000000000001  1.0000
  C   C62       1.0  0.47837  0.54593  0.13935000000000003  1.0000
  C   C63       1.0  0.89356  0.52037  0.04749  1.0000
  C   C64       1.0  0.9409  0.46363  0.02233  1.0000
  C   C65       1.0  0.95399  0.55553  0.02498  1.0000
  C   C66       1.0  0.8874  0.425  0.04655000000000001  1.0000
  O   O1        1.0  0.31192  0.35191  0.58545  1.0000
  O   O2        1.0  0.11156  0.35467999999999994  0.6481500000000001  1.0000
  O   O3        1.0  0.7493599999999999  0.3915799999999999  0.6446000000000001  1.0000
  O   O4        1.0  0.9597799999999999  0.23302  0.64776  1.0000
  O   O5        1.0  0.75795  0.29317000000000004  0.6445700000000001  1.0000
  O   O6        1.0  0.36057000000000006  0.2529700000000001  0.6079300000000001  1.0000
  O   O7        1.0  0.72546  0.41454  0.76605  1.0000
  O   O8        1.0  0.46415  0.35108000000000006  0.70619  1.0000
  O   O9        1.0  0.10455000000000002  0.35513  0.74665  1.0000
  O   O10       1.0  0.6880799999999999  0.64808  0.4145500000000001  1.0000
  O   O11       1.0  0.88844  0.64532  0.35185  1.0000
  O   O12       1.0  0.25064  0.60842  0.35540000000000005  1.0000
  O   O13       1.0  0.04022000000000005  0.76698  0.35224  1.0000
  O   O14       1.0  0.24205999999999997  0.7068299999999998  0.35543  1.0000
  O   O15       1.0  0.6394299999999999  0.7470199999999998  0.39207000000000003  1.0000
  O   O16       1.0  0.27454  0.58546  0.23395  1.0000
  O   O17       1.0  0.53585  0.64892  0.29381  1.0000
  O   O18       1.0  0.8954499999999999  0.64487  0.25335  1.0000
