data_image0
_chemical_formula_structural       Sc6H24C48O26
_chemical_formula_sum              "Sc6 H24 C48 O26"
_cell_length_a       14.46964
_cell_length_b       14.46977
_cell_length_c       17.80582
_cell_angle_alpha    90.0
_cell_angle_beta     90.0
_cell_angle_gamma    119.83390999999999

_symmetry_space_group_name_H-M    'P 1'
_symmetry_Int_Tables_number       1

loop_
  _symmetry_equiv_pos_as_xyz
  'x,y,z'

loop_
  _atom_site_type_symbol
  _atom_site_label
  _atom_site_symmetry_multiplicity
  _atom_site_fract_x
  _atom_site_fract_y
  _atom_site_fract_z
  _atom_site_occupancy
  Sc  Sc1       1.0  0.25493  0.74507  0.25  1.0000
  Sc  Sc2       1.0  0.25519  0.51018  0.25  1.0000
  Sc  Sc3       1.0  0.48982  0.74481  0.25  1.0000
  Sc  Sc4       1.0  0.74507  0.25493  0.75  1.0000
  Sc  Sc5       1.0  0.74481  0.48981  0.75  1.0000
  Sc  Sc6       1.0  0.5101899999999999  0.25519  0.75  1.0000
  H   H1        1.0  0.62244  0.94748  0.05976999999999999  1.0000
  H   H2        1.0  0.05232000000000002  0.67476  0.05954  1.0000
  H   H3        1.0  0.32548000000000005  0.378  0.05972999999999999  1.0000
  H   H4        1.0  0.37757  0.05251  0.55976  1.0000
  H   H5        1.0  0.94768  0.32523  0.55954  1.0000
  H   H6        1.0  0.67452  0.622  0.55973  1.0000
  H   H7        1.0  0.94749  0.62243  0.9402299999999999  1.0000
  H   H8        1.0  0.67477  0.05232  0.9404599999999999  1.0000
  H   H9        1.0  0.378  0.32548  0.94027  1.0000
  H   H10       1.0  0.05251999999999997  0.37756  0.44022999999999995  1.0000
  H   H11       1.0  0.32524  0.94767  0.4404599999999999  1.0000
  H   H12       1.0  0.62201  0.67452  0.44026999999999994  1.0000
  H   H13       1.0  0.37757  0.05251  0.9402299999999999  1.0000
  H   H14       1.0  0.94768  0.32523  0.9404599999999999  1.0000
  H   H15       1.0  0.67452  0.622  0.94027  1.0000
  H   H16       1.0  0.62244  0.94748  0.44022999999999995  1.0000
  H   H17       1.0  0.05232999999999999  0.67476  0.4404599999999999  1.0000
  H   H18       1.0  0.32548000000000005  0.378  0.44026999999999994  1.0000
  H   H19       1.0  0.052509999999999966  0.37756  0.05976999999999999  1.0000
  H   H20       1.0  0.32524  0.94767  0.05954  1.0000
  H   H21       1.0  0.622  0.67452  0.05972999999999999  1.0000
  H   H22       1.0  0.94749  0.62243  0.55976  1.0000
  H   H23       1.0  0.67477  0.05232  0.55954  1.0000
  H   H24       1.0  0.378  0.32548  0.55973  1.0000
  C   C1        1.0  0.56964  0.97106  0.0333  1.0000
  C   C2        1.0  0.02879000000000005  0.59848  0.03314  1.0000
  C   C3        1.0  0.40163  0.43051999999999996  0.03323  1.0000
  C   C4        1.0  0.4303600000000001  0.02894  0.5333  1.0000
  C   C5        1.0  0.9712100000000002  0.40151  0.53314  1.0000
  C   C6        1.0  0.59837  0.56948  0.53323  1.0000
  C   C7        1.0  0.9710599999999999  0.56964  0.9666899999999999  1.0000
  C   C8        1.0  0.5984900000000001  0.02879  0.96686  1.0000
  C   C9        1.0  0.43052  0.40162999999999993  0.9667699999999999  1.0000
  C   C10       1.0  0.028939999999999994  0.43036  0.46668999999999994  1.0000
  C   C11       1.0  0.4015200000000001  0.9712  0.46685999999999994  1.0000
  C   C12       1.0  0.56948  0.59837  0.46677  1.0000
  C   C13       1.0  0.4303600000000001  0.02894  0.9666899999999999  1.0000
  C   C14       1.0  0.9712100000000002  0.40151  0.96686  1.0000
  C   C15       1.0  0.59837  0.56948  0.9667699999999999  1.0000
  C   C16       1.0  0.56964  0.97106  0.46668999999999994  1.0000
  C   C17       1.0  0.02879000000000005  0.59848  0.46685999999999994  1.0000
  C   C18       1.0  0.40163  0.43051999999999996  0.46677  1.0000
  C   C19       1.0  0.028939999999999994  0.43036  0.0333  1.0000
  C   C20       1.0  0.4015200000000001  0.9712  0.03314  1.0000
  C   C21       1.0  0.56948  0.59836  0.03323  1.0000
  C   C22       1.0  0.9710599999999999  0.56964  0.5333  1.0000
  C   C23       1.0  0.5984900000000001  0.02879  0.53314  1.0000
  C   C24       1.0  0.43052  0.40162999999999993  0.53323  1.0000
  C   C25       1.0  0.4397  0.87936  0.13755  1.0000
  C   C26       1.0  0.47087  0.94173  0.06747  1.0000
  C   C27       1.0  0.12064000000000001  0.5603  0.13755  1.0000
  C   C28       1.0  0.058270000000000016  0.52913  0.06747  1.0000
  C   C29       1.0  0.43975  0.56025  0.13757  1.0000
  C   C30       1.0  0.47088  0.52912  0.06746  1.0000
  C   C31       1.0  0.5603  0.12063999999999998  0.6375499999999997  1.0000
  C   C32       1.0  0.52913  0.05827  0.5674699999999999  1.0000
  C   C33       1.0  0.87937  0.43968999999999997  0.6375499999999997  1.0000
  C   C34       1.0  0.94174  0.47087000000000007  0.5674699999999999  1.0000
  C   C35       1.0  0.5602600000000001  0.43973999999999996  0.63757  1.0000
  C   C36       1.0  0.52913  0.47087000000000007  0.5674599999999997  1.0000
  C   C37       1.0  0.87937  0.43968999999999997  0.86245  1.0000
  C   C38       1.0  0.94174  0.47087000000000007  0.9325199999999999  1.0000
  C   C39       1.0  0.5603  0.12063999999999998  0.86245  1.0000
  C   C40       1.0  0.52913  0.05827  0.9325199999999999  1.0000
  C   C41       1.0  0.5602600000000001  0.43973999999999996  0.86243  1.0000
  C   C42       1.0  0.52913  0.47087000000000007  0.93254  1.0000
  C   C43       1.0  0.12064000000000001  0.5603  0.36245  1.0000
  C   C44       1.0  0.058270000000000016  0.52913  0.43252999999999997  1.0000
  C   C45       1.0  0.4397  0.87936  0.36245  1.0000
  C   C46       1.0  0.47087  0.94173  0.43252999999999997  1.0000
  C   C47       1.0  0.43975  0.56025  0.3624299999999999  1.0000
  C   C48       1.0  0.47088  0.52912  0.43254  1.0000
  O   O1        1.0  0.34811  0.85243  0.16663  1.0000
  O   O2        1.0  0.14764  0.49563  0.16667  1.0000
  O   O3        1.0  0.50422  0.65169  0.1667  1.0000
  O   O4        1.0  0.6519  0.14756  0.66662  1.0000
  O   O5        1.0  0.8523700000000002  0.50436  0.66667  1.0000
  O   O6        1.0  0.49578000000000005  0.34831  0.6667  1.0000
  O   O7        1.0  0.85244  0.34811  0.83337  1.0000
  O   O8        1.0  0.4956400000000001  0.14764  0.83333  1.0000
  O   O9        1.0  0.6516900000000001  0.50422  0.8332999999999998  1.0000
  O   O10       1.0  0.14757  0.65189  0.33337  1.0000
  O   O11       1.0  0.5043700000000002  0.85236  0.33333  1.0000
  O   O12       1.0  0.34831  0.49578  0.3333  1.0000
  O   O13       1.0  0.6519  0.14757  0.83337  1.0000
  O   O14       1.0  0.8523700000000002  0.50436  0.83333  1.0000
  O   O15       1.0  0.49578000000000005  0.34831  0.8332999999999998  1.0000
  O   O16       1.0  0.34811  0.85243  0.33337  1.0000
  O   O17       1.0  0.14764  0.49563  0.33333  1.0000
  O   O18       1.0  0.50422  0.65169  0.3333  1.0000
  O   O19       1.0  0.14757  0.65189  0.16663  1.0000
  O   O20       1.0  0.5043700000000002  0.85236  0.16667  1.0000
  O   O21       1.0  0.34831  0.49578  0.1667  1.0000
  O   O22       1.0  0.85244  0.34811  0.66662  1.0000
  O   O23       1.0  0.4956400000000001  0.14764  0.66667  1.0000
  O   O24       1.0  0.6516900000000001  0.50422  0.6667  1.0000
  O   O25       1.0  0.33330000000000004  0.6667  0.25  1.0000
  O   O26       1.0  0.6667100000000001  0.3333  0.75  1.0000
