data_image0
_chemical_formula_structural       Cu4H32C56N8O20
_chemical_formula_sum              "Cu4 H32 C56 N8 O20"
_cell_length_a       8.19559
_cell_length_b       10.5302
_cell_length_c       17.83725
_cell_angle_alpha    90.0
_cell_angle_beta     102.54229
_cell_angle_gamma    90.0

_symmetry_space_group_name_H-M    'P 1'
_symmetry_Int_Tables_number       1

loop_
  _symmetry_equiv_pos_as_xyz
  'x,y,z'

loop_
  _atom_site_type_symbol
  _atom_site_label
  _atom_site_symmetry_multiplicity
  _atom_site_fract_x
  _atom_site_fract_y
  _atom_site_fract_z
  _atom_site_occupancy
  Cu  Cu1       1.0  0.82528  0.55931  0.43142  1.0000
  Cu  Cu2       1.0  0.32528  0.94068  0.93142  1.0000
  Cu  Cu3       1.0  0.67472  0.05931  0.06858  1.0000
  Cu  Cu4       1.0  0.17473  0.44068  0.56858  1.0000
  H   H1        1.0  0.52989  0.78539  0.17078  1.0000
  H   H2        1.0  0.64689  0.58581  0.97738  1.0000
  H   H3        1.0  0.8222  0.44251  0.20717  1.0000
  H   H4        1.0  0.88232  0.28364  0.8589  1.0000
  H   H5        1.0  0.07033  0.10478  0.83495  1.0000
  H   H6        1.0  0.25133  0.05223  0.06842  1.0000
  H   H7        1.0  0.07527  0.22679  0.10184  1.0000
  H   H8        1.0  0.85714  0.32562  0.1038  1.0000
  H   H9        1.0  0.029899999999999982  0.7146  0.67078  1.0000
  H   H10       1.0  0.14688  0.91418  0.47738  1.0000
  H   H11       1.0  0.32221  0.05749  0.70717  1.0000
  H   H12       1.0  0.38232  0.21636  0.35889  1.0000
  H   H13       1.0  0.57032  0.39522000000000007  0.33494999999999997  1.0000
  H   H14       1.0  0.7513300000000003  0.44777000000000006  0.56842  1.0000
  H   H15       1.0  0.57528  0.27321  0.60183  1.0000
  H   H16       1.0  0.35715  0.17438000000000003  0.6038  1.0000
  H   H17       1.0  0.9701  0.28539  0.32922  1.0000
  H   H18       1.0  0.85312  0.08581  0.52262  1.0000
  H   H19       1.0  0.6778  0.9425100000000001  0.29283  1.0000
  H   H20       1.0  0.61768  0.78364  0.6411  1.0000
  H   H21       1.0  0.4296800000000001  0.60478  0.66505  1.0000
  H   H22       1.0  0.24867  0.55223  0.43158  1.0000
  H   H23       1.0  0.42473  0.72679  0.39817  1.0000
  H   H24       1.0  0.64286  0.8256100000000001  0.3962  1.0000
  H   H25       1.0  0.4701100000000001  0.2146  0.82922  1.0000
  H   H26       1.0  0.35312  0.41418  0.02262  1.0000
  H   H27       1.0  0.17780000000000007  0.55748  0.79283  1.0000
  H   H28       1.0  0.11768000000000002  0.71636  0.1411  1.0000
  H   H29       1.0  0.92968  0.89522  0.16505  1.0000
  H   H30       1.0  0.74868  0.94776  0.93158  1.0000
  H   H31       1.0  0.92473  0.7732000000000001  0.89816  1.0000
  H   H32       1.0  0.14286000000000001  0.67438  0.8962  1.0000
  C   C1        1.0  0.67684  0.6145  0.19748  1.0000
  C   C2        1.0  0.58853  0.70591  0.14798  1.0000
  C   C3        1.0  0.57875  0.69402  0.06893  1.0000
  C   C4        1.0  0.6556500000000002  0.59295  0.03872  1.0000
  C   C5        1.0  0.7442600000000003  0.50154  0.08875  1.0000
  C   C6        1.0  0.75373  0.51292  0.168  1.0000
  C   C7        1.0  0.6922  0.6259  0.2826  1.0000
  C   C8        1.0  0.48733  0.7896100000000001  0.01599  1.0000
  C   C9        1.0  0.85971  0.38256000000000007  0.99259  1.0000
  C   C10       1.0  0.96199  0.26819  0.98197  1.0000
  C   C11       1.0  0.961  0.23221  0.90613  1.0000
  C   C12       1.0  0.06379  0.13436  0.89261  1.0000
  C   C13       1.0  0.16651  0.10513  0.02405  1.0000
  C   C14       1.0  0.06704  0.20278  0.04181  1.0000
  C   C15       1.0  0.17685000000000006  0.8855000000000001  0.69748  1.0000
  C   C16       1.0  0.08854000000000001  0.79408  0.64798  1.0000
  C   C17       1.0  0.07875999999999998  0.80598  0.56893  1.0000
  C   C18       1.0  0.15566000000000005  0.90704  0.53872  1.0000
  C   C19       1.0  0.24426000000000003  0.9984600000000001  0.58875  1.0000
  C   C20       1.0  0.25374000000000013  0.98707  0.668  1.0000
  C   C21       1.0  0.19220999999999994  0.87409  0.7826  1.0000
  C   C22       1.0  0.9873300000000002  0.71038  0.51599  1.0000
  C   C23       1.0  0.3597100000000001  0.11743000000000002  0.49259  1.0000
  C   C24       1.0  0.46199  0.23181000000000002  0.48197000000000007  1.0000
  C   C25       1.0  0.461  0.26778  0.40613  1.0000
  C   C26       1.0  0.56378  0.36564  0.39261  1.0000
  C   C27       1.0  0.66652  0.39486  0.52405  1.0000
  C   C28       1.0  0.56705  0.29722  0.54181  1.0000
  C   C29       1.0  0.82316  0.1145  0.30251999999999996  1.0000
  C   C30       1.0  0.9114600000000002  0.20590999999999998  0.35202  1.0000
  C   C31       1.0  0.9212400000000002  0.19402  0.43107  1.0000
  C   C32       1.0  0.84434  0.09295  0.46127999999999997  1.0000
  C   C33       1.0  0.7557399999999999  0.0015400000000000001  0.41125  1.0000
  C   C34       1.0  0.74627  0.01292  0.33199999999999996  1.0000
  C   C35       1.0  0.8078  0.1259  0.2174  1.0000
  C   C36       1.0  0.012669999999999978  0.28961  0.48400999999999994  1.0000
  C   C37       1.0  0.64029  0.8825700000000001  0.50741  1.0000
  C   C38       1.0  0.53801  0.76819  0.51803  1.0000
  C   C39       1.0  0.53901  0.73221  0.59387  1.0000
  C   C40       1.0  0.43622  0.63436  0.60739  1.0000
  C   C41       1.0  0.33349000000000006  0.60513  0.47594999999999993  1.0000
  C   C42       1.0  0.43296  0.70278  0.45819  1.0000
  C   C43       1.0  0.32316  0.3855  0.80252  1.0000
  C   C44       1.0  0.41147000000000006  0.29408  0.85202  1.0000
  C   C45       1.0  0.42124999999999996  0.30598  0.9310699999999998  1.0000
  C   C46       1.0  0.34435  0.40704  0.96128  1.0000
  C   C47       1.0  0.25574  0.49845  0.91125  1.0000
  C   C48       1.0  0.24627  0.48707  0.832  1.0000
  C   C49       1.0  0.3078  0.37409  0.7174  1.0000
  C   C50       1.0  0.51268  0.21038  0.98401  1.0000
  C   C51       1.0  0.14029  0.6174300000000001  0.00741  1.0000
  C   C52       1.0  0.03801  0.73181  0.01803  1.0000
  C   C53       1.0  0.039  0.76779  0.09387  1.0000
  C   C54       1.0  0.93622  0.86564  0.10739  1.0000
  C   C55       1.0  0.83349  0.89486  0.97595  1.0000
  C   C56       1.0  0.9329600000000001  0.79721  0.9581899999999999  1.0000
  N   N1        1.0  0.16581999999999997  0.07185  0.95088  1.0000
  N   N2        1.0  0.82623  0.39752  0.06393  1.0000
  N   N3        1.0  0.66582  0.4281400000000001  0.45088  1.0000
  N   N4        1.0  0.32623  0.10248  0.56393  1.0000
  N   N5        1.0  0.33418  0.57185  0.54912  1.0000
  N   N6        1.0  0.67377  0.8975199999999999  0.43607  1.0000
  N   N7        1.0  0.8341800000000003  0.92814  0.04912  1.0000
  N   N8        1.0  0.17378  0.60247  0.93607  1.0000
  O   O1        1.0  0.78489  0.53823  0.32225  1.0000
  O   O2        1.0  0.61921  0.71297  0.31046  1.0000
  O   O3        1.0  0.47072  0.7816  0.94309  1.0000
  O   O4        1.0  0.4196800000000001  0.88745  0.04187  1.0000
  O   O5        1.0  0.8158299999999999  0.45696000000000003  0.9381499999999999  1.0000
  O   O6        1.0  0.2849  0.9617600000000001  0.82225  1.0000
  O   O7        1.0  0.11921000000000004  0.78703  0.81046  1.0000
  O   O8        1.0  0.9707099999999999  0.71839  0.44308999999999993  1.0000
  O   O9        1.0  0.9196799999999999  0.61254  0.54187  1.0000
  O   O10       1.0  0.31583  0.04303  0.43815  1.0000
  O   O11       1.0  0.7150999999999998  0.03824  0.17775  1.0000
  O   O12       1.0  0.88079  0.21297  0.18954  1.0000
  O   O13       1.0  0.02929  0.28161  0.55691  1.0000
  O   O14       1.0  0.08031999999999997  0.38745  0.4581299999999999  1.0000
  O   O15       1.0  0.6841700000000002  0.95697  0.56185  1.0000
  O   O16       1.0  0.21510999999999997  0.46176  0.6777499999999999  1.0000
  O   O17       1.0  0.38079  0.28703  0.68953  1.0000
  O   O18       1.0  0.52929  0.21839  0.05691  1.0000
  O   O19       1.0  0.58032  0.11254000000000002  0.95813  1.0000
  O   O20       1.0  0.18418  0.54303  0.06185  1.0000
