data_image0
_chemical_formula_structural       Ca4H32Pb4C64O40
_chemical_formula_sum              "Ca4 H32 Pb4 C64 O40"
_cell_length_a       9.08132
_cell_length_b       15.8086
_cell_length_c       15.815170000000002
_cell_angle_alpha    85.30946000000002
_cell_angle_beta     73.35426
_cell_angle_gamma    73.38893

_symmetry_space_group_name_H-M    'P 1'
_symmetry_Int_Tables_number       1

loop_
  _symmetry_equiv_pos_as_xyz
  'x,y,z'

loop_
  _atom_site_type_symbol
  _atom_site_label
  _atom_site_symmetry_multiplicity
  _atom_site_fract_x
  _atom_site_fract_y
  _atom_site_fract_z
  _atom_site_occupancy
  Ca  Ca1       1.0  0.7379100000000002  0.13727  0.6373199999999999  1.0000
  Ca  Ca2       1.0  0.5104500000000001  0.86298  0.3636099999999999  1.0000
  Ca  Ca3       1.0  0.12434999999999997  0.36328  0.13687  1.0000
  Ca  Ca4       1.0  0.6236699999999998  0.6375400000000002  0.8623999999999998  1.0000
  H   H1        1.0  0.2428800000000001  0.26589  0.43020999999999987  1.0000
  H   H2        1.0  0.8717800000000001  0.3041600000000001  0.3053999999999999  1.0000
  H   H3        1.0  0.39748  0.41596  0.27397  1.0000
  H   H4        1.0  0.48475  0.20459000000000005  0.4588299999999999  1.0000
  H   H5        1.0  0.9373699999999999  0.7344700000000002  0.56981  1.0000
  H   H6        1.0  0.4801600000000002  0.6961100000000002  0.6945699999999998  1.0000
  H   H7        1.0  0.08627000000000014  0.58406  0.7256099999999998  1.0000
  H   H8        1.0  0.14713999999999988  0.7959200000000002  0.54132  1.0000
  H   H9        1.0  0.4908099999999999  0.5696300000000002  0.26577  1.0000
  H   H10       1.0  0.8239199999999999  0.6944900000000003  0.30389  1.0000
  H   H11       1.0  0.18645999999999996  0.72565  0.41618  1.0000
  H   H12       1.0  0.31009000000000003  0.5415  0.20408999999999994  1.0000
  H   H13       1.0  0.3272900000000002  0.4305100000000001  0.7343099999999998  1.0000
  H   H14       1.0  0.8231899999999999  0.30542  0.6961299999999998  1.0000
  H   H15       1.0  0.32871  0.27433  0.58414  1.0000
  H   H16       1.0  0.05716000000000009  0.45873000000000014  0.7958999999999998  1.0000
  H   H17       1.0  0.007100000000000047  0.06992000000000001  0.23408999999999994  1.0000
  H   H18       1.0  0.37773000000000007  0.19468000000000005  0.19641999999999996  1.0000
  H   H19       1.0  0.8521300000000004  0.22602000000000005  0.08415999999999997  1.0000
  H   H20       1.0  0.7648600000000001  0.04132  0.29576999999999987  1.0000
  H   H21       1.0  0.31098000000000015  0.93057  0.7657299999999998  1.0000
  H   H22       1.0  0.76862  0.80559  0.8035799999999997  1.0000
  H   H23       1.0  0.16238000000000002  0.7744  0.9156  1.0000
  H   H24       1.0  0.10214  0.9588600000000003  0.7038699999999998  1.0000
  H   H25       1.0  0.7584700000000002  0.23411000000000007  0.9303899999999998  1.0000
  H   H26       1.0  0.42572999999999994  0.19588000000000005  0.8053299999999998  1.0000
  H   H27       1.0  0.0626300000000001  0.08407  0.7742799999999997  1.0000
  H   H28       1.0  0.93975  0.29586000000000007  0.9587199999999998  1.0000
  H   H29       1.0  0.9223599999999998  0.7657800000000002  0.06943999999999997  1.0000
  H   H30       1.0  0.42688  0.8039700000000002  0.19442999999999994  1.0000
  H   H31       1.0  0.92137  0.91574  0.22554  1.0000
  H   H32       1.0  0.19314999999999993  0.7040300000000003  0.04112  1.0000
  Pb  Pb1       1.0  0.12434000000000006  0.05655000000000002  0.4439299999999999  1.0000
  Pb  Pb2       1.0  0.6240699999999999  0.9436500000000002  0.5563999999999998  1.0000
  Pb  Pb3       1.0  0.8173400000000002  0.5566600000000003  0.055869999999999996  1.0000
  Pb  Pb4       1.0  0.43168000000000006  0.4437000000000001  0.9432099999999998  1.0000
  C   C1        1.0  0.8030100000000002  0.18500000000000005  0.4277999999999999  1.0000
  C   C2        1.0  0.70769  0.42401  0.20954  1.0000
  C   C3        1.0  0.56129  0.11194000000000003  0.24961999999999995  1.0000
  C   C4        1.0  0.7455000000000002  0.30824  0.32368  1.0000
  C   C5        1.0  0.6410500000000002  0.3680500000000001  0.28268999999999994  1.0000
  C   C6        1.0  0.47884  0.37076  0.3066799999999999  1.0000
  C   C7        1.0  0.4215000000000001  0.31176  0.3700799999999999  1.0000
  C   C8        1.0  0.5266400000000001  0.2523  0.41151  1.0000
  C   C9        1.0  0.4146699999999999  0.8153100000000002  0.5728099999999998  1.0000
  C   C10       1.0  0.34007  0.5761200000000002  0.79027  1.0000
  C   C11       1.0  0.9228800000000001  0.8881600000000002  0.7501699999999998  1.0000
  C   C12       1.0  0.3762000000000001  0.69192  0.6763499999999998  1.0000
  C   C13       1.0  0.29053000000000007  0.6320000000000001  0.7171499999999997  1.0000
  C   C14       1.0  0.15506  0.6293600000000001  0.6930299999999998  1.0000
  C   C15       1.0  0.10191000000000014  0.68847  0.6297699999999998  1.0000
  C   C16       1.0  0.18916000000000002  0.74804  0.58856  1.0000
  C   C17       1.0  0.01146999999999991  0.5728000000000002  0.18416999999999994  1.0000
  C   C18       1.0  0.86692  0.78969  0.4240699999999999  1.0000
  C   C19       1.0  0.3260299999999999  0.7505900000000002  0.11163999999999998  1.0000
  C   C20       1.0  0.9461300000000002  0.67622  0.30792999999999987  1.0000
  C   C21       1.0  0.9906399999999996  0.7169600000000003  0.36808999999999986  1.0000
  C   C22       1.0  0.1501799999999999  0.6930800000000003  0.3708399999999999  1.0000
  C   C23       1.0  0.2665800000000001  0.62991  0.31162999999999996  1.0000
  C   C24       1.0  0.22076000000000007  0.58875  0.25188  1.0000
  C   C25       1.0  0.76905  0.42770000000000014  0.8150599999999998  1.0000
  C   C26       1.0  0.08212000000000017  0.20988  0.5761699999999997  1.0000
  C   C27       1.0  0.1891400000000001  0.24929000000000007  0.8881499999999998  1.0000
  C   C28       1.0  0.9312  0.3237  0.69212  1.0000
  C   C29       1.0  0.0764400000000001  0.28282  0.6321799999999997  1.0000
  C   C30       1.0  0.21471  0.30687  0.62943  1.0000
  C   C31       1.0  0.20892000000000008  0.3701200000000001  0.6885799999999997  1.0000
  C   C32       1.0  0.06239000000000008  0.41145000000000004  0.7481899999999998  1.0000
  C   C33       1.0  0.4454600000000002  0.07283000000000003  0.3158499999999999  1.0000
  C   C34       1.0  0.5406899999999999  0.2899000000000001  0.07613999999999997  1.0000
  C   C35       1.0  0.6880500000000002  0.2510500000000001  0.38823999999999986  1.0000
  C   C36       1.0  0.5040200000000001  0.17630000000000007  0.19228999999999993  1.0000
  C   C37       1.0  0.6084299999999998  0.21715000000000007  0.13217  1.0000
  C   C38       1.0  0.7707200000000001  0.19331000000000007  0.12936999999999996  1.0000
  C   C39       1.0  0.8282  0.13003000000000006  0.18844999999999995  1.0000
  C   C40       1.0  0.7229  0.08867  0.24813999999999994  1.0000
  C   C41       1.0  0.83355  0.9273700000000002  0.6843499999999998  1.0000
  C   C42       1.0  0.9063800000000003  0.71047  0.9238999999999998  1.0000
  C   C43       1.0  0.32594  0.74925  0.61201  1.0000
  C   C44       1.0  0.8725200000000004  0.8239000000000002  0.8076599999999998  1.0000
  C   C45       1.0  0.9575199999999993  0.7831800000000002  0.86785  1.0000
  C   C46       1.0  0.09328999999999989  0.8070500000000003  0.8704599999999998  1.0000
  C   C47       1.0  0.14659000000000003  0.8702600000000003  0.8112199999999998  1.0000
  C   C48       1.0  0.05975999999999995  0.9115000000000002  0.7514899999999999  1.0000
  C   C49       1.0  0.23897999999999994  0.31546  0.92713  1.0000
  C   C50       1.0  0.3817600000000001  0.07595000000000003  0.7100799999999998  1.0000
  C   C51       1.0  0.92414  0.3882000000000001  0.74938  1.0000
  C   C52       1.0  0.30343  0.19198  0.82373  1.0000
  C   C53       1.0  0.25869999999999993  0.13199000000000005  0.78293  1.0000
  C   C54       1.0  0.09915000000000003  0.12930000000000003  0.8068599999999999  1.0000
  C   C55       1.0  0.983  0.18843000000000004  0.8701699999999999  1.0000
  C   C56       1.0  0.028960000000000014  0.24802000000000005  0.9114699999999998  1.0000
  C   C57       1.0  0.4809300000000001  0.68465  0.07248  1.0000
  C   C58       1.0  0.16822000000000015  0.9239900000000002  0.2898199999999999  1.0000
  C   C59       1.0  0.060679999999999956  0.6120300000000002  0.25047  1.0000
  C   C60       1.0  0.31896999999999986  0.8079200000000002  0.17609999999999995  1.0000
  C   C61       1.0  0.17377999999999982  0.8679400000000003  0.21691999999999995  1.0000
  C   C62       1.0  0.035529999999999874  0.8706000000000003  0.19294999999999995  1.0000
  C   C63       1.0  0.04134999999999989  0.8114200000000003  0.12970999999999994  1.0000
  C   C64       1.0  0.18783999999999995  0.7518000000000002  0.08837999999999997  1.0000
  O   O1        1.0  0.74906  0.13847  0.49370999999999987  1.0000
  O   O2        1.0  0.9514900000000002  0.17733  0.3928599999999999  1.0000
  O   O3        1.0  0.8592499999999998  0.4004200000000001  0.17347999999999994  1.0000
  O   O4        1.0  0.6160000000000001  0.4918900000000001  0.18349  1.0000
  O   O5        1.0  0.26554000000000005  0.3129900000000001  0.3868299999999999  1.0000
  O   O6        1.0  0.37932999999999983  0.8624000000000003  0.50742  1.0000
  O   O7        1.0  0.52127  0.8225200000000003  0.60748  1.0000
  O   O8        1.0  0.43265999999999993  0.5997500000000002  0.8258999999999997  1.0000
  O   O9        1.0  0.29005000000000003  0.5082700000000001  0.8166999999999998  1.0000
  O   O10       1.0  0.9637899999999998  0.6872100000000002  0.61307  1.0000
  O   O11       1.0  0.11128000000000003  0.5068200000000002  0.13772999999999994  1.0000
  O   O12       1.0  0.8711200000000001  0.60798  0.17601  1.0000
  O   O13       1.0  0.73884  0.8248400000000002  0.40028  1.0000
  O   O14       1.0  0.8894099999999999  0.8165200000000002  0.4920599999999999  1.0000
  O   O15       1.0  0.4213799999999999  0.6130500000000002  0.31292  1.0000
  O   O16       1.0  0.7558599999999999  0.49392000000000014  0.8615599999999998  1.0000
  O   O17       1.0  0.6558  0.3924700000000001  0.82242  1.0000
  O   O18       1.0  0.9658  0.1743  0.59965  1.0000
  O   O19       1.0  0.19966000000000012  0.18354  0.5082899999999999  1.0000
  O   O20       1.0  0.3482000000000001  0.38702  0.6872099999999998  1.0000
  O   O21       1.0  0.49823000000000006  0.006730000000000002  0.3623599999999999  1.0000
  O   O22       1.0  0.2969899999999999  0.10826000000000001  0.3239  1.0000
  O   O23       1.0  0.3890000000000002  0.32527  0.09988999999999998  1.0000
  O   O24       1.0  0.63114  0.3164  0.007989999999999997  1.0000
  O   O25       1.0  0.9844  0.11326000000000003  0.18697  1.0000
  O   O26       1.0  0.8668400000000003  0.9935700000000002  0.6379099999999998  1.0000
  O   O27       1.0  0.72803  0.8920100000000002  0.6767299999999998  1.0000
  O   O28       1.0  0.8136500000000004  0.67504  0.9001699999999998  1.0000
  O   O29       1.0  0.9555100000000003  0.6839200000000002  0.9919899999999998  1.0000
  O   O30       1.0  0.2844800000000002  0.8870700000000002  0.8127399999999998  1.0000
  O   O31       1.0  0.13974000000000011  0.3623000000000001  0.9929599999999997  1.0000
  O   O32       1.0  0.3796499999999999  0.3231600000000001  0.8917699999999997  1.0000
  O   O33       1.0  0.5106100000000002  0.09913  0.6749799999999998  1.0000
  O   O34       1.0  0.3575100000000001  0.00841  0.6833599999999997  1.0000
  O   O35       1.0  0.8283  0.18703000000000006  0.8869799999999998  1.0000
  O   O36       1.0  0.49472999999999995  0.6380600000000001  0.00622  1.0000
  O   O37       1.0  0.59365  0.6770400000000002  0.10809  1.0000
  O   O38       1.0  0.28403999999999996  0.9003100000000003  0.3256199999999999  1.0000
  O   O39       1.0  0.051079999999999945  0.99203  0.3161399999999999  1.0000
  O   O40       1.0  0.9021000000000003  0.81283  0.11288999999999998  1.0000
