data_image0
_chemical_formula_structural       Zn6H28C60N18O24
_chemical_formula_sum              "Zn6 H28 C60 N18 O24"
_cell_length_a       12.87837
_cell_length_b       12.87597
_cell_length_c       14.692659999999998
_cell_angle_alpha    91.47115000000001
_cell_angle_beta     91.46744999999999
_cell_angle_gamma    89.31994999999999

_symmetry_space_group_name_H-M    'P 1'
_symmetry_Int_Tables_number       1

loop_
  _symmetry_equiv_pos_as_xyz
  'x,y,z'

loop_
  _atom_site_type_symbol
  _atom_site_label
  _atom_site_symmetry_multiplicity
  _atom_site_fract_x
  _atom_site_fract_y
  _atom_site_fract_z
  _atom_site_occupancy
  Zn  Zn1       1.0  0.39398  0.95126  0.22537999999999994  1.0000
  Zn  Zn2       1.0  0.04886  0.6059899999999999  0.27463  1.0000
  Zn  Zn3       1.0  0.60602  0.04872999999999999  0.77462  1.0000
  Zn  Zn4       1.0  0.9511500000000002  0.39400999999999997  0.72537  1.0000
  Zn  Zn5       1.0  0.61647  0.3834499999999999  0.24942999999999996  1.0000
  Zn  Zn6       1.0  0.38354  0.61655  0.7505699999999997  1.0000
  H   H1        1.0  0.64823  0.98549  0.11521999999999998  1.0000
  H   H2        1.0  0.49692999999999987  0.27826  0.055699999999999986  1.0000
  H   H3        1.0  0.6645799999999998  0.9548299999999998  0.947  1.0000
  H   H4        1.0  0.5169  0.23490999999999998  0.8911399999999999  1.0000
  H   H5        1.0  0.54585  0.55502  0.37903  1.0000
  H   H6        1.0  0.41715  0.6986  0.38217  1.0000
  H   H7        1.0  0.45819999999999994  0.16416  0.4853399999999999  1.0000
  H   H8        1.0  0.0145  0.35173  0.38474  1.0000
  H   H9        1.0  0.7218  0.50309  0.44424999999999987  1.0000
  H   H10       1.0  0.04515  0.33541999999999994  0.55297  1.0000
  H   H11       1.0  0.76514  0.48314  0.6088199999999998  1.0000
  H   H12       1.0  0.4448299999999999  0.45406  0.12100999999999998  1.0000
  H   H13       1.0  0.30135  0.58284  0.11788  1.0000
  H   H14       1.0  0.8360099999999999  0.54196  0.014639999999999997  1.0000
  H   H15       1.0  0.35178  0.014509999999999993  0.8847799999999998  1.0000
  H   H16       1.0  0.50308  0.7217399999999998  0.9442999999999998  1.0000
  H   H17       1.0  0.33542999999999995  0.04516999999999999  0.052999999999999985  1.0000
  H   H18       1.0  0.48311  0.7650799999999999  0.10886999999999997  1.0000
  H   H19       1.0  0.45416  0.44497999999999993  0.6209699999999998  1.0000
  H   H20       1.0  0.58285  0.30139  0.61783  1.0000
  H   H21       1.0  0.54181  0.8358399999999998  0.51466  1.0000
  H   H22       1.0  0.9855099999999998  0.64827  0.61526  1.0000
  H   H23       1.0  0.27820999999999996  0.4969099999999999  0.5557499999999997  1.0000
  H   H24       1.0  0.9548499999999999  0.66458  0.44702999999999987  1.0000
  H   H25       1.0  0.23486999999999997  0.51685  0.39118  1.0000
  H   H26       1.0  0.55518  0.54594  0.8789899999999998  1.0000
  H   H27       1.0  0.69865  0.41715999999999986  0.8821199999999998  1.0000
  H   H28       1.0  0.164  0.45804  0.9853599999999998  1.0000
  C   C1        1.0  0.54661  0.1465  0.19652  1.0000
  C   C2        1.0  0.56739  0.13297  0.0993  1.0000
  C   C3        1.0  0.61741  0.04202  0.06754  1.0000
  C   C4        1.0  0.53343  0.20530999999999996  0.03488  1.0000
  C   C5        1.0  0.62658  0.02438999999999999  0.97448  1.0000
  C   C6        1.0  0.54466  0.18144999999999997  0.94282  1.0000
  C   C7        1.0  0.4937799999999999  0.10991  0.33143  1.0000
  C   C8        1.0  0.53352  0.20990999999999999  0.33475  1.0000
  C   C9        1.0  0.54474  0.28657999999999995  0.41103999999999996  1.0000
  C   C10       1.0  0.43916  0.04867999999999999  0.3978  1.0000
  C   C11       1.0  0.18109  0.99845  0.23464999999999994  1.0000
  C   C12       1.0  0.18952  0.88565  0.24581  1.0000
  C   C13       1.0  0.49279999999999996  0.56638  0.32129  1.0000
  C   C14       1.0  0.41878999999999994  0.64589  0.323  1.0000
  C   C15       1.0  0.85351  0.45337999999999995  0.30342  1.0000
  C   C16       1.0  0.86704  0.43259  0.40065  1.0000
  C   C17       1.0  0.95798  0.38257  0.43241  1.0000
  C   C18       1.0  0.7947299999999999  0.46659  0.4650799999999999  1.0000
  C   C19       1.0  0.97561  0.37342  0.52548  1.0000
  C   C20       1.0  0.8186  0.4553799999999999  0.55714  1.0000
  C   C21       1.0  0.8902  0.50628  0.16854999999999998  1.0000
  C   C22       1.0  0.79019  0.46661  0.16519  1.0000
  C   C23       1.0  0.7135499999999999  0.4555  0.08888  1.0000
  C   C24       1.0  0.95148  0.56085  0.1022  1.0000
  C   C25       1.0  0.0015800000000000007  0.8188899999999998  0.26535999999999993  1.0000
  C   C26       1.0  0.11435999999999998  0.81047  0.25422  1.0000
  C   C27       1.0  0.4335  0.50714  0.17874  1.0000
  C   C28       1.0  0.35403999999999997  0.58117  0.17704999999999996  1.0000
  C   C29       1.0  0.4534  0.8535  0.80348  1.0000
  C   C30       1.0  0.4326199999999999  0.8670199999999998  0.9007  1.0000
  C   C31       1.0  0.3825999999999999  0.9579799999999999  0.9324599999999997  1.0000
  C   C32       1.0  0.46657999999999994  0.79469  0.9651199999999998  1.0000
  C   C33       1.0  0.37343  0.9755999999999998  0.02552  1.0000
  C   C34       1.0  0.4553499999999999  0.8185499999999999  0.05717999999999999  1.0000
  C   C35       1.0  0.50623  0.8900799999999998  0.66857  1.0000
  C   C36       1.0  0.46649  0.7900899999999998  0.66525  1.0000
  C   C37       1.0  0.45526  0.7134199999999999  0.58896  1.0000
  C   C38       1.0  0.56084  0.95132  0.6022  1.0000
  C   C39       1.0  0.81892  0.001549999999999996  0.7653499999999998  1.0000
  C   C40       1.0  0.81049  0.11434999999999995  0.7541999999999998  1.0000
  C   C41       1.0  0.50721  0.43361  0.67871  1.0000
  C   C42       1.0  0.58122  0.35411  0.6770099999999998  1.0000
  C   C43       1.0  0.1465  0.54661  0.69658  1.0000
  C   C44       1.0  0.13297  0.56741  0.59935  1.0000
  C   C45       1.0  0.04203  0.61743  0.5675899999999999  1.0000
  C   C46       1.0  0.20527  0.53341  0.53492  1.0000
  C   C47       1.0  0.024399999999999995  0.62657  0.47451999999999994  1.0000
  C   C48       1.0  0.18141  0.5446199999999999  0.44285999999999986  1.0000
  C   C49       1.0  0.10981  0.4937199999999999  0.8314499999999998  1.0000
  C   C50       1.0  0.20982  0.53339  0.83481  1.0000
  C   C51       1.0  0.28646  0.5444999999999999  0.9111199999999998  1.0000
  C   C52       1.0  0.04852999999999998  0.43913999999999986  0.8978099999999998  1.0000
  C   C53       1.0  0.99843  0.1811  0.73465  1.0000
  C   C54       1.0  0.8856499999999999  0.18951999999999994  0.7457799999999999  1.0000
  C   C55       1.0  0.5665  0.4928599999999999  0.8212599999999998  1.0000
  C   C56       1.0  0.64597  0.41881999999999997  0.82295  1.0000
  C   C57       1.0  0.26577  0.73424  0.25003  1.0000
  C   C58       1.0  0.34695999999999994  0.6530199999999998  0.25003  1.0000
  C   C59       1.0  0.73424  0.26575999999999994  0.74998  1.0000
  C   C60       1.0  0.65305  0.34697999999999996  0.74997  1.0000
  N   N1        1.0  0.58824  0.09155999999999999  0.9125699999999998  1.0000
  N   N2        1.0  0.50345  0.06984  0.24455  1.0000
  N   N3        1.0  0.56585  0.23285  0.24926999999999994  1.0000
  N   N4        1.0  0.28475  0.8371399999999999  0.24471  1.0000
  N   N5        1.0  0.90845  0.41179  0.5873999999999999  1.0000
  N   N6        1.0  0.9302099999999998  0.49654  0.25542999999999993  1.0000
  N   N7        1.0  0.76718  0.43421  0.2506399999999999  1.0000
  N   N8        1.0  0.16288  0.7152399999999999  0.25533  1.0000
  N   N9        1.0  0.41177  0.90843  0.08744  1.0000
  N   N10       1.0  0.49656  0.9301499999999998  0.75545  1.0000
  N   N11       1.0  0.43416  0.7671499999999999  0.75074  1.0000
  N   N12       1.0  0.71526  0.16286  0.7552899999999998  1.0000
  N   N13       1.0  0.09154999999999996  0.58821  0.4125999999999999  1.0000
  N   N14       1.0  0.0698  0.50346  0.7445799999999999  1.0000
  N   N15       1.0  0.23283  0.5657899999999999  0.7493699999999998  1.0000
  N   N16       1.0  0.83712  0.28475999999999996  0.7446699999999998  1.0000
  N   N17       1.0  0.50141  0.4985  0.24999  1.0000
  N   N18       1.0  0.4986  0.50149  0.7500099999999997  1.0000
  O   O1        1.0  0.50609  0.26466999999999996  0.48713  1.0000
  O   O2        1.0  0.59231  0.37022999999999995  0.39483999999999997  1.0000
  O   O3        1.0  0.42329  0.08909  0.47887  1.0000
  O   O4        1.0  0.40671  0.96066  0.37313  1.0000
  O   O5        1.0  0.26484  0.04795  0.2179  1.0000
  O   O6        1.0  0.09387  0.04339  0.24091999999999994  1.0000
  O   O7        1.0  0.7353299999999999  0.49431999999999987  0.012869999999999996  1.0000
  O   O8        1.0  0.62988  0.4077899999999999  0.10499  1.0000
  O   O9        1.0  0.91106  0.57674  0.021129999999999993  1.0000
  O   O10       1.0  0.03951  0.5932499999999999  0.12685  1.0000
  O   O11       1.0  0.95209  0.7351299999999998  0.2820899999999999  1.0000
  O   O12       1.0  0.95664  0.9061199999999998  0.25908  1.0000
  O   O13       1.0  0.49392  0.7353199999999998  0.51287  1.0000
  O   O14       1.0  0.4077  0.62977  0.60516  1.0000
  O   O15       1.0  0.57672  0.9108999999999999  0.52114  1.0000
  O   O16       1.0  0.59329  0.03934  0.62687  1.0000
  O   O17       1.0  0.7351699999999999  0.9520499999999997  0.7820999999999998  1.0000
  O   O18       1.0  0.90614  0.9566099999999998  0.75908  1.0000
  O   O19       1.0  0.26467  0.50567  0.9871299999999998  1.0000
  O   O20       1.0  0.37013  0.59221  0.89502  1.0000
  O   O21       1.0  0.08893999999999999  0.42324999999999996  0.9788699999999998  1.0000
  O   O22       1.0  0.9604999999999999  0.40675  0.8731499999999998  1.0000
  O   O23       1.0  0.04791999999999999  0.26487  0.71791  1.0000
  O   O24       1.0  0.04336  0.09388  0.74092  1.0000
