data_image0
_chemical_formula_structural       Cu6H18C60O24
_chemical_formula_sum              "Cu6 H18 C60 O24"
_cell_length_a       17.70565
_cell_length_b       17.70498
_cell_length_c       17.70497
_cell_angle_alpha    62.81603
_cell_angle_beta     62.78955
_cell_angle_gamma    62.789560000000016

_space_group_name_H-M_alt    "P 1"
_space_group_IT_number       1

loop_
  _space_group_symop_operation_xyz
  'x, y, z'

loop_
  _atom_site_type_symbol
  _atom_site_label
  _atom_site_symmetry_multiplicity
  _atom_site_fract_x
  _atom_site_fract_y
  _atom_site_fract_z
  _atom_site_occupancy
  Cu  Cu1       1.0  0.49982  0.06928999999999999  0.49984  1.0000
  Cu  Cu2       1.0  0.06930000000000001  0.49982000000000004  0.49982  1.0000
  Cu  Cu3       1.0  0.49982  0.49984  0.06929  1.0000
  Cu  Cu4       1.0  0.9307  0.50018  0.50018  1.0000
  Cu  Cu5       1.0  0.5001800000000001  0.9307100000000001  0.50016  1.0000
  Cu  Cu6       1.0  0.5001799999999997  0.50016  0.93071  1.0000
  H   H1        1.0  0.52311  0.9904200000000001  0.22521  1.0000
  H   H2        1.0  0.9903900000000001  0.2252600000000001  0.52311  1.0000
  H   H3        1.0  0.22524999999999992  0.52311  0.99038  1.0000
  H   H4        1.0  0.00960999999999994  0.47690000000000005  0.77474  1.0000
  H   H5        1.0  0.7747499999999999  0.009619999999999995  0.47689  1.0000
  H   H6        1.0  0.47688999999999976  0.7747900000000002  0.00958  1.0000
  H   H7        1.0  0.4768899999999999  0.009580000000000009  0.77479  1.0000
  H   H8        1.0  0.009610000000000016  0.77475  0.47689  1.0000
  H   H9        1.0  0.77475  0.47689  0.00962  1.0000
  H   H10       1.0  0.9903900000000001  0.52311  0.22526  1.0000
  H   H11       1.0  0.22524999999999998  0.9903800000000001  0.52311  1.0000
  H   H12       1.0  0.5231099999999999  0.22522  0.99042  1.0000
  H   H13       1.0  0.52849  0.22913000000000003  0.22913  1.0000
  H   H14       1.0  0.22910999999999995  0.22912  0.52849  1.0000
  H   H15       1.0  0.22911000000000006  0.52849  0.22912  1.0000
  H   H16       1.0  0.7708899999999994  0.47151  0.77088  1.0000
  H   H17       1.0  0.7708899999999999  0.7708799999999999  0.47151  1.0000
  H   H18       1.0  0.47150999999999993  0.77087  0.77087  1.0000
  C   C1        1.0  0.5227  0.061939999999999995  0.33242  1.0000
  C   C2        1.0  0.52718  0.10476000000000002  0.2362  1.0000
  C   C3        1.0  0.52505  0.05880000000000002  0.19097  1.0000
  C   C4        1.0  0.06192  0.33244  0.52269  1.0000
  C   C5        1.0  0.10474000000000003  0.23620999999999998  0.52718  1.0000
  C   C6        1.0  0.05878000000000001  0.19099000000000002  0.52505  1.0000
  C   C7        1.0  0.3324299999999999  0.5227  0.06192  1.0000
  C   C8        1.0  0.23619999999999994  0.5271800000000002  0.10474  1.0000
  C   C9        1.0  0.19097999999999998  0.52505  0.05878  1.0000
  C   C10       1.0  0.9380799999999999  0.47731  0.66756  1.0000
  C   C11       1.0  0.8952599999999996  0.4728200000000001  0.76379  1.0000
  C   C12       1.0  0.9412200000000001  0.47495000000000004  0.80901  1.0000
  C   C13       1.0  0.66757  0.9380900000000001  0.4773  1.0000
  C   C14       1.0  0.7638000000000003  0.8952600000000001  0.47282  1.0000
  C   C15       1.0  0.80902  0.94122  0.47495  1.0000
  C   C16       1.0  0.4773  0.66758  0.93806  1.0000
  C   C17       1.0  0.4728199999999999  0.7638  0.89524  1.0000
  C   C18       1.0  0.4749500000000001  0.8090399999999999  0.9411999999999999  1.0000
  C   C19       1.0  0.47730000000000006  0.93806  0.66758  1.0000
  C   C20       1.0  0.4728199999999999  0.89524  0.7638  1.0000
  C   C21       1.0  0.4749499999999999  0.9412  0.80903  1.0000
  C   C22       1.0  0.9380799999999999  0.66756  0.47731  1.0000
  C   C23       1.0  0.8952600000000001  0.76379  0.47282  1.0000
  C   C24       1.0  0.9412200000000001  0.80902  0.47495  1.0000
  C   C25       1.0  0.66756  0.47729999999999995  0.93809  1.0000
  C   C26       1.0  0.7638  0.4728200000000001  0.89526  1.0000
  C   C27       1.0  0.8090200000000003  0.47495  0.94122  1.0000
  C   C28       1.0  0.061919999999999975  0.52269  0.33244  1.0000
  C   C29       1.0  0.10473999999999994  0.5271800000000002  0.23621  1.0000
  C   C30       1.0  0.05878000000000001  0.52505  0.19099  1.0000
  C   C31       1.0  0.33243  0.06191999999999999  0.5227  1.0000
  C   C32       1.0  0.23619999999999988  0.10474000000000001  0.52718  1.0000
  C   C33       1.0  0.19097999999999996  0.05878000000000002  0.52505  1.0000
  C   C34       1.0  0.5227  0.33242  0.06194  1.0000
  C   C35       1.0  0.52718  0.23620000000000008  0.10476  1.0000
  C   C36       1.0  0.52505  0.19096999999999997  0.0588  1.0000
  C   C37       1.0  0.52833  0.19326  0.19326  1.0000
  C   C38       1.0  0.52322  0.10184  0.10184  1.0000
  C   C39       1.0  0.51582  0.05754  0.05754  1.0000
  C   C40       1.0  0.50565  0.02036  0.02036  1.0000
  C   C41       1.0  0.19324999999999998  0.19326000000000002  0.52833  1.0000
  C   C42       1.0  0.10183999999999997  0.10184000000000003  0.52322  1.0000
  C   C43       1.0  0.057540000000000036  0.05753  0.51582  1.0000
  C   C44       1.0  0.02035999999999999  0.020360000000000007  0.50565  1.0000
  C   C45       1.0  0.1932499999999999  0.5283300000000002  0.19326  1.0000
  C   C46       1.0  0.10183999999999997  0.52322  0.10184  1.0000
  C   C47       1.0  0.05753999999999997  0.51582  0.05753  1.0000
  C   C48       1.0  0.02036000000000001  0.50565  0.02036  1.0000
  C   C49       1.0  0.80675  0.4716699999999999  0.80674  1.0000
  C   C50       1.0  0.8981599999999998  0.4767800000000002  0.89816  1.0000
  C   C51       1.0  0.9424599999999997  0.48418000000000017  0.94247  1.0000
  C   C52       1.0  0.9796399999999998  0.4943500000000002  0.97964  1.0000
  C   C53       1.0  0.8067500000000001  0.80674  0.47167  1.0000
  C   C54       1.0  0.8981599999999997  0.8981600000000001  0.47678  1.0000
  C   C55       1.0  0.94246  0.94247  0.48418  1.0000
  C   C56       1.0  0.9796399999999998  0.9796400000000001  0.49435  1.0000
  C   C57       1.0  0.47167000000000014  0.8067400000000001  0.80674  1.0000
  C   C58       1.0  0.47676999999999997  0.8981599999999998  0.89816  1.0000
  C   C59       1.0  0.48417000000000004  0.9424699999999999  0.94246  1.0000
  C   C60       1.0  0.49435  0.9796400000000001  0.97964  1.0000
  O   O1        1.0  0.5196400000000001  0.98166  0.37002  1.0000
  O   O2        1.0  0.52046  0.11019  0.37009  1.0000
  O   O3        1.0  0.98163  0.37007  0.51962  1.0000
  O   O4        1.0  0.11017999999999999  0.37008  0.52044  1.0000
  O   O5        1.0  0.37005999999999994  0.51964  0.98162  1.0000
  O   O6        1.0  0.37007  0.52046  0.11017  1.0000
  O   O7        1.0  0.018370000000000025  0.48038  0.62993  1.0000
  O   O8        1.0  0.88982  0.47956  0.62992  1.0000
  O   O9        1.0  0.62994  0.018379999999999994  0.48037  1.0000
  O   O10       1.0  0.6299300000000001  0.88983  0.47954  1.0000
  O   O11       1.0  0.48036  0.62998  0.01834  1.0000
  O   O12       1.0  0.4795399999999999  0.62992  0.88981  1.0000
  O   O13       1.0  0.4803600000000001  0.018340000000000006  0.62998  1.0000
  O   O14       1.0  0.47954000000000013  0.8898099999999999  0.62991  1.0000
  O   O15       1.0  0.018369999999999977  0.62994  0.48038  1.0000
  O   O16       1.0  0.8898200000000002  0.62992  0.47956  1.0000
  O   O17       1.0  0.6299399999999999  0.48037000000000013  0.01838  1.0000
  O   O18       1.0  0.6299299999999999  0.4795400000000001  0.88983  1.0000
  O   O19       1.0  0.98163  0.51962  0.37007  1.0000
  O   O20       1.0  0.11017999999999988  0.5204400000000002  0.37008  1.0000
  O   O21       1.0  0.3700599999999999  0.9816200000000002  0.51963  1.0000
  O   O22       1.0  0.37006999999999995  0.11017  0.52046  1.0000
  O   O23       1.0  0.5196399999999999  0.37001999999999996  0.98166  1.0000
  O   O24       1.0  0.52046  0.37009  0.11019  1.0000
