data_image0
_chemical_formula_structural       Zn4H48C60N4O20
_chemical_formula_sum              "Zn4 H48 C60 N4 O20"
_cell_length_a       10.38673
_cell_length_b       12.540739999999998
_cell_length_c       12.541020000000001
_cell_angle_alpha    73.64047
_cell_angle_beta     87.00527
_cell_angle_gamma    87.00565999999999

_symmetry_space_group_name_H-M    'P 1'
_symmetry_Int_Tables_number       1

loop_
  _symmetry_equiv_pos_as_xyz
  'x,y,z'

loop_
  _atom_site_type_symbol
  _atom_site_label
  _atom_site_symmetry_multiplicity
  _atom_site_fract_x
  _atom_site_fract_y
  _atom_site_fract_z
  _atom_site_occupancy
  Zn  Zn1       1.0  0.09999000000000001  0.4218299999999998  0.97961  1.0000
  Zn  Zn2       1.0  0.40001  0.020390000000000005  0.57817  1.0000
  Zn  Zn3       1.0  0.9000099999999999  0.57817  0.02039  1.0000
  Zn  Zn4       1.0  0.5999899999999999  0.9796100000000001  0.4218299999999999  1.0000
  H   H1        1.0  0.22997  0.6025  0.6473  1.0000
  H   H2        1.0  0.27432  0.7344500000000002  0.4627199999999999  1.0000
  H   H3        1.0  0.91894  0.91834  0.4989899999999999  1.0000
  H   H4        1.0  0.8791  0.78751  0.68591  1.0000
  H   H5        1.0  0.2609  0.83556  0.28884  1.0000
  H   H6        1.0  0.21855999999999998  0.97829  0.22725  1.0000
  H   H7        1.0  0.25535  0.34017999999999987  0.80858  1.0000
  H   H8        1.0  0.42515000000000003  0.18874000000000007  0.8095299999999999  1.0000
  H   H9        1.0  0.45028  0.14129999999999998  0.1627  1.0000
  H   H10       1.0  0.27947  0.29319  0.14707  1.0000
  H   H11       1.0  0.59985  0.06631000000000005  0.9164099999999998  1.0000
  H   H12       1.0  0.60225  0.03895999999999999  0.06372  1.0000
  H   H13       1.0  0.27003  0.3527  0.3975  1.0000
  H   H14       1.0  0.22568  0.53729  0.26555  1.0000
  H   H15       1.0  0.58106  0.50101  0.08165999999999998  1.0000
  H   H16       1.0  0.62091  0.3140899999999999  0.21249  1.0000
  H   H17       1.0  0.23910000000000003  0.71117  0.16444  1.0000
  H   H18       1.0  0.28144  0.7727599999999999  0.02171  1.0000
  H   H19       1.0  0.24465999999999996  0.19141999999999998  0.65982  1.0000
  H   H20       1.0  0.07485999999999998  0.19048000000000004  0.81126  1.0000
  H   H21       1.0  0.04972000000000001  0.8372999999999999  0.8587  1.0000
  H   H22       1.0  0.22052999999999998  0.85293  0.7068099999999999  1.0000
  H   H23       1.0  0.9001599999999998  0.08357999999999997  0.93369  1.0000
  H   H24       1.0  0.89776  0.93628  0.96103  1.0000
  H   H25       1.0  0.77003  0.39751  0.3527  1.0000
  H   H26       1.0  0.72569  0.2655599999999999  0.53728  1.0000
  H   H27       1.0  0.08106999999999999  0.08165999999999998  0.501  1.0000
  H   H28       1.0  0.12091  0.21249  0.31409  1.0000
  H   H29       1.0  0.7391100000000002  0.16444  0.7111599999999999  1.0000
  H   H30       1.0  0.78145  0.021710000000000042  0.7727499999999999  1.0000
  H   H31       1.0  0.7446600000000001  0.65982  0.19141  1.0000
  H   H32       1.0  0.57485  0.8112599999999999  0.19046999999999997  1.0000
  H   H33       1.0  0.54972  0.8587099999999999  0.8373  1.0000
  H   H34       1.0  0.7205399999999997  0.7068100000000002  0.8529199999999999  1.0000
  H   H35       1.0  0.40015  0.93369  0.08358  1.0000
  H   H36       1.0  0.39775999999999995  0.96104  0.9362799999999998  1.0000
  H   H37       1.0  0.72998  0.6473099999999998  0.6025  1.0000
  H   H38       1.0  0.77432  0.4627200000000001  0.73444  1.0000
  H   H39       1.0  0.41894999999999993  0.49899  0.91834  1.0000
  H   H40       1.0  0.3791  0.68591  0.78751  1.0000
  H   H41       1.0  0.7609099999999999  0.28883000000000003  0.8355599999999999  1.0000
  H   H42       1.0  0.71856  0.22725  0.97829  1.0000
  H   H43       1.0  0.7553500000000001  0.8085799999999999  0.34018  1.0000
  H   H44       1.0  0.9251499999999999  0.8095299999999997  0.18874  1.0000
  H   H45       1.0  0.95028  0.16269999999999996  0.14129  1.0000
  H   H46       1.0  0.7794699999999999  0.14708  0.29319  1.0000
  H   H47       1.0  0.09985000000000001  0.9164199999999998  0.06631  1.0000
  H   H48       1.0  0.10224999999999998  0.06372  0.03896  1.0000
  C   C1        1.0  0.03055000000000001  0.61037  0.7924999999999999  1.0000
  C   C2        1.0  0.05109000000000001  0.68513  0.6782099999999998  1.0000
  C   C3        1.0  0.16133  0.67077  0.61346  1.0000
  C   C4        1.0  0.18552  0.7448299999999998  0.50902  1.0000
  C   C5        1.0  0.09692000000000003  0.83342  0.4672899999999999  1.0000
  C   C6        1.0  0.98538  0.84793  0.53077  1.0000
  C   C7        1.0  0.96376  0.7748700000000001  0.63549  1.0000
  C   C8        1.0  0.23209  0.91465  0.30683  1.0000
  C   C9        1.0  0.34029000000000004  0.9495799999999998  0.36714  1.0000
  C   C10       1.0  0.30011  0.2920799999999999  0.8848  1.0000
  C   C11       1.0  0.39393999999999996  0.20894  0.88611  1.0000
  C   C12       1.0  0.44771  0.15053000000000002  0.9871899999999999  1.0000
  C   C13       1.0  0.40829  0.18193999999999994  0.08277  1.0000
  C   C14       1.0  0.31384  0.26611999999999997  0.0751  1.0000
  C   C15       1.0  0.5391  0.05276999999999998  0.99306  1.0000
  C   C16       1.0  0.46946000000000004  0.2075  0.38961999999999997  1.0000
  C   C17       1.0  0.44892  0.32178999999999996  0.31487  1.0000
  C   C18       1.0  0.33867  0.3865399999999999  0.32922999999999997  1.0000
  C   C19       1.0  0.31448000000000004  0.49098999999999987  0.25517  1.0000
  C   C20       1.0  0.40308000000000005  0.53271  0.16658  1.0000
  C   C21       1.0  0.51462  0.46923  0.15207  1.0000
  C   C22       1.0  0.53625  0.36451  0.22512999999999997  1.0000
  C   C23       1.0  0.26791  0.69317  0.08535  1.0000
  C   C24       1.0  0.15971  0.6328599999999998  0.05042  1.0000
  C   C25       1.0  0.19990000000000002  0.11519999999999997  0.70792  1.0000
  C   C26       1.0  0.10607000000000003  0.11388999999999998  0.79106  1.0000
  C   C27       1.0  0.05229000000000001  0.012810000000000077  0.8494699999999997  1.0000
  C   C28       1.0  0.09171000000000004  0.9172299999999998  0.81806  1.0000
  C   C29       1.0  0.18616  0.9249  0.73388  1.0000
  C   C30       1.0  0.9609099999999999  0.006929999999999972  0.94723  1.0000
  C   C31       1.0  0.96948  0.38962  0.20749999999999996  1.0000
  C   C32       1.0  0.94892  0.31486999999999987  0.32179  1.0000
  C   C33       1.0  0.8386800000000001  0.3292299999999999  0.38654  1.0000
  C   C34       1.0  0.8144799999999999  0.25517  0.49097999999999997  1.0000
  C   C35       1.0  0.9030900000000001  0.16657999999999998  0.53271  1.0000
  C   C36       1.0  0.014619999999999992  0.15207  0.46923  1.0000
  C   C37       1.0  0.03624999999999999  0.22513000000000002  0.36451  1.0000
  C   C38       1.0  0.76792  0.08534999999999994  0.69316  1.0000
  C   C39       1.0  0.6597  0.05042999999999998  0.63287  1.0000
  C   C40       1.0  0.6999  0.70792  0.11519  1.0000
  C   C41       1.0  0.60606  0.7910599999999998  0.11387999999999998  1.0000
  C   C42       1.0  0.5522900000000001  0.84948  0.01281  1.0000
  C   C43       1.0  0.59171  0.8180599999999999  0.9172299999999999  1.0000
  C   C44       1.0  0.68616  0.73388  0.9249  1.0000
  C   C45       1.0  0.4609  0.9472399999999997  0.00693  1.0000
  C   C46       1.0  0.5305399999999999  0.7924999999999998  0.61038  1.0000
  C   C47       1.0  0.55109  0.67821  0.68513  1.0000
  C   C48       1.0  0.66133  0.6134600000000001  0.6707699999999999  1.0000
  C   C49       1.0  0.6855300000000001  0.5090199999999999  0.74483  1.0000
  C   C50       1.0  0.59692  0.4672899999999999  0.8334199999999998  1.0000
  C   C51       1.0  0.48538999999999993  0.53077  0.8479199999999999  1.0000
  C   C52       1.0  0.46376  0.6354899999999999  0.7748599999999999  1.0000
  C   C53       1.0  0.7320999999999999  0.30683  0.91465  1.0000
  C   C54       1.0  0.84032  0.36711999999999995  0.9495699999999999  1.0000
  C   C55       1.0  0.80011  0.8848099999999999  0.29208  1.0000
  C   C56       1.0  0.89394  0.8861199999999998  0.20894  1.0000
  C   C57       1.0  0.94771  0.98719  0.15052  1.0000
  C   C58       1.0  0.90829  0.08276999999999997  0.18194  1.0000
  C   C59       1.0  0.8138499999999999  0.0751  0.26612  1.0000
  C   C60       1.0  0.0391  0.99307  0.05276  1.0000
  N   N1        1.0  0.25814  0.31846  0.97831  1.0000
  N   N2        1.0  0.24186999999999997  0.021690000000000067  0.6815399999999998  1.0000
  N   N3        1.0  0.7418699999999998  0.6815499999999999  0.021689999999999994  1.0000
  N   N4        1.0  0.75813  0.97831  0.31845  1.0000
  O   O1        1.0  0.09692000000000003  0.51865  0.8197199999999999  1.0000
  O   O2        1.0  0.9483999999999999  0.6449500000000001  0.85639  1.0000
  O   O3        1.0  0.10997000000000003  0.91003  0.36505999999999994  1.0000
  O   O4        1.0  0.45412  0.9409499999999998  0.32687  1.0000
  O   O5        1.0  0.30546  0.98424  0.44981999999999994  1.0000
  O   O6        1.0  0.40308000000000005  0.18028  0.48135  1.0000
  O   O7        1.0  0.5516  0.14361  0.35505  1.0000
  O   O8        1.0  0.39003  0.6349499999999998  0.08997999999999999  1.0000
  O   O9        1.0  0.04588  0.67313  0.059059999999999994  1.0000
  O   O10       1.0  0.19454  0.55018  0.01576  1.0000
  O   O11       1.0  0.90308  0.48136  0.18027999999999997  1.0000
  O   O12       1.0  0.05160000000000002  0.3550599999999999  0.14361  1.0000
  O   O13       1.0  0.8900399999999999  0.08998  0.63494  1.0000
  O   O14       1.0  0.54589  0.05905999999999996  0.6731199999999999  1.0000
  O   O15       1.0  0.69455  0.01576000000000001  0.55016  1.0000
  O   O16       1.0  0.59693  0.81972  0.51864  1.0000
  O   O17       1.0  0.44841  0.85639  0.64494  1.0000
  O   O18       1.0  0.60997  0.36505999999999994  0.9100199999999999  1.0000
  O   O19       1.0  0.95411  0.32688  0.94094  1.0000
  O   O20       1.0  0.8054600000000001  0.44983999999999985  0.98424  1.0000
