data_image0
_chemical_formula_structural       Cu6H32C48N52
_chemical_formula_sum              "Cu6 H32 C48 N52"
_cell_length_a       13.24163
_cell_length_b       14.78847
_cell_length_c       15.66841
_cell_angle_alpha    90.01264
_cell_angle_beta     91.73060999999998
_cell_angle_gamma    90.01082

_space_group_name_H-M_alt    "P 1"
_space_group_IT_number       1

loop_
  _space_group_symop_operation_xyz
  'x, y, z'

loop_
  _atom_site_type_symbol
  _atom_site_label
  _atom_site_symmetry_multiplicity
  _atom_site_fract_x
  _atom_site_fract_y
  _atom_site_fract_z
  _atom_site_occupancy
  Cu  Cu1       1.0  0.97086  0.69704  0.10682  1.0000
  Cu  Cu2       1.0  0.00027000000000000006  0.50062  0.00023000000000000006  1.0000
  Cu  Cu3       1.0  0.52854  0.19736  0.39344  1.0000
  Cu  Cu4       1.0  0.029080000000000005  0.30326  0.8932300000000002  1.0000
  Cu  Cu5       1.0  0.4715  0.8026699999999998  0.60649  1.0000
  Cu  Cu6       1.0  0.4999800000000001  7.999999999999999e-05  0.5  1.0000
  H   H1        1.0  0.57148  0.62867  0.65824  1.0000
  H   H2        1.0  0.74763  0.30021  0.1531  1.0000
  H   H3        1.0  0.6495000000000002  0.36873  0.4463  1.0000
  H   H4        1.0  0.28455  0.14818  0.14004  1.0000
  H   H5        1.0  0.79293  0.07836  0.73698  1.0000
  H   H6        1.0  0.26054000000000005  0.021789999999999993  0.87199  1.0000
  H   H7        1.0  0.7063600000000002  0.5784899999999998  0.76368  1.0000
  H   H8        1.0  0.29363000000000006  0.42156  0.23633  1.0000
  H   H9        1.0  0.8512  0.8684799999999998  0.0542  1.0000
  H   H10       1.0  0.23879000000000003  0.52177  0.62791  1.0000
  H   H11       1.0  0.08723000000000002  0.60714  0.24551  1.0000
  H   H12       1.0  0.78317  0.35165  0.64045  1.0000
  H   H13       1.0  0.9278700000000002  0.12885  0.84203  1.0000
  H   H14       1.0  0.4285100000000001  0.37135  0.34174  1.0000
  H   H15       1.0  0.7524700000000002  0.8010199999999998  0.34742  1.0000
  H   H16       1.0  0.7612800000000001  0.47825  0.37203  1.0000
  H   H17       1.0  0.6333400000000001  0.20001  0.23496  1.0000
  H   H18       1.0  0.35057000000000016  0.6312799999999998  0.55362  1.0000
  H   H19       1.0  0.20713  0.92169  0.26304  1.0000
  H   H20       1.0  0.71537  0.8519  0.85992  1.0000
  H   H21       1.0  0.4139000000000001  0.10723999999999997  0.25455  1.0000
  H   H22       1.0  0.7394000000000002  0.97827  0.12804  1.0000
  H   H23       1.0  0.13319  0.29962  0.73403  1.0000
  H   H24       1.0  0.07212000000000002  0.87124  0.15803  1.0000
  H   H25       1.0  0.25245  0.69983  0.84681  1.0000
  H   H26       1.0  0.24748000000000006  0.19902  0.65261  1.0000
  H   H27       1.0  0.9127200000000002  0.39294  0.75453  1.0000
  H   H28       1.0  0.21686000000000005  0.64838  0.35954  1.0000
  H   H29       1.0  0.36672  0.80003  0.76495  1.0000
  H   H30       1.0  0.5860400000000001  0.89281  0.7453900000000002  1.0000
  H   H31       1.0  0.8668000000000002  0.7004399999999998  0.266  1.0000
  H   H32       1.0  0.14878  0.13159  0.94583  1.0000
  C   C1        1.0  0.7219900000000002  0.71164  0.8202000000000003  1.0000
  C   C2        1.0  0.8852600000000002  0.32391999999999993  0.74683  1.0000
  C   C3        1.0  0.2228  0.7886999999999997  0.3199300000000001  1.0000
  C   C4        1.0  0.32889000000000007  0.64243  0.61922  1.0000
  C   C5        1.0  0.66297  0.26236  0.26273  1.0000
  C   C6        1.0  0.2643400000000001  0.10249  0.75618  1.0000
  C   C7        1.0  0.7772300000000001  0.21134  0.68008  1.0000
  C   C8        1.0  0.67118  0.35758  0.38071  1.0000
  C   C9        1.0  0.23542  0.60278  0.74359  1.0000
  C   C10       1.0  0.3371000000000001  0.7376799999999998  0.73718  1.0000
  C   C11       1.0  0.10735000000000001  0.8239099999999998  0.20296  1.0000
  C   C12       1.0  0.3189  0.35164  0.23825  1.0000
  C   C13       1.0  0.79767  0.6837499999999999  0.8843100000000003  1.0000
  C   C14       1.0  0.16858  0.5449799999999999  0.79189  1.0000
  C   C15       1.0  0.23431  0.08273  0.83937  1.0000
  C   C16       1.0  0.17070000000000002  0.14259999999999995  0.88029  1.0000
  C   C17       1.0  0.3134400000000001  0.19895  0.18469  1.0000
  C   C18       1.0  0.73562  0.89755  0.24384  1.0000
  C   C19       1.0  0.77282  0.8179699999999998  0.28249  1.0000
  C   C20       1.0  0.22714000000000006  0.18207  0.71754  1.0000
  C   C21       1.0  0.6069  0.67607  0.70302  1.0000
  C   C22       1.0  0.18177000000000004  0.85175  0.26142000000000004  1.0000
  C   C23       1.0  0.18753000000000006  0.6991199999999997  0.31508  1.0000
  C   C24       1.0  0.8124800000000002  0.30092  0.68493  1.0000
  C   C25       1.0  0.33143  0.04462  0.70817  1.0000
  C   C26       1.0  0.20226  0.31641  0.11572  1.0000
  C   C27       1.0  0.76465  0.39726  0.25633  1.0000
  C   C28       1.0  0.7348700000000001  0.41723  0.33957  1.0000
  C   C29       1.0  0.61395  0.82395  0.75313  1.0000
  C   C30       1.0  0.7016700000000002  0.18328  0.61596  1.0000
  C   C31       1.0  0.38600000000000007  0.17611  0.24682  1.0000
  C   C32       1.0  0.83717  0.76262  0.23795  1.0000
  C   C33       1.0  0.68649  0.80113  0.81527  1.0000
  C   C34       1.0  0.83146  0.45517  0.20811  1.0000
  C   C35       1.0  0.3930900000000001  0.32397  0.29695  1.0000
  C   C36       1.0  0.7656400000000002  0.91733  0.16066  1.0000
  C   C37       1.0  0.16281  0.23744  0.76208  1.0000
  C   C38       1.0  0.7273900000000002  0.31749  0.21799  1.0000
  C   C39       1.0  0.11471000000000003  0.67615  0.25321  1.0000
  C   C40       1.0  0.82927  0.8574799999999998  0.11974  1.0000
  C   C41       1.0  0.2726900000000001  0.68254  0.78192  1.0000
  C   C42       1.0  0.2652  0.58278  0.6603700000000002  1.0000
  C   C43       1.0  0.27795000000000003  0.28844  0.17979  1.0000
  C   C44       1.0  0.6685400000000002  0.95542  0.29184000000000004  1.0000
  C   C45       1.0  0.8182600000000001  0.14831  0.73861  1.0000
  C   C46       1.0  0.89264  0.17618  0.7971  1.0000
  C   C47       1.0  0.29836  0.81675  0.38403  1.0000
  C   C48       1.0  0.68108  0.64842  0.76175  1.0000
  N   N1        1.0  0.42629  0.23780999999999994  0.30158  1.0000
  N   N2        1.0  0.3426500000000001  0.16473  0.46724  1.0000
  N   N3        1.0  0.7726400000000001  0.29656  0.99081  1.0000
  N   N4        1.0  0.4147000000000001  0.12264  0.44087  1.0000
  N   N5        1.0  0.22755  0.70358  0.00927  1.0000
  N   N6        1.0  0.64531  0.042959999999999984  0.27472  1.0000
  N   N7        1.0  0.65736  0.83531  0.53275  1.0000
  N   N8        1.0  0.3651  0.71863  0.6568000000000003  1.0000
  N   N9        1.0  0.37531  0.07415  0.63657  1.0000
  N   N10       1.0  0.8395400000000002  0.60016  0.88622  1.0000
  N   N11       1.0  0.08688  0.43239  0.83862  1.0000
  N   N12       1.0  0.66676  0.23565999999999995  0.55063  1.0000
  N   N13       1.0  0.10261  0.31768  0.0078  1.0000
  N   N14       1.0  0.9150900000000001  0.3782  0.94002  1.0000
  N   N15       1.0  0.3978  0.81787  0.49207  1.0000
  N   N16       1.0  0.07475  0.5035  0.89068  1.0000
  N   N17       1.0  0.13483  0.2188  0.84256  1.0000
  N   N18       1.0  0.08496  0.6221799999999997  0.06008  1.0000
  N   N19       1.0  0.60225  0.18218999999999996  0.50791  1.0000
  N   N20       1.0  0.27181000000000005  0.20365  0.4915500000000001  1.0000
  N   N21       1.0  0.4256  0.00304  0.6096400000000001  1.0000
  N   N22       1.0  0.41372000000000003  0.93211  0.66188  1.0000
  N   N23       1.0  0.6600000000000003  0.09962  0.61392  1.0000
  N   N24       1.0  0.5743700000000003  0.99703  0.39037  1.0000
  N   N25       1.0  0.5737  0.76222  0.69837  1.0000
  N   N26       1.0  0.9130900000000002  0.56795  0.16169  1.0000
  N   N27       1.0  0.9012600000000002  0.60151  0.95404  1.0000
  N   N28       1.0  0.35467  0.95708  0.72527  1.0000
  N   N29       1.0  0.58533  0.87742  0.55911  1.0000
  N   N30       1.0  0.87552  0.42567  0.13657  1.0000
  N   N31       1.0  0.09877  0.39886  0.04605  1.0000
  N   N32       1.0  0.85418  0.54285  0.22509000000000007  1.0000
  N   N33       1.0  0.15687  0.66446  0.03365  1.0000
  N   N34       1.0  0.5983500000000003  0.10096  0.54604  1.0000
  N   N35       1.0  0.12468000000000003  0.57468  0.86343  1.0000
  N   N36       1.0  0.40167  0.8991  0.45395  1.0000
  N   N37       1.0  0.9260200000000002  0.26234  0.80145  1.0000
  N   N38       1.0  0.16722  0.26414  0.05034  1.0000
  N   N39       1.0  0.16054  0.40006999999999987  0.11384  1.0000
  N   N40       1.0  0.9254  0.49698  0.10952  1.0000
  N   N41       1.0  0.34  0.90043  0.38608  1.0000
  N   N42       1.0  0.7281800000000003  0.79637  0.50843  1.0000
  N   N43       1.0  0.83257  0.73611  0.94967  1.0000
  N   N44       1.0  0.8972600000000002  0.68269  0.99225  1.0000
  N   N45       1.0  0.63495  0.28139  0.34311  1.0000
  N   N46       1.0  0.8651400000000002  0.7812999999999998  0.1575  1.0000
  N   N47       1.0  0.07394  0.73777  0.19863  1.0000
  N   N48       1.0  0.14571  0.45729  0.77509  1.0000
  N   N49       1.0  0.3333  0.76438  0.44935  1.0000
  N   N50       1.0  0.58627  0.06795  0.33811  1.0000
  N   N51       1.0  0.8432500000000003  0.3358  0.96641  1.0000
  N   N52       1.0  0.62466  0.92591  0.36345  1.0000
