data_image0
_chemical_formula_structural       Li8H32C48N8O16
_chemical_formula_sum              "Li8 H32 C48 N8 O16"
_cell_length_a       9.50172
_cell_length_b       10.93812
_cell_length_c       14.85666
_cell_angle_alpha    96.00710000000001
_cell_angle_beta     90.0
_cell_angle_gamma    90.0

_space_group_name_H-M_alt    "P 1"
_space_group_IT_number       1

loop_
  _space_group_symop_operation_xyz
  'x, y, z'

loop_
  _atom_site_type_symbol
  _atom_site_label
  _atom_site_symmetry_multiplicity
  _atom_site_fract_x
  _atom_site_fract_y
  _atom_site_fract_z
  _atom_site_occupancy
  Li  Li1       1.0  0.9748699999999999  0.91174  0.56048  1.0000
  Li  Li2       1.0  0.01984  0.59456  0.44388  1.0000
  Li  Li3       1.0  0.47487  0.08826000000000003  0.93953  1.0000
  Li  Li4       1.0  0.51984  0.40544  0.05612  1.0000
  Li  Li5       1.0  0.02513  0.08825999999999999  0.43952  1.0000
  Li  Li6       1.0  0.98016  0.40544  0.55613  1.0000
  Li  Li7       1.0  0.52513  0.91174  0.06048  1.0000
  Li  Li8       1.0  0.48016  0.5945499999999999  0.94388  1.0000
  H   H1        1.0  0.66443  0.79307  0.88461  1.0000
  H   H2        1.0  0.58361  0.43451  0.78014  1.0000
  H   H3        1.0  0.80096  0.8337300000000001  0.7455  1.0000
  H   H4        1.0  0.72656  0.45636  0.64124  1.0000
  H   H5        1.0  0.47756  0.05417000000000001  0.25001  1.0000
  H   H6        1.0  0.29504  0.75261  0.10342  1.0000
  H   H7        1.0  0.15861  0.69996  0.23934000000000005  1.0000
  H   H8        1.0  0.33655  0.02346  0.38819  1.0000
  H   H9        1.0  0.16443  0.20693  0.6154000000000001  1.0000
  H   H10       1.0  0.08361  0.56549  0.71987  1.0000
  H   H11       1.0  0.30096  0.16627000000000003  0.7545000000000001  1.0000
  H   H12       1.0  0.22655  0.54363  0.85876  1.0000
  H   H13       1.0  0.9775599999999999  0.94582  0.24999000000000005  1.0000
  H   H14       1.0  0.79504  0.24739  0.39658  1.0000
  H   H15       1.0  0.65861  0.3000399999999999  0.26066  1.0000
  H   H16       1.0  0.83655  0.9765300000000001  0.11182000000000003  1.0000
  H   H17       1.0  0.33557  0.20693  0.1154  1.0000
  H   H18       1.0  0.41639  0.56549  0.21987000000000007  1.0000
  H   H19       1.0  0.19904  0.16627  0.2545  1.0000
  H   H20       1.0  0.27345  0.5436300000000001  0.35876000000000013  1.0000
  H   H21       1.0  0.52244  0.94582  0.74999  1.0000
  H   H22       1.0  0.70496  0.24739  0.89659  1.0000
  H   H23       1.0  0.84139  0.30004000000000003  0.7606600000000002  1.0000
  H   H24       1.0  0.66345  0.9765300000000001  0.61182  1.0000
  H   H25       1.0  0.83557  0.79307  0.38461  1.0000
  H   H26       1.0  0.9163900000000001  0.43451  0.28014  1.0000
  H   H27       1.0  0.69905  0.8337300000000001  0.24550000000000005  1.0000
  H   H28       1.0  0.77345  0.45636  0.14124  1.0000
  H   H29       1.0  0.02244  0.05417000000000003  0.75001  1.0000
  H   H30       1.0  0.20496  0.75261  0.60342  1.0000
  H   H31       1.0  0.34139  0.69996  0.73935  1.0000
  H   H32       1.0  0.16345  0.023459999999999998  0.88819  1.0000
  C   C1        1.0  0.67903  0.72171  0.8284200000000002  1.0000
  C   C2        1.0  0.63476  0.52125  0.77048  1.0000
  C   C3        1.0  0.75566  0.7437800000000001  0.75184  1.0000
  C   C4        1.0  0.71313  0.53401  0.69273  1.0000
  C   C5        1.0  0.77353  0.64833  0.6822500000000001  1.0000
  C   C6        1.0  0.8556  0.66926  0.59824  1.0000
  C   C7        1.0  0.40428  0.9775600000000001  0.24988  1.0000
  C   C8        1.0  0.30302  0.80873  0.16842  1.0000
  C   C9        1.0  0.22682  0.7802899999999999  0.24365000000000006  1.0000
  C   C10       1.0  0.23836  0.85707  0.32498  1.0000
  C   C11       1.0  0.32766  0.95916  0.3273600000000001  1.0000
  C   C12       1.0  0.15523  0.83033  0.4072600000000001  1.0000
  C   C13       1.0  0.17903  0.27828  0.67159  1.0000
  C   C14       1.0  0.13476  0.47874  0.72953  1.0000
  C   C15       1.0  0.25566  0.25622000000000006  0.7481700000000002  1.0000
  C   C16       1.0  0.21313  0.46599  0.80728  1.0000
  C   C17       1.0  0.27352  0.35167  0.81776  1.0000
  C   C18       1.0  0.3556  0.33074  0.90176  1.0000
  C   C19       1.0  0.9042800000000001  0.02244  0.25012  1.0000
  C   C20       1.0  0.80302  0.19126000000000004  0.33158  1.0000
  C   C21       1.0  0.72682  0.21969999999999998  0.25635  1.0000
  C   C22       1.0  0.73836  0.14293  0.17502  1.0000
  C   C23       1.0  0.82766  0.04084000000000001  0.17264000000000002  1.0000
  C   C24       1.0  0.65523  0.16967  0.09275  1.0000
  C   C25       1.0  0.32098  0.27828  0.17159  1.0000
  C   C26       1.0  0.36525  0.47874  0.22952  1.0000
  C   C27       1.0  0.24434  0.25622  0.24817000000000006  1.0000
  C   C28       1.0  0.28687  0.46599  0.30728  1.0000
  C   C29       1.0  0.22648  0.35167  0.31776  1.0000
  C   C30       1.0  0.1444  0.33074  0.40176  1.0000
  C   C31       1.0  0.59572  0.022440000000000005  0.75012  1.0000
  C   C32       1.0  0.69699  0.19126000000000004  0.83158  1.0000
  C   C33       1.0  0.77318  0.21970000000000003  0.75635  1.0000
  C   C34       1.0  0.76164  0.14293  0.67502  1.0000
  C   C35       1.0  0.67234  0.04084  0.67264  1.0000
  C   C36       1.0  0.84477  0.16967000000000004  0.5927500000000002  1.0000
  C   C37       1.0  0.82098  0.72171  0.32842  1.0000
  C   C38       1.0  0.8652499999999999  0.52125  0.27048  1.0000
  C   C39       1.0  0.74434  0.7437800000000001  0.25183  1.0000
  C   C40       1.0  0.78687  0.53401  0.19273  1.0000
  C   C41       1.0  0.72648  0.64833  0.18224  1.0000
  C   C42       1.0  0.6444  0.66926  0.09824000000000002  1.0000
  C   C43       1.0  0.09572  0.9775600000000001  0.74988  1.0000
  C   C44       1.0  0.19698  0.80874  0.6684200000000001  1.0000
  C   C45       1.0  0.27318  0.7802899999999999  0.74365  1.0000
  C   C46       1.0  0.26164  0.85707  0.82498  1.0000
  C   C47       1.0  0.17234  0.95916  0.82737  1.0000
  C   C48       1.0  0.34477  0.83033  0.90726  1.0000
  N   N1        1.0  0.61715  0.61265  0.8378100000000003  1.0000
  N   N2        1.0  0.39256  0.9050000000000001  0.1711  1.0000
  N   N3        1.0  0.11715  0.38735  0.6621900000000002  1.0000
  N   N4        1.0  0.89256  0.09499  0.3289  1.0000
  N   N5        1.0  0.38285  0.38735  0.16219  1.0000
  N   N6        1.0  0.60744  0.09499  0.8289  1.0000
  N   N7        1.0  0.88285  0.61265  0.3378100000000001  1.0000
  N   N8        1.0  0.10744  0.9050000000000001  0.6711  1.0000
  O   O1        1.0  0.8536499999999999  0.77574  0.57272  1.0000
  O   O2        1.0  0.9222599999999999  0.5769600000000001  0.5589600000000002  1.0000
  O   O3        1.0  0.15484  0.72115  0.42729  1.0000
  O   O4        1.0  0.09069  0.92105  0.45016  1.0000
  O   O5        1.0  0.35365  0.22426000000000004  0.9272900000000002  1.0000
  O   O6        1.0  0.42225  0.42303  0.9410400000000002  1.0000
  O   O7        1.0  0.65484  0.27885  0.07271  1.0000
  O   O8        1.0  0.59069  0.07895  0.04984000000000001  1.0000
  O   O9        1.0  0.14635  0.22426  0.42729  1.0000
  O   O10       1.0  0.07775  0.42303  0.4410400000000001  1.0000
  O   O11       1.0  0.8451600000000001  0.27885  0.57271  1.0000
  O   O12       1.0  0.90931  0.07895  0.54984  1.0000
  O   O13       1.0  0.64635  0.77574  0.07272  1.0000
  O   O14       1.0  0.57775  0.57696  0.05896  1.0000
  O   O15       1.0  0.34516  0.72115  0.9273000000000002  1.0000
  O   O16       1.0  0.40931  0.92105  0.9501600000000002  1.0000
