data_image0
_chemical_formula_structural       Mg6H24C48O24
_chemical_formula_sum              "Mg6 H24 C48 O24"
_cell_length_a       9.00323
_cell_length_b       9.76737
_cell_length_c       17.722280000000005
_cell_angle_alpha    90.00976
_cell_angle_beta     90.00903
_cell_angle_gamma    91.08852

_symmetry_space_group_name_H-M    'P 1'
_symmetry_Int_Tables_number       1

loop_
  _symmetry_equiv_pos_as_xyz
  'x,y,z'

loop_
  _atom_site_type_symbol
  _atom_site_label
  _atom_site_symmetry_multiplicity
  _atom_site_fract_x
  _atom_site_fract_y
  _atom_site_fract_z
  _atom_site_occupancy
  Mg  Mg1       1.0  0.62955  0.41345  0.9651599999999999  1.0000
  Mg  Mg2       1.0  0.8709699999999999  0.08654999999999999  0.46519  1.0000
  Mg  Mg3       1.0  0.37045  0.58655  0.03484  1.0000
  Mg  Mg4       1.0  0.12903  0.91346  0.53481  1.0000
  Mg  Mg5       1.0  0.0  0.5  0.0  1.0000
  Mg  Mg6       1.0  0.5  0.0  0.5  1.0000
  H   H1        1.0  0.03833  0.71385  0.78983  1.0000
  H   H2        1.0  0.02827  0.85224  0.67285  1.0000
  H   H3        1.0  0.58304  0.70037  0.63117  1.0000
  H   H4        1.0  0.5919  0.56803  0.75195  1.0000
  H   H5        1.0  0.78498  0.97965  0.91194  1.0000
  H   H6        1.0  0.034599999999999985  0.21281  0.07599  1.0000
  H   H7        1.0  0.46104999999999996  0.78587  0.28984  1.0000
  H   H8        1.0  0.47139999999999993  0.64713  0.17282  1.0000
  H   H9        1.0  0.9161999999999999  0.79955  0.1312  1.0000
  H   H10       1.0  0.9075499999999999  0.9318599999999999  0.25189  1.0000
  H   H11       1.0  0.7156  0.51973  0.41229  1.0000
  H   H12       1.0  0.46439999999999987  0.28755  0.57609  1.0000
  H   H13       1.0  0.96167  0.28616  0.21017  1.0000
  H   H14       1.0  0.97173  0.14775999999999997  0.32715  1.0000
  H   H15       1.0  0.41695999999999994  0.29963  0.36883999999999995  1.0000
  H   H16       1.0  0.4081  0.43196999999999997  0.24805  1.0000
  H   H17       1.0  0.21502  0.02035  0.08807  1.0000
  H   H18       1.0  0.9653999999999999  0.7872  0.9240099999999999  1.0000
  H   H19       1.0  0.5389499999999999  0.21414  0.71017  1.0000
  H   H20       1.0  0.5285999999999998  0.35287  0.82718  1.0000
  H   H21       1.0  0.0838  0.20045999999999997  0.8688  1.0000
  H   H22       1.0  0.09245000000000002  0.06815  0.74811  1.0000
  H   H23       1.0  0.2844  0.4802699999999999  0.58771  1.0000
  H   H24       1.0  0.5355999999999997  0.71245  0.42391  1.0000
  C   C1        1.0  0.8166899999999998  0.5570599999999999  0.8517  1.0000
  C   C2        1.0  0.8156599999999998  0.63294  0.77816  1.0000
  C   C3        1.0  0.93913  0.71166  0.75483  1.0000
  C   C4        1.0  0.93357  0.7874  0.6882  1.0000
  C   C5        1.0  0.8048299999999997  0.78339  0.6434  1.0000
  C   C6        1.0  0.6819  0.70262  0.66633  1.0000
  C   C7        1.0  0.68721  0.62873  0.73315  1.0000
  C   C8        1.0  0.78775  0.86692  0.57383  1.0000
  C   C9        1.0  0.79581  0.22049999999999997  0.9844699999999998  1.0000
  C   C10       1.0  0.9006299999999999  0.10654  0.9929999999999999  1.0000
  C   C11       1.0  0.87926  0.98684  0.95019  1.0000
  C   C12       1.0  0.021039999999999996  0.11951  0.04303  1.0000
  C   C13       1.0  0.6815999999999998  0.9433  0.35165  1.0000
  C   C14       1.0  0.68348  0.86714  0.27811  1.0000
  C   C15       1.0  0.56023  0.78802  0.25482  1.0000
  C   C16       1.0  0.56592  0.71208  0.18825  1.0000
  C   C17       1.0  0.69457  0.71611  0.14349  1.0000
  C   C18       1.0  0.8173899999999997  0.7970999999999999  0.16638  1.0000
  C   C19       1.0  0.8120899999999998  0.8711599999999999  0.23318  1.0000
  C   C20       1.0  0.7112399999999999  0.63256  0.07397  1.0000
  C   C21       1.0  0.7049399999999998  0.27918  0.48583  1.0000
  C   C22       1.0  0.5995  0.3931  0.49344999999999994  1.0000
  C   C23       1.0  0.62121  0.51264  0.45048  1.0000
  C   C24       1.0  0.47839999999999994  0.38075  0.54308  1.0000
  C   C25       1.0  0.18330999999999997  0.44295  0.1483  1.0000
  C   C26       1.0  0.18434  0.36706999999999995  0.22184  1.0000
  C   C27       1.0  0.06086  0.28835  0.24516999999999997  1.0000
  C   C28       1.0  0.06643  0.2126  0.3118  1.0000
  C   C29       1.0  0.19517  0.21661999999999998  0.3566  1.0000
  C   C30       1.0  0.31808999999999993  0.29738999999999993  0.33367  1.0000
  C   C31       1.0  0.31278  0.37127999999999994  0.26685  1.0000
  C   C32       1.0  0.21224999999999994  0.13308  0.42617  1.0000
  C   C33       1.0  0.20418999999999998  0.7795  0.01553  1.0000
  C   C34       1.0  0.09937  0.8934599999999999  0.007  1.0000
  C   C35       1.0  0.12073999999999999  0.01317  0.04981  1.0000
  C   C36       1.0  0.9789599999999999  0.8805  0.95697  1.0000
  C   C37       1.0  0.3184  0.05669999999999999  0.64835  1.0000
  C   C38       1.0  0.31651999999999997  0.13287  0.72189  1.0000
  C   C39       1.0  0.43977  0.21197999999999997  0.74519  1.0000
  C   C40       1.0  0.43408  0.28792  0.81175  1.0000
  C   C41       1.0  0.30543  0.28389  0.85652  1.0000
  C   C42       1.0  0.18260999999999994  0.20289999999999997  0.83362  1.0000
  C   C43       1.0  0.18791  0.12884  0.76682  1.0000
  C   C44       1.0  0.28876  0.36744  0.92603  1.0000
  C   C45       1.0  0.29505999999999993  0.72083  0.51417  1.0000
  C   C46       1.0  0.4005  0.6068999999999999  0.50655  1.0000
  C   C47       1.0  0.37879  0.48735999999999996  0.54952  1.0000
  C   C48       1.0  0.5216  0.61925  0.45692  1.0000
  O   O1        1.0  0.6925099999999998  0.50012  0.87099  1.0000
  O   O2        1.0  0.93493  0.5554099999999998  0.89021  1.0000
  O   O3        1.0  0.90408  0.93185  0.54484  1.0000
  O   O4        1.0  0.6614399999999999  0.87549  0.54498  1.0000
  O   O5        1.0  0.66797  0.20227  0.9552600000000001  1.0000
  O   O6        1.0  0.8343099999999998  0.34277  0.007459999999999999  1.0000
  O   O7        1.0  0.8056199999999998  0.00062  0.37111  1.0000
  O   O8        1.0  0.56296  0.94441  0.38989  1.0000
  O   O9        1.0  0.59476  0.56775  0.04501  1.0000
  O   O10       1.0  0.83737  0.62415  0.04495  1.0000
  O   O11       1.0  0.8344999999999998  0.29825  0.45867  1.0000
  O   O12       1.0  0.66589  0.15629  0.50739  1.0000
  O   O13       1.0  0.30749  0.49988  0.12901  1.0000
  O   O14       1.0  0.06507  0.44459999999999994  0.10979  1.0000
  O   O15       1.0  0.09592  0.06815999999999998  0.45517  1.0000
  O   O16       1.0  0.33856  0.12451  0.45502  1.0000
  O   O17       1.0  0.33203  0.79774  0.04474  1.0000
  O   O18       1.0  0.16568999999999995  0.65723  0.9925399999999999  1.0000
  O   O19       1.0  0.19438  0.99938  0.62889  1.0000
  O   O20       1.0  0.43704  0.05559  0.61011  1.0000
  O   O21       1.0  0.40524  0.43226  0.95499  1.0000
  O   O22       1.0  0.16263  0.37585  0.95505  1.0000
  O   O23       1.0  0.1655  0.70175  0.54133  1.0000
  O   O24       1.0  0.33411  0.8437099999999998  0.49261  1.0000
