data_image0
_chemical_formula_structural       La4H36C60O28
_chemical_formula_sum              "La4 H36 C60 O28"
_cell_length_a       13.799
_cell_length_b       14.0737
_cell_length_c       14.62462
_cell_angle_alpha    95.90536
_cell_angle_beta     89.98879999999998
_cell_angle_gamma    119.30010999999999

_symmetry_space_group_name_H-M    'P 1'
_symmetry_Int_Tables_number       1

loop_
  _symmetry_equiv_pos_as_xyz
  'x,y,z'

loop_
  _atom_site_type_symbol
  _atom_site_label
  _atom_site_symmetry_multiplicity
  _atom_site_fract_x
  _atom_site_fract_y
  _atom_site_fract_z
  _atom_site_occupancy
  La  La1       1.0  0.96009  0.34209999999999996  0.47365  1.0000
  La  La2       1.0  0.6173  0.65712  0.025440000000000004  1.0000
  La  La3       1.0  0.039909999999999946  0.6579  0.52635  1.0000
  La  La4       1.0  0.38269  0.34287999999999996  0.97455  1.0000
  H   H1        1.0  0.17195  0.012569999999999998  0.3889  1.0000
  H   H2        1.0  0.31599  0.1829  0.33025  1.0000
  H   H3        1.0  0.56633  0.09576  0.39072  1.0000
  H   H4        1.0  0.4209899999999998  0.9257599999999999  0.44853  1.0000
  H   H5        1.0  0.43584999999999996  0.26438  0.22289  1.0000
  H   H6        1.0  0.73953  0.56666  0.29531  1.0000
  H   H7        1.0  0.6629  0.28666  0.43792999999999993  1.0000
  H   H8        1.0  0.12639  0.26047  0.42209  1.0000
  H   H9        1.0  0.01251999999999999  0.16910999999999998  0.44954  1.0000
  H   H10       1.0  0.16076  0.9892299999999999  0.11012  1.0000
  H   H11       1.0  0.13281000000000007  0.81812  0.16901  1.0000
  H   H12       1.0  0.46973  0.90259  0.10923  1.0000
  H   H13       1.0  0.49624  0.07407  0.05247  1.0000
  H   H14       1.0  0.16964000000000007  0.73617  0.27638  1.0000
  H   H15       1.0  0.17352  0.43416  0.20731  1.0000
  H   H16       1.0  0.37687  0.71304  0.06382  1.0000
  H   H17       1.0  0.86797  0.7389  0.07897  1.0000
  H   H18       1.0  0.84324  0.82952  0.05228  1.0000
  H   H19       1.0  0.82805  0.98743  0.6111  1.0000
  H   H20       1.0  0.684  0.8171  0.66974  1.0000
  H   H21       1.0  0.43367  0.90424  0.60928  1.0000
  H   H22       1.0  0.57901  0.07424  0.55147  1.0000
  H   H23       1.0  0.56415  0.73562  0.7771  1.0000
  H   H24       1.0  0.26046999999999987  0.43334  0.70469  1.0000
  H   H25       1.0  0.3371  0.71334  0.56206  1.0000
  H   H26       1.0  0.8736  0.73953  0.5779  1.0000
  H   H27       1.0  0.9874699999999997  0.83089  0.55046  1.0000
  H   H28       1.0  0.8392399999999998  0.010770000000000005  0.88988  1.0000
  H   H29       1.0  0.86718  0.18188  0.83098  1.0000
  H   H30       1.0  0.53027  0.09741  0.89077  1.0000
  H   H31       1.0  0.50375  0.92593  0.9475299999999999  1.0000
  H   H32       1.0  0.8303599999999999  0.26382  0.72361  1.0000
  H   H33       1.0  0.82647  0.5658399999999999  0.79269  1.0000
  H   H34       1.0  0.6231199999999999  0.28696  0.93618  1.0000
  H   H35       1.0  0.13203  0.2611  0.92103  1.0000
  H   H36       1.0  0.15676  0.17047000000000004  0.9477100000000002  1.0000
  C   C1        1.0  0.20438  0.8673  0.47118  1.0000
  C   C2        1.0  0.28840000000000005  0.9608600000000002  0.4256  1.0000
  C   C3        1.0  0.25841000000000003  0.03160000000000001  0.38861  1.0000
  C   C4        1.0  0.3392  0.12628999999999999  0.35545999999999994  1.0000
  C   C5        1.0  0.45193  0.15309  0.3585  1.0000
  C   C6        1.0  0.48019  0.07824000000000002  0.39023  1.0000
  C   C7        1.0  0.39912999999999993  0.9831  0.4231  1.0000
  C   C8        1.0  0.53708  0.26168  0.33459  1.0000
  C   C9        1.0  0.51269  0.31048  0.26578  1.0000
  C   C10       1.0  0.5854  0.41907  0.25031  1.0000
  C   C11       1.0  0.68439  0.4812  0.30472  1.0000
  C   C12       1.0  0.71238  0.43177  0.37071  1.0000
  C   C13       1.0  0.64036  0.32234000000000007  0.38475  1.0000
  C   C14       1.0  0.81717  0.49898  0.4289  1.0000
  C   C15       1.0  0.5542000000000001  0.46559999999999996  0.17534  1.0000
  C   C16       1.0  0.33971  0.13366  0.028669999999999998  1.0000
  C   C17       1.0  0.32884  0.03977  0.07453  1.0000
  C   C18       1.0  0.22765999999999995  0.9694  0.11096  1.0000
  C   C19       1.0  0.21295999999999998  0.8744  0.14423  1.0000
  C   C20       1.0  0.29842  0.8468  0.1415  1.0000
  C   C21       1.0  0.40182  0.92118  0.11008  1.0000
  C   C22       1.0  0.41685  0.01685  0.07756  1.0000
  C   C23       1.0  0.27478999999999987  0.73825  0.16587  1.0000
  C   C24       1.0  0.20102000000000003  0.68986  0.23442  1.0000
  C   C25       1.0  0.16570999999999994  0.58161  0.25067  1.0000
  C   C26       1.0  0.20353999999999997  0.51944  0.19742  1.0000
  C   C27       1.0  0.28121  0.56834  0.13155  1.0000
  C   C28       1.0  0.31810999999999995  0.67745  0.11666  1.0000
  C   C29       1.0  0.31935  0.50035  0.07486  1.0000
  C   C30       1.0  0.08751  0.53499  0.3251  1.0000
  C   C31       1.0  0.7956199999999998  0.1327  0.52881  1.0000
  C   C32       1.0  0.71159  0.03913999999999999  0.5743899999999998  1.0000
  C   C33       1.0  0.7415899999999999  0.9683999999999999  0.6113900000000001  1.0000
  C   C34       1.0  0.6608000000000002  0.8737100000000001  0.64454  1.0000
  C   C35       1.0  0.5480699999999998  0.8469099999999999  0.6415  1.0000
  C   C36       1.0  0.5198  0.92176  0.60977  1.0000
  C   C37       1.0  0.60086  0.01689  0.57689  1.0000
  C   C38       1.0  0.46292  0.73832  0.6654099999999998  1.0000
  C   C39       1.0  0.4873  0.68952  0.73422  1.0000
  C   C40       1.0  0.41459  0.58093  0.74969  1.0000
  C   C41       1.0  0.31561  0.5188  0.69527  1.0000
  C   C42       1.0  0.28762  0.56823  0.62929  1.0000
  C   C43       1.0  0.35964  0.67766  0.61524  1.0000
  C   C44       1.0  0.18282  0.50102  0.5711  1.0000
  C   C45       1.0  0.4457999999999999  0.5344  0.82465  1.0000
  C   C46       1.0  0.66028  0.86634  0.97133  1.0000
  C   C47       1.0  0.67116  0.96023  0.92546  1.0000
  C   C48       1.0  0.77234  0.0306  0.88904  1.0000
  C   C49       1.0  0.7870399999999999  0.1256  0.85576  1.0000
  C   C50       1.0  0.70158  0.1532  0.85849  1.0000
  C   C51       1.0  0.59818  0.07881999999999997  0.88992  1.0000
  C   C52       1.0  0.5831499999999998  0.98315  0.92244  1.0000
  C   C53       1.0  0.7252  0.26174  0.83412  1.0000
  C   C54       1.0  0.7989799999999999  0.31012999999999996  0.7655799999999999  1.0000
  C   C55       1.0  0.83429  0.41839  0.74933  1.0000
  C   C56       1.0  0.79646  0.48056  0.80257  1.0000
  C   C57       1.0  0.7187899999999999  0.43165  0.86845  1.0000
  C   C58       1.0  0.68189  0.32255  0.88333  1.0000
  C   C59       1.0  0.6806499999999999  0.49964  0.92514  1.0000
  C   C60       1.0  0.91249  0.4650099999999999  0.67489  1.0000
  O   O1        1.0  0.10121000000000002  0.84157  0.4631  1.0000
  O   O2        1.0  0.23488  0.81299  0.51821  1.0000
  O   O3        1.0  0.8665  0.45167  0.46325  1.0000
  O   O4        1.0  0.8568699999999999  0.6023  0.44436  1.0000
  O   O5        1.0  0.61773  0.56551  0.16198  1.0000
  O   O6        1.0  0.46325  0.40014  0.12849  1.0000
  O   O7        1.0  0.047570000000000015  0.21925000000000006  0.40279000000000004  1.0000
  O   O8        1.0  0.26037  0.15713  0.0323  1.0000
  O   O9        1.0  0.4275  0.19066  0.98589  1.0000
  O   O10       1.0  0.41402  0.54748  0.03721  1.0000
  O   O11       1.0  0.2578599999999999  0.3966299999999999  0.06376  1.0000
  O   O12       1.0  0.05116000000000002  0.43496  0.33812  1.0000
  O   O13       1.0  0.06173999999999995  0.60038  0.37189  1.0000
  O   O14       1.0  0.8268499999999999  0.77695  0.09709  1.0000
  O   O15       1.0  0.89879  0.15843  0.5369  1.0000
  O   O16       1.0  0.7651199999999999  0.18701  0.48179  1.0000
  O   O17       1.0  0.13349  0.54833  0.53675  1.0000
  O   O18       1.0  0.14312999999999998  0.39769999999999994  0.55564  1.0000
  O   O19       1.0  0.38226  0.43449  0.83802  1.0000
  O   O20       1.0  0.53674  0.59986  0.8715  1.0000
  O   O21       1.0  0.95243  0.78075  0.5972  1.0000
  O   O22       1.0  0.73962  0.84287  0.96769  1.0000
  O   O23       1.0  0.5725  0.80934  0.01411  1.0000
  O   O24       1.0  0.58598  0.45252  0.96279  1.0000
  O   O25       1.0  0.74213  0.60337  0.93624  1.0000
  O   O26       1.0  0.9488400000000002  0.5650400000000001  0.66188  1.0000
  O   O27       1.0  0.93825  0.39962  0.6281  1.0000
  O   O28       1.0  0.17314  0.22305  0.90291  1.0000
