data_image0
_chemical_formula_structural       Co3H34C36N10O18
_chemical_formula_sum              "Co3 H34 C36 N10 O18"
_cell_length_a       10.43318
_cell_length_b       12.08701
_cell_length_c       12.47659
_cell_angle_alpha    67.23875
_cell_angle_beta     70.11006
_cell_angle_gamma    65.23057

_symmetry_space_group_name_H-M    'P 1'
_symmetry_Int_Tables_number       1

loop_
  _symmetry_equiv_pos_as_xyz
  'x,y,z'

loop_
  _atom_site_type_symbol
  _atom_site_label
  _atom_site_symmetry_multiplicity
  _atom_site_fract_x
  _atom_site_fract_y
  _atom_site_fract_z
  _atom_site_occupancy
  Co  Co1       1.0  0.83829  0.4102199999999999  0.91009  1.0000
  Co  Co2       1.0  0.1617  0.58979  0.08990000000000001  1.0000
  Co  Co3       1.0  0.5  0.49999  3e-05  1.0000
  H   H1        1.0  0.49517  0.20269  0.01137  1.0000
  H   H2        1.0  0.09003000000000007  0.5251199999999998  0.84252  1.0000
  H   H3        1.0  0.9033800000000002  0.07759999999999997  0.2603  1.0000
  H   H4        1.0  0.8963699999999999  0.22601  0.2633  1.0000
  H   H5        1.0  0.36566000000000004  0.36941999999999997  0.8791300000000001  1.0000
  H   H6        1.0  0.60071  0.35712000000000005  0.66707  1.0000
  H   H7        1.0  0.61438  0.2161  0.78679  1.0000
  H   H8        1.0  0.2997199999999997  0.99256  0.9407500000000001  1.0000
  H   H9        1.0  0.08989  0.14677  0.00058  1.0000
  H   H10       1.0  0.8700199999999999  0.29042000000000007  0.60009  1.0000
  H   H11       1.0  0.8894899999999999  0.15824000000000002  0.72901  1.0000
  H   H12       1.0  0.6411  0.15586  0.27258  1.0000
  H   H13       1.0  0.6227800000000001  0.3042700000000001  0.28674  1.0000
  H   H14       1.0  0.60689  0.87278  0.7720600000000001  1.0000
  H   H15       1.0  0.6210500000000002  0.8145099999999998  0.65729  1.0000
  H   H16       1.0  0.8845200000000001  0.7830299999999999  0.7379200000000001  1.0000
  H   H17       1.0  0.8876  0.75643  0.6067  1.0000
  H   H18       1.0  0.50484  0.79731  0.98864  1.0000
  H   H19       1.0  0.9099799999999999  0.47488  0.15748  1.0000
  H   H20       1.0  0.0966199999999998  0.9224  0.7397000000000001  1.0000
  H   H21       1.0  0.10363000000000001  0.7739999999999999  0.7366900000000001  1.0000
  H   H22       1.0  0.6343499999999999  0.63058  0.12087000000000002  1.0000
  H   H23       1.0  0.39929999999999993  0.6428799999999999  0.33292  1.0000
  H   H24       1.0  0.3856399999999999  0.7839  0.21321000000000007  1.0000
  H   H25       1.0  0.70029  0.00745  0.05925  1.0000
  H   H26       1.0  0.91012  0.8532299999999998  0.9994200000000001  1.0000
  H   H27       1.0  0.12999  0.70958  0.39990000000000003  1.0000
  H   H28       1.0  0.11052000000000002  0.84176  0.27099  1.0000
  H   H29       1.0  0.3589200000000001  0.8441499999999998  0.72741  1.0000
  H   H30       1.0  0.37723  0.6957399999999999  0.71326  1.0000
  H   H31       1.0  0.39313  0.12722000000000003  0.22794  1.0000
  H   H32       1.0  0.37895999999999996  0.1855  0.3427  1.0000
  H   H33       1.0  0.11550000000000003  0.21697  0.26208  1.0000
  H   H34       1.0  0.11241999999999996  0.24357000000000004  0.39330000000000004  1.0000
  C   C1        1.0  0.8144999999999999  0.02004999999999997  0.6674800000000001  1.0000
  C   C2        1.0  0.8119999999999999  0.19639999999999994  0.48145000000000004  1.0000
  C   C3        1.0  0.8173699999999997  0.9891100000000002  0.4817600000000001  1.0000
  C   C4        1.0  0.49719  0.11431999999999999  0.00581  1.0000
  C   C5        1.0  0.38348000000000004  0.11040999999999995  0.9736700000000001  1.0000
  C   C6        1.0  0.6747199999999999  0.35184000000000004  0.8100700000000001  1.0000
  C   C7        1.0  0.13163  0.42327  0.8810800000000001  1.0000
  C   C8        1.0  0.8367600000000001  0.15951000000000004  0.29448  1.0000
  C   C9        1.0  0.26824  0.34734  0.8972  1.0000
  C   C10       1.0  0.6686800000000002  0.2864499999999999  0.7305500000000001  1.0000
  C   C11       1.0  0.7395699999999998  0.27323  0.11579000000000002  1.0000
  C   C12       1.0  0.38651  0.99613  0.9675  1.0000
  C   C13       1.0  0.12677999999999998  0.22809  0.9601800000000001  1.0000
  C   C14       1.0  0.8194800000000001  0.22138  0.66591  1.0000
  C   C15       1.0  0.6952600000000001  0.22511000000000003  0.24963  1.0000
  C   C16       1.0  0.67567  0.80023  0.72535  1.0000
  C   C17       1.0  0.68351  0.67049  0.81455  1.0000
  C   C18       1.0  0.82519  0.8135799999999999  0.66868  1.0000
  C   C19       1.0  0.1855  0.97995  0.33252  1.0000
  C   C20       1.0  0.1880000000000001  0.80361  0.51854  1.0000
  C   C21       1.0  0.18262999999999993  0.010899999999999986  0.51824  1.0000
  C   C22       1.0  0.5028199999999998  0.88568  0.99419  1.0000
  C   C23       1.0  0.6165300000000001  0.88959  0.026340000000000002  1.0000
  C   C24       1.0  0.32526000000000005  0.64817  0.18994  1.0000
  C   C25       1.0  0.8683799999999999  0.57673  0.11892000000000001  1.0000
  C   C26       1.0  0.16324000000000002  0.84049  0.70552  1.0000
  C   C27       1.0  0.73176  0.65266  0.10281  1.0000
  C   C28       1.0  0.3313200000000001  0.7135599999999999  0.26945  1.0000
  C   C29       1.0  0.26043000000000005  0.7267799999999998  0.8842  1.0000
  C   C30       1.0  0.6135  0.00387  0.03251  1.0000
  C   C31       1.0  0.87322  0.77192  0.03982  1.0000
  C   C32       1.0  0.1805300000000001  0.7786299999999999  0.33409000000000005  1.0000
  C   C33       1.0  0.3047400000000001  0.7748999999999998  0.7503600000000001  1.0000
  C   C34       1.0  0.3243400000000001  0.19977  0.27465  1.0000
  C   C35       1.0  0.31656  0.32950000000000007  0.18543  1.0000
  C   C36       1.0  0.17482999999999996  0.18642000000000003  0.33132  1.0000
  N   N1        1.0  0.2644200000000001  0.22320999999999994  0.94679  1.0000
  N   N2        1.0  0.044129999999999996  0.34826999999999997  0.9207100000000001  1.0000
  N   N3        1.0  0.8180100000000005  0.9462699999999997  0.60299  1.0000
  N   N4        1.0  0.81502  0.14308000000000004  0.60215  1.0000
  N   N5        1.0  0.81811  0.11394999999999997  0.42472000000000004  1.0000
  N   N6        1.0  0.7355899999999999  0.77679  0.05321  1.0000
  N   N7        1.0  0.95588  0.65173  0.07929  1.0000
  N   N8        1.0  0.18199  0.05372999999999999  0.39701  1.0000
  N   N9        1.0  0.1849899999999999  0.85692  0.39784  1.0000
  N   N10       1.0  0.18189999999999987  0.8860500000000001  0.57528  1.0000
  O   O1        1.0  0.8099500000000002  0.5914699999999998  0.82526  1.0000
  O   O2        1.0  0.82296  0.19955000000000003  0.05467  1.0000
  O   O3        1.0  0.7008300000000001  0.3979  0.06716  1.0000
  O   O4        1.0  0.7981099999999999  0.35790000000000005  0.79913  1.0000
  O   O5        1.0  0.5585600000000001  0.3945600000000001  0.88124  1.0000
  O   O6        1.0  0.5649499999999998  0.6502500000000001  0.87206  1.0000
  O   O7        1.0  0.81838  0.9217800000000002  0.42877000000000004  1.0000
  O   O8        1.0  0.8130499999999998  0.9784600000000001  0.77446  1.0000
  O   O9        1.0  0.8071  0.30680999999999997  0.42821000000000004  1.0000
  O   O10       1.0  0.19001999999999988  0.40855  0.17474  1.0000
  O   O11       1.0  0.1770400000000001  0.80046  0.94533  1.0000
  O   O12       1.0  0.2991400000000001  0.6021099999999999  0.9328200000000002  1.0000
  O   O13       1.0  0.20188999999999993  0.64209  0.20089  1.0000
  O   O14       1.0  0.44143000000000004  0.60547  0.11876000000000002  1.0000
  O   O15       1.0  0.4350099999999999  0.34974  0.12796  1.0000
  O   O16       1.0  0.18162000000000003  0.07822  0.57123  1.0000
  O   O17       1.0  0.18694999999999995  0.021539999999999986  0.22554000000000002  1.0000
  O   O18       1.0  0.19290000000000007  0.6931999999999999  0.57179  1.0000
