data_image0
_chemical_formula_structural       Zn7H12C40N8O38
_chemical_formula_sum              "Zn7 H12 C40 N8 O38"
_cell_length_a       12.96808
_cell_length_b       12.96789
_cell_length_c       14.80042
_cell_angle_alpha    87.02312000000002
_cell_angle_beta     87.03406999999999
_cell_angle_gamma    86.54357

_symmetry_space_group_name_H-M    'P 1'
_symmetry_Int_Tables_number       1

loop_
  _symmetry_equiv_pos_as_xyz
  'x,y,z'

loop_
  _atom_site_type_symbol
  _atom_site_label
  _atom_site_symmetry_multiplicity
  _atom_site_fract_x
  _atom_site_fract_y
  _atom_site_fract_z
  _atom_site_occupancy
  Zn  Zn1       1.0  0.5028  0.3201  0.16191  1.0000
  Zn  Zn2       1.0  0.6799100000000001  0.4972099999999999  0.8381099999999998  1.0000
  Zn  Zn3       1.0  0.49720999999999993  0.6799099999999998  0.83809  1.0000
  Zn  Zn4       1.0  0.32010000000000005  0.50279  0.1619  1.0000
  Zn  Zn5       1.0  0.5  0.5  0.0  1.0000
  Zn  Zn6       1.0  0.34111  0.34112  0.009739999999999997  1.0000
  Zn  Zn7       1.0  0.65889  0.65888  0.99026  1.0000
  H   H1        1.0  0.00921  0.4703  0.22581999999999997  1.0000
  H   H2        1.0  0.017550000000000003  0.32637  0.96924  1.0000
  H   H3        1.0  0.82459  0.32952  0.9767  1.0000
  H   H4        1.0  0.5296999999999997  0.9908  0.77418  1.0000
  H   H5        1.0  0.67364  0.98242  0.03078  1.0000
  H   H6        1.0  0.67048  0.17539  0.0233  1.0000
  H   H7        1.0  0.99079  0.5297000000000001  0.77418  1.0000
  H   H8        1.0  0.98245  0.6736399999999998  0.03076  1.0000
  H   H9        1.0  0.17542  0.67048  0.0233  1.0000
  H   H10       1.0  0.47031  0.009200000000000002  0.22583  1.0000
  H   H11       1.0  0.32636  0.01758000000000001  0.9692199999999997  1.0000
  H   H12       1.0  0.32952999999999993  0.8246099999999997  0.9767  1.0000
  C   C1        1.0  0.8085099999999998  0.4025999999999999  0.10441  1.0000
  C   C2        1.0  0.8622399999999999  0.44048  0.17423  1.0000
  C   C3        1.0  0.96981  0.43991  0.17072999999999994  1.0000
  C   C4        1.0  0.025840000000000002  0.4000499999999999  0.09569  1.0000
  C   C5        1.0  0.97332  0.3585499999999999  0.02663  1.0000
  C   C6        1.0  0.86567  0.3599299999999999  0.03095  1.0000
  C   C7        1.0  0.69267  0.40537  0.10266  1.0000
  C   C8        1.0  0.14097000000000007  0.40453  0.08895  1.0000
  C   C9        1.0  0.54917  0.41462  0.46048999999999995  1.0000
  C   C10       1.0  0.5973900000000002  0.19149999999999998  0.89559  1.0000
  C   C11       1.0  0.55952  0.13776999999999995  0.82577  1.0000
  C   C12       1.0  0.56009  0.03019  0.82927  1.0000
  C   C13       1.0  0.5999500000000002  0.9741499999999997  0.90432  1.0000
  C   C14       1.0  0.64145  0.026659999999999996  0.97339  1.0000
  C   C15       1.0  0.64006  0.13432000000000002  0.9690599999999999  1.0000
  C   C16       1.0  0.59462  0.30734  0.89734  1.0000
  C   C17       1.0  0.5954700000000003  0.85902  0.91106  1.0000
  C   C18       1.0  0.5853799999999998  0.45084  0.53952  1.0000
  C   C19       1.0  0.1915  0.59741  0.89559  1.0000
  C   C20       1.0  0.13776999999999995  0.55953  0.82577  1.0000
  C   C21       1.0  0.030190000000000012  0.5601  0.82927  1.0000
  C   C22       1.0  0.9741599999999999  0.59996  0.90431  1.0000
  C   C23       1.0  0.026680000000000006  0.64145  0.97338  1.0000
  C   C24       1.0  0.13434  0.6400700000000001  0.96905  1.0000
  C   C25       1.0  0.30733  0.59463  0.89734  1.0000
  C   C26       1.0  0.85903  0.59547  0.91105  1.0000
  C   C27       1.0  0.45084  0.58538  0.53951  1.0000
  C   C28       1.0  0.40261  0.80851  0.10441  1.0000
  C   C29       1.0  0.44048  0.8622399999999998  0.17424  1.0000
  C   C30       1.0  0.43991  0.96981  0.17072999999999994  1.0000
  C   C31       1.0  0.40005  0.02585  0.09568  1.0000
  C   C32       1.0  0.3585500000000001  0.9733399999999998  0.026609999999999998  1.0000
  C   C33       1.0  0.35994  0.86568  0.03095  1.0000
  C   C34       1.0  0.40538  0.69267  0.10266  1.0000
  C   C35       1.0  0.40453  0.14098  0.08895  1.0000
  C   C36       1.0  0.41462  0.5491699999999999  0.46048  1.0000
  C   C37       1.0  0.43704999999999994  0.43708999999999987  0.3235  1.0000
  C   C38       1.0  0.46476  0.4647699999999999  0.41706  1.0000
  C   C39       1.0  0.5629499999999997  0.56292  0.6765  1.0000
  C   C40       1.0  0.53524  0.53524  0.58294  1.0000
  N   N1        1.0  0.80415  0.48375  0.25368  1.0000
  N   N2        1.0  0.6016500000000001  0.31739  0.42666  1.0000
  N   N3        1.0  0.51625  0.19586  0.7462999999999997  1.0000
  N   N4        1.0  0.68261  0.39834999999999987  0.57336  1.0000
  N   N5        1.0  0.19584999999999994  0.51625  0.74632  1.0000
  N   N6        1.0  0.39836  0.6826099999999999  0.57334  1.0000
  N   N7        1.0  0.48376  0.80415  0.2537  1.0000
  N   N8        1.0  0.31739000000000006  0.6016499999999998  0.42664  1.0000
  O   O1        1.0  0.64591  0.48563  0.06806  1.0000
  O   O2        1.0  0.6514899999999999  0.32074  0.12764  1.0000
  O   O3        1.0  0.18118  0.45308999999999994  0.14986  1.0000
  O   O4        1.0  0.18872999999999998  0.3596799999999999  0.02244  1.0000
  O   O5        1.0  0.7080999999999998  0.48518999999999995  0.25402  1.0000
  O   O6        1.0  0.85438  0.51582  0.31407  1.0000
  O   O7        1.0  0.49191  0.36399999999999993  0.28837  1.0000
  O   O8        1.0  0.69118  0.32303  0.39507  1.0000
  O   O9        1.0  0.55193  0.23952999999999994  0.43794  1.0000
  O   O10       1.0  0.51438  0.35409999999999997  0.9319399999999998  1.0000
  O   O11       1.0  0.67926  0.34851  0.87237  1.0000
  O   O12       1.0  0.54691  0.8188299999999998  0.85014  1.0000
  O   O13       1.0  0.64032  0.81126  0.97758  1.0000
  O   O14       1.0  0.51481  0.29191  0.74597  1.0000
  O   O15       1.0  0.48419  0.14564  0.6859099999999999  1.0000
  O   O16       1.0  0.63599  0.50797  0.71165  1.0000
  O   O17       1.0  0.67697  0.3088099999999999  0.60494  1.0000
  O   O18       1.0  0.7604699999999999  0.44808  0.5621  1.0000
  O   O19       1.0  0.35409  0.51437  0.9319399999999998  1.0000
  O   O20       1.0  0.34851  0.67926  0.87236  1.0000
  O   O21       1.0  0.81883  0.54692  0.85014  1.0000
  O   O22       1.0  0.81128  0.6403199999999999  0.97757  1.0000
  O   O23       1.0  0.2919  0.51481  0.74598  1.0000
  O   O24       1.0  0.14563  0.48418  0.68593  1.0000
  O   O25       1.0  0.5081  0.63601  0.71163  1.0000
  O   O26       1.0  0.30882  0.67697  0.60493  1.0000
  O   O27       1.0  0.44808  0.76047  0.56206  1.0000
  O   O28       1.0  0.48562  0.64591  0.06806  1.0000
  O   O29       1.0  0.32075  0.6514999999999999  0.12763  1.0000
  O   O30       1.0  0.45309  0.18118  0.14986  1.0000
  O   O31       1.0  0.35968  0.18875  0.02242  1.0000
  O   O32       1.0  0.48519999999999996  0.7080999999999997  0.25403  1.0000
  O   O33       1.0  0.51581  0.8543600000000001  0.31409  1.0000
  O   O34       1.0  0.3640100000000001  0.49203  0.28834999999999994  1.0000
  O   O35       1.0  0.32302999999999993  0.69119  0.39506  1.0000
  O   O36       1.0  0.23953  0.55193  0.4379  1.0000
  O   O37       1.0  0.41691  0.41691  0.09043  1.0000
  O   O38       1.0  0.58309  0.5830899999999999  0.90957  1.0000
