data_image0
_chemical_formula_structural       Cu24H32C32N48
_chemical_formula_sum              "Cu24 H32 C32 N48"
_cell_length_a       6.92989
_cell_length_b       19.01401
_cell_length_c       19.69552
_cell_angle_alpha    90.95424999999999
_cell_angle_beta     84.45273
_cell_angle_gamma    91.00901

_space_group_name_H-M_alt    "P 1"
_space_group_IT_number       1

loop_
  _space_group_symop_operation_xyz
  'x, y, z'

loop_
  _atom_site_type_symbol
  _atom_site_label
  _atom_site_symmetry_multiplicity
  _atom_site_fract_x
  _atom_site_fract_y
  _atom_site_fract_z
  _atom_site_occupancy
  Cu  Cu1       1.0  0.54218  0.71345  0.26908  1.0000
  Cu  Cu2       1.0  0.48670999999999986  0.8609299999999999  0.24905000000000002  1.0000
  Cu  Cu3       1.0  0.6950999999999999  0.23933  0.7738400000000001  1.0000
  Cu  Cu4       1.0  0.80335  0.28330999999999995  0.66065  1.0000
  Cu  Cu5       1.0  0.6710299999999998  0.7895799999999998  0.16776  1.0000
  Cu  Cu6       1.0  0.5045999999999999  0.80856  0.36518  1.0000
  Cu  Cu7       1.0  0.79474  0.36829  0.76062  1.0000
  Cu  Cu8       1.0  0.15157999999999996  0.16121  0.72385  1.0000
  Cu  Cu9       1.0  0.7428599999999997  0.55718  0.51861  1.0000
  Cu  Cu10      1.0  0.78217  0.02469  0.97126  1.0000
  Cu  Cu11      1.0  0.7942599999999997  0.5242  0.026420000000000003  1.0000
  Cu  Cu12      1.0  0.14555999999999994  0.08311999999999999  0.44522  1.0000
  Cu  Cu13      1.0  0.32801  0.22461999999999996  0.80463  1.0000
  Cu  Cu14      1.0  0.49526000000000003  0.19679  0.67889  1.0000
  Cu  Cu15      1.0  0.24690999999999996  0.63673  0.24226000000000003  1.0000
  Cu  Cu16      1.0  0.8121199999999998  0.82242  0.27526000000000006  1.0000
  Cu  Cu17      1.0  0.48759  0.32132  0.72403  1.0000
  Cu  Cu18      1.0  0.46390999999999977  0.1118  0.77231  1.0000
  Cu  Cu19      1.0  0.28581999999999996  0.7586799999999999  0.20979  1.0000
  Cu  Cu20      1.0  0.20400999999999997  0.72894  0.32976  1.0000
  Cu  Cu21      1.0  0.23509  0.47065999999999997  0.98207  1.0000
  Cu  Cu22      1.0  0.8567399999999998  0.92242  0.55102  1.0000
  Cu  Cu23      1.0  0.28576999999999997  0.42469  0.46092  1.0000
  Cu  Cu24      1.0  0.15687999999999996  0.98962  0.03675  1.0000
  H   H1        1.0  0.7395799999999999  0.5712  0.35856  1.0000
  H   H2        1.0  0.58732  0.7151699999999999  0.51895  1.0000
  H   H3        1.0  0.51738  0.03154  0.11089  1.0000
  H   H4        1.0  0.7986999999999999  0.86141  0.006980000000000001  1.0000
  H   H5        1.0  0.6703299999999998  0.17801  0.92973  1.0000
  H   H6        1.0  0.05605  0.03144  0.83108  1.0000
  H   H7        1.0  0.8202399999999997  0.39637  0.51342  1.0000
  H   H8        1.0  0.82571  0.54048  0.67747  1.0000
  H   H9        1.0  0.9117699999999997  0.68306  0.0414  1.0000
  H   H10       1.0  0.65644  0.54144  0.18673  1.0000
  H   H11       1.0  0.32189  0.9466399999999999  0.47869  1.0000
  H   H12       1.0  0.22143  0.021899999999999996  0.28514  1.0000
  H   H13       1.0  0.89668  0.50387  0.8629800000000001  1.0000
  H   H14       1.0  0.61868  0.37237999999999993  0.012570000000000001  1.0000
  H   H15       1.0  0.25766  0.08626  0.58384  1.0000
  H   H16       1.0  0.88472  0.22787999999999997  0.50127  1.0000
  H   H17       1.0  0.08810999999999997  0.31344  0.9417100000000002  1.0000
  H   H18       1.0  0.40195000000000003  0.4724  0.831  1.0000
  H   H19       1.0  0.72827  0.07499  0.53611  1.0000
  H   H20       1.0  0.71201  0.9532099999999999  0.71323  1.0000
  H   H21       1.0  0.1531  0.49485  0.14704  1.0000
  H   H22       1.0  0.40226999999999996  0.62192  0.98838  1.0000
  H   H23       1.0  0.7627399999999998  0.92226  0.40938  1.0000
  H   H24       1.0  0.11140999999999995  0.7749  0.49597  1.0000
  H   H25       1.0  0.29597000000000007  0.43427  0.61272  1.0000
  H   H26       1.0  0.40873  0.25818  0.48362  1.0000
  H   H27       1.0  0.4161099999999998  0.98323  0.89732  1.0000
  H   H28       1.0  0.15210999999999994  0.15531  0.00389  1.0000
  H   H29       1.0  0.29574  0.83872  0.0631  1.0000
  H   H30       1.0  0.8861499999999998  0.96386  0.17913  1.0000
  H   H31       1.0  0.17381999999999997  0.57889  0.48627000000000004  1.0000
  H   H32       1.0  0.24643  0.46446000000000004  0.30121  1.0000
  C   C1        1.0  0.6882699999999997  0.61736  0.38711  1.0000
  C   C2        1.0  0.6109899999999998  0.69081  0.46888  1.0000
  C   C3        1.0  0.5709299999999999  0.97932  0.09828  1.0000
  C   C4        1.0  0.7129299999999997  0.8926199999999999  0.0447  1.0000
  C   C5        1.0  0.77177  0.15174  0.8930000000000001  1.0000
  C   C6        1.0  0.9648999999999999  0.07657  0.84182  1.0000
  C   C7        1.0  0.8328299999999997  0.41893  0.56361  1.0000
  C   C8        1.0  0.83428  0.49244  0.6472500000000001  1.0000
  C   C9        1.0  0.84176  0.66097  0.08784  1.0000
  C   C10       1.0  0.7145899999999997  0.5888099999999998  0.16237  1.0000
  C   C11       1.0  0.31916999999999995  0.95144  0.42409  1.0000
  C   C12       1.0  0.26761  0.99003  0.32543  1.0000
  C   C13       1.0  0.8217899999999999  0.45987  0.8883999999999999  1.0000
  C   C14       1.0  0.68154  0.39218  0.9640700000000001  1.0000
  C   C15       1.0  0.15251999999999996  0.12666  0.57828  1.0000
  C   C16       1.0  0.96482  0.19928  0.53604  1.0000
  C   C17       1.0  0.17217  0.3419  0.9016699999999999  1.0000
  C   C18       1.0  0.32818  0.42327  0.84443  1.0000
  C   C19       1.0  0.69842  0.0573  0.58806  1.0000
  C   C20       1.0  0.6907099999999999  0.9951099999999999  0.67826  1.0000
  C   C21       1.0  0.22008  0.53856  0.11869  1.0000
  C   C22       1.0  0.34534999999999993  0.60408  0.03839  1.0000
  C   C23       1.0  0.8582299999999998  0.8790199999999999  0.41608000000000006  1.0000
  C   C24       1.0  0.03389  0.80369  0.46053  1.0000
  C   C25       1.0  0.33681  0.38232999999999995  0.59381  1.0000
  C   C26       1.0  0.3951799999999999  0.29247999999999996  0.52816  1.0000
  C   C27       1.0  0.36574999999999996  0.03557  0.91114  1.0000
  C   C28       1.0  0.23276  0.12370999999999999  0.96513  1.0000
  C   C29       1.0  0.19147999999999998  0.85837  0.1029  1.0000
  C   C30       1.0  0.9872399999999998  0.92281  0.16318  1.0000
  C   C31       1.0  0.18179999999999993  0.56512  0.43254000000000004  1.0000
  C   C32       1.0  0.22028999999999993  0.50647  0.33852  1.0000
  N   N1        1.0  0.6313299999999997  0.67508  0.35852000000000006  1.0000
  N   N2        1.0  0.5816499999999999  0.72256  0.41113  1.0000
  N   N3        1.0  0.678  0.62422  0.45673  1.0000
  N   N4        1.0  0.53988  0.9242299999999999  0.13882  1.0000
  N   N5        1.0  0.6318299999999999  0.86828  0.10400000000000001  1.0000
  N   N6        1.0  0.67952  0.9626599999999998  0.03825  1.0000
  N   N7        1.0  0.8286999999999995  0.17771999999999996  0.8317300000000001  1.0000
  N   N8        1.0  0.9567999999999999  0.12985  0.7990600000000001  1.0000
  N   N9        1.0  0.8518199999999998  0.08788  0.90145  1.0000
  N   N10       1.0  0.8682499999999999  0.38227  0.6176600000000001  1.0000
  N   N11       1.0  0.8691499999999999  0.42957  0.67211  1.0000
  N   N12       1.0  0.80926  0.48896  0.5791  1.0000
  N   N13       1.0  0.7931299999999998  0.69837  0.1444  1.0000
  N   N14       1.0  0.71215  0.65173  0.1929  1.0000
  N   N15       1.0  0.7957499999999997  0.5915  0.09634  1.0000
  N   N16       1.0  0.3907899999999999  0.90419  0.37839  1.0000
  N   N17       1.0  0.3580899999999999  0.9293100000000001  0.31488  1.0000
  N   N18       1.0  0.24001999999999998  0.006639999999999999  0.39343  1.0000
  N   N19       1.0  0.7795  0.39945  0.85714  1.0000
  N   N20       1.0  0.6888599999999999  0.35539  0.9061100000000001  1.0000
  N   N21       1.0  0.76304  0.45843999999999996  0.95651  1.0000
  N   N22       1.0  0.07613999999999999  0.16623  0.62987  1.0000
  N   N23       1.0  0.95591  0.21306000000000003  0.60279  1.0000
  N   N24       1.0  0.08629999999999995  0.14486  0.51794  1.0000
  N   N25       1.0  0.22247999999999996  0.31517999999999996  0.8396800000000001  1.0000
  N   N26       1.0  0.3227  0.36795  0.8025  1.0000
  N   N27       1.0  0.23489999999999997  0.40979  0.9072300000000001  1.0000
  N   N28       1.0  0.60519  0.09508  0.63784  1.0000
  N   N29       1.0  0.59966  0.054680000000000006  0.69607  1.0000
  N   N30       1.0  0.7555299999999998  0.9935899999999999  0.61041  1.0000
  N   N31       1.0  0.26014  0.60093  0.1465  1.0000
  N   N32       1.0  0.34046  0.6436  0.09456  1.0000
  N   N33       1.0  0.27089  0.53733  0.05007  1.0000
  N   N34       1.0  0.9223  0.8352  0.36581  1.0000
  N   N35       1.0  0.036639999999999985  0.78691  0.39436000000000004  1.0000
  N   N36       1.0  0.92406  0.86187  0.47676  1.0000
  N   N37       1.0  0.3862099999999999  0.33079  0.63274  1.0000
  N   N38       1.0  0.4245599999999998  0.27244  0.59071  1.0000
  N   N39       1.0  0.34047  0.36135  0.52699  1.0000
  N   N40       1.0  0.39839999999999987  0.09137  0.8712700000000001  1.0000
  N   N41       1.0  0.3135299999999999  0.1485  0.9063  1.0000
  N   N42       1.0  0.26030999999999993  0.0529  0.9712399999999999  1.0000
  N   N43       1.0  0.14323  0.82439  0.16084  1.0000
  N   N44       1.0  0.008400000000000003  0.8652799999999999  0.19941  1.0000
  N   N45       1.0  0.09819999999999998  0.9208099999999999  0.10206  1.0000
  N   N46       1.0  0.15402  0.61012  0.38392  1.0000
  N   N47       1.0  0.17881999999999998  0.57226  0.32297  1.0000
  N   N48       1.0  0.2245  0.49883  0.40719000000000005  1.0000
