data_image0
_chemical_formula_structural       Ag4H64C40S16O8
_chemical_formula_sum              "Ag4 H64 C40 S16 O8"
_cell_length_a       8.1161
_cell_length_b       11.102969999999997
_cell_length_c       17.42235
_cell_angle_alpha    89.91776
_cell_angle_beta     89.99357
_cell_angle_gamma    89.95944999999999

_symmetry_space_group_name_H-M    'P 1'
_symmetry_Int_Tables_number       1

loop_
  _symmetry_equiv_pos_as_xyz
  'x,y,z'

loop_
  _atom_site_type_symbol
  _atom_site_label
  _atom_site_symmetry_multiplicity
  _atom_site_fract_x
  _atom_site_fract_y
  _atom_site_fract_z
  _atom_site_occupancy
  Ag  Ag1       1.0  0.27258  0.04138  0.13078  1.0000
  Ag  Ag2       1.0  0.22948  0.95922  0.63057  1.0000
  Ag  Ag3       1.0  0.7315  0.53922  0.36889  1.0000
  Ag  Ag4       1.0  0.76925  0.45959  0.8692  1.0000
  H   H1        1.0  0.52208  0.35852  0.1789  1.0000
  H   H2        1.0  0.3343000000000001  0.43981000000000003  0.17839  1.0000
  H   H3        1.0  0.6344  0.33155  0.02343  1.0000
  H   H4        1.0  0.58162  0.47435000000000005  0.05927  1.0000
  H   H5        1.0  0.34655  0.62554  0.9027  1.0000
  H   H6        1.0  0.32663  0.58385  0.00087  1.0000
  H   H7        1.0  0.13507  0.4119900000000001  0.96045  1.0000
  H   H8        1.0  0.15987  0.45725  0.86286  1.0000
  H   H9        1.0  0.88253  0.6926000000000001  0.03775  1.0000
  H   H10       1.0  0.0852  0.6395600000000001  0.04878  1.0000
  H   H11       1.0  0.7191400000000002  0.5913400000000001  0.15411  1.0000
  H   H12       1.0  0.92458  0.61275  0.18151  1.0000
  H   H13       1.0  0.01788  0.34985  0.30856  1.0000
  H   H14       1.0  0.10141  0.45855  0.24511  1.0000
  H   H15       1.0  0.05948  0.30115  0.13475  1.0000
  H   H16       1.0  0.00205  0.19672000000000003  0.20616  1.0000
  H   H17       1.0  0.9777  0.64233  0.67862  1.0000
  H   H18       1.0  0.16446  0.5603000000000001  0.67855  1.0000
  H   H19       1.0  0.86555  0.66784  0.52318  1.0000
  H   H20       1.0  0.91874  0.52514  0.55941  1.0000
  H   H21       1.0  0.15269  0.3739  0.40293  1.0000
  H   H22       1.0  0.17403  0.41569  0.50092  1.0000
  H   H23       1.0  0.36604  0.58692  0.45957  1.0000
  H   H24       1.0  0.33952  0.54186  0.36213  1.0000
  H   H25       1.0  0.61931  0.3074  0.53694  1.0000
  H   H26       1.0  0.41593  0.35883  0.54835  1.0000
  H   H27       1.0  0.77948  0.40840000000000004  0.65263  1.0000
  H   H28       1.0  0.57405  0.38794  0.6802  1.0000
  H   H29       1.0  0.48426  0.64992  0.8078199999999999  1.0000
  H   H30       1.0  0.39942  0.54118  0.74499  1.0000
  H   H31       1.0  0.4398  0.69863  0.63402  1.0000
  H   H32       1.0  0.49822000000000005  0.80294  0.70506  1.0000
  H   H33       1.0  0.47737  0.8567400000000001  0.32076  1.0000
  H   H34       1.0  0.66279  0.94022  0.32054  1.0000
  H   H35       1.0  0.3649000000000001  0.8339100000000002  0.47589999999999993  1.0000
  H   H36       1.0  0.41835  0.9766300000000001  0.43986  1.0000
  H   H37       1.0  0.65144  0.12728  0.5966  1.0000
  H   H38       1.0  0.67405  0.085  0.49873  1.0000
  H   H39       1.0  0.8643  0.91325  0.54118  1.0000
  H   H40       1.0  0.83728  0.95961  0.63834  1.0000
  H   H41       1.0  0.1208  0.19296000000000002  0.4642899999999999  1.0000
  H   H42       1.0  0.917  0.14325  0.45189  1.0000
  H   H43       1.0  0.27642  0.09388  0.34722  1.0000
  H   H44       1.0  0.0704  0.11193  0.32005  1.0000
  H   H45       1.0  0.98349  0.85129  0.19234  1.0000
  H   H46       1.0  0.8988  0.9597  0.25545  1.0000
  H   H47       1.0  0.9407500000000001  0.8023200000000001  0.36614  1.0000
  H   H48       1.0  0.9995800000000001  0.6982300000000001  0.295  1.0000
  H   H49       1.0  0.02344  0.14326  0.82071  1.0000
  H   H50       1.0  0.83734  0.06048000000000001  0.8207  1.0000
  H   H51       1.0  0.13573  0.1675  0.97582  1.0000
  H   H52       1.0  0.08337  0.02495  0.93938  1.0000
  H   H53       1.0  0.85055  0.87237  0.09641  1.0000
  H   H54       1.0  0.82827  0.91498  0.9984800000000001  1.0000
  H   H55       1.0  0.63824  0.08661000000000002  0.04045  1.0000
  H   H56       1.0  0.66503  0.04071  0.13777  1.0000
  H   H57       1.0  0.38054  0.80687  0.9644799999999999  1.0000
  H   H58       1.0  0.5852  0.85495  0.9524799999999999  1.0000
  H   H59       1.0  0.22767  0.90599  0.84744  1.0000
  H   H60       1.0  0.43328  0.88866  0.8194599999999999  1.0000
  H   H61       1.0  0.51806  0.14919  0.69147  1.0000
  H   H62       1.0  0.6031000000000002  0.04084  0.75473  1.0000
  H   H63       1.0  0.56067  0.19774  0.86524  1.0000
  H   H64       1.0  0.50158  0.30209  0.79407  1.0000
  C   C1        1.0  0.39385  0.35626  0.15808  1.0000
  C   C2        1.0  0.38351  0.34399  0.07176  1.0000
  C   C3        1.0  0.52909  0.3955000000000001  0.029740000000000003  1.0000
  C   C4        1.0  0.32178  0.55032  0.94169  1.0000
  C   C5        1.0  0.15801  0.4891200000000001  0.9224100000000001  1.0000
  C   C6        1.0  0.96057  0.61249  0.030180000000000002  1.0000
  C   C7        1.0  0.89851  0.5068  0.07744  1.0000
  C   C8        1.0  0.8397  0.54547  0.15695  1.0000
  C   C9        1.0  0.02046  0.37934000000000007  0.24846000000000001  1.0000
  C   C10       1.0  0.07516  0.27808  0.19564  1.0000
  C   C11       1.0  0.10597  0.64412  0.6579  1.0000
  C   C12       1.0  0.11655  0.65595  0.57151  1.0000
  C   C13       1.0  0.97105  0.60404  0.52966  1.0000
  C   C14       1.0  0.1782  0.44914  0.44164  1.0000
  C   C15       1.0  0.34196  0.50994  0.42172  1.0000
  C   C16       1.0  0.53986  0.38674  0.52912  1.0000
  C   C17       1.0  0.60125  0.49327  0.5757  1.0000
  C   C18       1.0  0.65941  0.45493  0.65551  1.0000
  C   C19       1.0  0.4804600000000001  0.62037  0.7478  1.0000
  C   C20       1.0  0.425  0.72158  0.69493  1.0000
  C   C21       1.0  0.60561  0.85613  0.34156  1.0000
  C   C22       1.0  0.61606  0.84545  0.42805  1.0000
  C   C23       1.0  0.47036  0.89764  0.46968000000000004  1.0000
  C   C24       1.0  0.6771  0.05181  0.55808  1.0000
  C   C25       1.0  0.8403800000000002  0.9907600000000001  0.5786  1.0000
  C   C26       1.0  0.04017000000000001  0.11422000000000003  0.47152999999999995  1.0000
  C   C27       1.0  0.10065  0.00774  0.42466  1.0000
  C   C28       1.0  0.15748  0.04601  0.34467  1.0000
  C   C29       1.0  0.9802  0.88065  0.2524  1.0000
  C   C30       1.0  0.92567  0.77928  0.30527  1.0000
  C   C31       1.0  0.89523  0.14435  0.84145  1.0000
  C   C32       1.0  0.88455  0.15509  0.9278799999999999  1.0000
  C   C33       1.0  0.03085  0.10331  0.96955  1.0000
  C   C34       1.0  0.82492  0.94794  0.057819999999999996  1.0000
  C   C35       1.0  0.66176  0.00919  0.07817  1.0000
  C   C36       1.0  0.46217  0.88505  0.9716799999999999  1.0000
  C   C37       1.0  0.40346  0.9919  0.9244699999999999  1.0000
  C   C38       1.0  0.3463100000000001  0.95416  0.84448  1.0000
  C   C39       1.0  0.52158  0.11982000000000001  0.75158  1.0000
  C   C40       1.0  0.57576  0.22113000000000002  0.80437  1.0000
  S   S1        1.0  0.29055  0.23528  0.2116  1.0000
  S   S2        1.0  0.48544  0.43779  0.9310299999999999  1.0000
  S   S3        1.0  0.98081  0.59116  0.92613  1.0000
  S   S4        1.0  0.80902  0.42766000000000004  0.22805  1.0000
  S   S5        1.0  0.20989  0.7647  0.71124  1.0000
  S   S6        1.0  0.014700000000000001  0.56176  0.43103  1.0000
  S   S7        1.0  0.51869  0.40743  0.42521  1.0000
  S   S8        1.0  0.6914000000000002  0.57212  0.72668  1.0000
  S   S9        1.0  0.71096  0.73549  0.28906  1.0000
  S   S10       1.0  0.51321  0.93955  0.5684  1.0000
  S   S11       1.0  0.01756  0.09268999999999998  0.57527  1.0000
  S   S12       1.0  0.19087  0.929  0.27353  1.0000
  S   S13       1.0  0.79052  0.26517  0.78846  1.0000
  S   S14       1.0  0.98872  0.06026  0.06824  1.0000
  S   S15       1.0  0.4841200000000001  0.90762  0.07536  1.0000
  S   S16       1.0  0.31127  0.07112  0.7732599999999998  1.0000
  O   O1        1.0  0.25877  0.29782  0.04042  1.0000
  O   O2        1.0  0.4148300000000001  0.09801  0.9472  1.0000
  O   O3        1.0  0.24122  0.70213  0.54002  1.0000
  O   O4        1.0  0.09045  0.90142  0.44734  1.0000
  O   O5        1.0  0.741  0.8001700000000002  0.4598  1.0000
  O   O6        1.0  0.59112  0.59972  0.55298  1.0000
  O   O7        1.0  0.759  0.19978  0.95929  1.0000
  O   O8        1.0  0.9092900000000003  0.39997  0.05579  1.0000
