data_image0
_chemical_formula_structural       In6H36C48N6O30
_chemical_formula_sum              "In6 H36 C48 N6 O30"
_cell_length_a       8.07857
_cell_length_b       17.39647
_cell_length_c       17.400519999999997
_cell_angle_alpha    117.69412000000004
_cell_angle_beta     98.92106
_cell_angle_gamma    98.88683

_symmetry_space_group_name_H-M    'P 1'
_symmetry_Int_Tables_number       1

loop_
  _symmetry_equiv_pos_as_xyz
  'x,y,z'

loop_
  _atom_site_type_symbol
  _atom_site_label
  _atom_site_symmetry_multiplicity
  _atom_site_fract_x
  _atom_site_fract_y
  _atom_site_fract_z
  _atom_site_occupancy
  In  In1       1.0  0.34393  0.57138  0.27103  1.0000
  In  In2       1.0  0.7721600000000002  0.69967  0.42870000000000014  1.0000
  In  In3       1.0  0.07279000000000006  0.7286100000000001  0.30004  1.0000
  In  In4       1.0  0.6560700000000003  0.4286200000000001  0.7289700000000002  1.0000
  In  In5       1.0  0.22784  0.30033  0.5713  1.0000
  In  In6       1.0  0.9272200000000002  0.2713800000000001  0.6999600000000001  1.0000
  H   H1        1.0  0.77253  0.59531  0.86655  1.0000
  H   H2        1.0  0.8790400000000002  0.5946600000000002  0.78849  1.0000
  H   H3        1.0  0.1246900000000001  0.6365300000000002  0.3793900000000001  1.0000
  H   H4        1.0  0.43041  0.5841300000000001  0.03803  1.0000
  H   H5        1.0  0.14836  0.52775  0.77796  1.0000
  H   H6        1.0  0.9092099999999999  0.61301  0.99902  1.0000
  H   H7        1.0  0.17667000000000002  0.2717200000000001  0.40516000000000013  1.0000
  H   H8        1.0  0.28357000000000004  0.19383000000000006  0.40507  1.0000
  H   H9        1.0  0.4869200000000001  0.74293  0.3639900000000001  1.0000
  H   H10       1.0  0.84568  0.45383  0.41591  1.0000
  H   H11       1.0  0.61959  0.25029000000000007  0.4722500000000001  1.0000
  H   H12       1.0  0.2956100000000001  0.38633  0.38721  1.0000
  H   H13       1.0  0.90667  0.13393  0.72891  1.0000
  H   H14       1.0  0.09118000000000002  0.21191000000000004  0.80658  1.0000
  H   H15       1.0  0.7451  0.6210499999999999  0.25732  1.0000
  H   H16       1.0  0.39157  0.96177  0.54584  1.0000
  H   H17       1.0  0.3710800000000001  0.22228  0.74987  1.0000
  H   H18       1.0  0.9101200000000005  0.0015800000000000059  0.61421  1.0000
  H   H19       1.0  0.22748000000000004  0.4046900000000001  0.13345  1.0000
  H   H20       1.0  0.12096000000000004  0.40534000000000003  0.21151  1.0000
  H   H21       1.0  0.87532  0.36347  0.6206  1.0000
  H   H22       1.0  0.5695900000000002  0.41587000000000013  0.9619700000000002  1.0000
  H   H23       1.0  0.8516400000000003  0.47225000000000006  0.22204000000000004  1.0000
  H   H24       1.0  0.09079  0.38699  0.00098  1.0000
  H   H25       1.0  0.82334  0.72828  0.59484  1.0000
  H   H26       1.0  0.71643  0.8061600000000001  0.59493  1.0000
  H   H27       1.0  0.5130800000000004  0.25707000000000013  0.6360100000000002  1.0000
  H   H28       1.0  0.15433  0.54617  0.58408  1.0000
  H   H29       1.0  0.38041  0.74971  0.52775  1.0000
  H   H30       1.0  0.70439  0.6136700000000002  0.61279  1.0000
  H   H31       1.0  0.09334000000000005  0.8660600000000003  0.27109  1.0000
  H   H32       1.0  0.9088200000000001  0.78808  0.19342  1.0000
  H   H33       1.0  0.2549  0.37894  0.74268  1.0000
  H   H34       1.0  0.6084300000000001  0.03823000000000007  0.4541600000000001  1.0000
  H   H35       1.0  0.6289200000000001  0.7777200000000001  0.25013  1.0000
  H   H36       1.0  0.08989000000000003  0.99842  0.38579  1.0000
  C   C1        1.0  0.17275  0.62053  0.12176  1.0000
  C   C2        1.0  0.1685000000000001  0.59816  0.027360000000000002  1.0000
  C   C3        1.0  0.31341  0.57986  0.99429  1.0000
  C   C4        1.0  0.30701  0.5564  0.90505  1.0000
  C   C5        1.0  0.46683  0.54223  0.87198  1.0000
  C   C6        1.0  0.15492000000000003  0.54936  0.84821  1.0000
  C   C7        1.0  0.012990000000000022  0.5713400000000001  0.88294  1.0000
  C   C8        1.0  0.019670000000000173  0.5961300000000003  0.9723100000000002  1.0000
  C   C9        1.0  0.552  0.50106  0.37921  1.0000
  C   C10       1.0  0.56979  0.42914000000000013  0.40173  1.0000
  C   C11       1.0  0.7329600000000001  0.4143100000000001  0.42005  1.0000
  C   C12       1.0  0.7502300000000002  0.34851000000000004  0.44344  1.0000
  C   C13       1.0  0.9246900000000001  0.3299100000000001  0.45783  1.0000
  C   C14       1.0  0.60499  0.29884  0.45049  1.0000
  C   C15       1.0  0.4410700000000002  0.31168000000000007  0.4285600000000001  1.0000
  C   C16       1.0  0.42291000000000006  0.37629  0.40384  1.0000
  C   C17       1.0  0.05054  0.8782  0.49908  1.0000
  C   C18       1.0  0.14086000000000007  0.97281  0.5708600000000001  1.0000
  C   C19       1.0  0.31891000000000014  0.005720000000000006  0.5856  1.0000
  C   C20       1.0  0.40242000000000006  0.09492000000000003  0.6515000000000001  1.0000
  C   C21       1.0  0.59553  0.12792000000000003  0.6704100000000001  1.0000
  C   C22       1.0  0.30728  0.15197999999999995  0.70126  1.0000
  C   C23       1.0  0.13054000000000002  0.11746000000000005  0.68855  1.0000
  C   C24       1.0  0.047380000000000096  0.02805000000000008  0.6239500000000002  1.0000
  C   C25       1.0  0.82725  0.3794700000000001  0.87824  1.0000
  C   C26       1.0  0.8315  0.40183  0.97264  1.0000
  C   C27       1.0  0.6865900000000001  0.42014  0.0057  1.0000
  C   C28       1.0  0.693  0.4436  0.09495  1.0000
  C   C29       1.0  0.53317  0.45777000000000007  0.12802  1.0000
  C   C30       1.0  0.84508  0.4506400000000001  0.15179  1.0000
  C   C31       1.0  0.9870200000000003  0.4286600000000001  0.11706  1.0000
  C   C32       1.0  0.98033  0.40387  0.02769  1.0000
  C   C33       1.0  0.448  0.49894  0.62079  1.0000
  C   C34       1.0  0.43021  0.57086  0.59827  1.0000
  C   C35       1.0  0.26704000000000006  0.58569  0.5799500000000001  1.0000
  C   C36       1.0  0.24977000000000005  0.6514800000000002  0.55656  1.0000
  C   C37       1.0  0.07532000000000007  0.6700900000000001  0.5421700000000002  1.0000
  C   C38       1.0  0.3950100000000001  0.70116  0.54951  1.0000
  C   C39       1.0  0.55893  0.68832  0.57143  1.0000
  C   C40       1.0  0.57709  0.6237  0.59616  1.0000
  C   C41       1.0  0.94947  0.1218  0.50092  1.0000
  C   C42       1.0  0.85915  0.027189999999999985  0.42914  1.0000
  C   C43       1.0  0.68109  0.9942800000000002  0.4143900000000001  1.0000
  C   C44       1.0  0.59758  0.90507  0.3485  1.0000
  C   C45       1.0  0.40447  0.8720700000000001  0.32959  1.0000
  C   C46       1.0  0.69272  0.84802  0.2987400000000001  1.0000
  C   C47       1.0  0.86946  0.88254  0.31145  1.0000
  C   C48       1.0  0.95263  0.97194  0.3760400000000001  1.0000
  N   N1        1.0  0.85632  0.5666800000000002  0.8274000000000002  1.0000
  N   N2        1.0  0.28918000000000005  0.26083000000000006  0.4333100000000001  1.0000
  N   N3        1.0  0.02963000000000009  0.17314000000000004  0.7395900000000002  1.0000
  N   N4        1.0  0.14368000000000003  0.4333200000000001  0.1726  1.0000
  N   N5        1.0  0.71082  0.73917  0.56669  1.0000
  N   N6        1.0  0.9703700000000001  0.82686  0.26041  1.0000
  O   O1        1.0  0.29871  0.60665  0.16314  1.0000
  O   O2        1.0  0.050449999999999995  0.65247  0.15376  1.0000
  O   O3        1.0  0.44190999999999997  0.47352  0.79183  1.0000
  O   O4        1.0  0.60962  0.59651  0.92128  1.0000
  O   O5        1.0  0.13227000000000005  0.62126  0.31787  1.0000
  O   O6        1.0  0.6917900000000001  0.5568000000000001  0.3939600000000001  1.0000
  O   O7        1.0  0.39811  0.50047  0.34615  1.0000
  O   O8        1.0  0.96769  0.31792  0.52616  1.0000
  O   O9        1.0  0.014519999999999988  0.32578  0.40426  1.0000
  O   O10       1.0  0.50984  0.6966200000000001  0.37913000000000013  1.0000
  O   O11       1.0  0.13375000000000004  0.8370800000000002  0.44287  1.0000
  O   O12       1.0  0.89776  0.84578  0.50021  1.0000
  O   O13       1.0  0.65037  0.20812  0.68195  1.0000
  O   O14       1.0  0.6896700000000002  0.0788500000000001  0.6754900000000003  1.0000
  O   O15       1.0  0.8147400000000004  0.6823700000000003  0.30388  1.0000
  O   O16       1.0  0.7013000000000003  0.39335  0.83686  1.0000
  O   O17       1.0  0.9495500000000001  0.34753  0.84624  1.0000
  O   O18       1.0  0.5581  0.52648  0.20817000000000002  1.0000
  O   O19       1.0  0.39038000000000006  0.4034900000000001  0.07872  1.0000
  O   O20       1.0  0.8677300000000001  0.37874  0.68213  1.0000
  O   O21       1.0  0.30821  0.4432  0.60604  1.0000
  O   O22       1.0  0.6019000000000002  0.49953000000000003  0.65385  1.0000
  O   O23       1.0  0.03230999999999996  0.68207  0.47384  1.0000
  O   O24       1.0  0.9854900000000001  0.67422  0.59574  1.0000
  O   O25       1.0  0.49016000000000015  0.30338000000000015  0.6208700000000003  1.0000
  O   O26       1.0  0.8662500000000004  0.16292  0.55713  1.0000
  O   O27       1.0  0.10224  0.15421999999999997  0.49979  1.0000
  O   O28       1.0  0.34962999999999994  0.79187  0.31804  1.0000
  O   O29       1.0  0.3103400000000001  0.92114  0.32451000000000013  1.0000
  O   O30       1.0  0.18526  0.31762  0.69611  1.0000
