data_image0
_chemical_formula_structural       Mn12H40C32O48
_chemical_formula_sum              "Mn12 H40 C32 O48"
_cell_length_a       11.04857
_cell_length_b       11.854800000000001
_cell_length_c       16.01748
_cell_angle_alpha    91.66666
_cell_angle_beta     90.02862000000002
_cell_angle_gamma    89.87289

_symmetry_space_group_name_H-M    'P 1'
_symmetry_Int_Tables_number       1

loop_
  _symmetry_equiv_pos_as_xyz
  'x,y,z'

loop_
  _atom_site_type_symbol
  _atom_site_label
  _atom_site_symmetry_multiplicity
  _atom_site_fract_x
  _atom_site_fract_y
  _atom_site_fract_z
  _atom_site_occupancy
  Mn  Mn1       1.0  0.9596500000000001  0.7398700000000001  0.86495  1.0000
  Mn  Mn2       1.0  0.17291  0.7604200000000001  0.71529  1.0000
  Mn  Mn3       1.0  0.4579900000000001  0.76181  0.63547  1.0000
  Mn  Mn4       1.0  0.67393  0.7397599999999999  0.78441  1.0000
  Mn  Mn5       1.0  0.04035  0.26012  0.13505  1.0000
  Mn  Mn6       1.0  0.82709  0.23958000000000004  0.28471  1.0000
  Mn  Mn7       1.0  0.54201  0.23819  0.36453  1.0000
  Mn  Mn8       1.0  0.32607  0.26024  0.21559  1.0000
  Mn  Mn9       1.0  0.0  0.0  0.0  1.0000
  Mn  Mn10      1.0  0.5  0.5000000000000001  0.5  1.0000
  Mn  Mn11      1.0  0.0  0.5  0.0  1.0000
  Mn  Mn12      1.0  0.5  0.0  0.5  1.0000
  H   H1        1.0  0.09681000000000001  0.0216  0.75234  1.0000
  H   H2        1.0  0.65244  0.9396499999999999  0.91491  1.0000
  H   H3        1.0  0.87012  0.66408  0.5403  1.0000
  H   H4        1.0  0.73838  0.6874100000000001  0.60436  1.0000
  H   H5        1.0  0.8108400000000001  0.55467  0.60096  1.0000
  H   H6        1.0  0.12093  0.80987  0.09071  1.0000
  H   H7        1.0  0.74011  0.49122  0.95309  1.0000
  H   H8        1.0  0.277  0.45258000000000004  0.7629  1.0000
  H   H9        1.0  0.35284  0.4855  0.85773  1.0000
  H   H10       1.0  0.34166  0.58891  0.77838  1.0000
  H   H11       1.0  0.5990000000000001  0.48043  0.74789  1.0000
  H   H12       1.0  0.15218  0.56057  0.58656  1.0000
  H   H13       1.0  0.37086  0.83545  0.96012  1.0000
  H   H14       1.0  0.23865  0.81265  0.8962699999999998  1.0000
  H   H15       1.0  0.31062  0.94537  0.89985  1.0000
  H   H16       1.0  0.62007  0.68791  0.41022  1.0000
  H   H17       1.0  0.23604000000000003  0.010189999999999996  0.54792  1.0000
  H   H18       1.0  0.7764800000000001  0.04829  0.73685  1.0000
  H   H19       1.0  0.85049  0.014460000000000002  0.64137  1.0000
  H   H20       1.0  0.8385400000000001  0.91083  0.72043  1.0000
  H   H21       1.0  0.9032  0.9784  0.24766  1.0000
  H   H22       1.0  0.34756  0.06034  0.08509  1.0000
  H   H23       1.0  0.12988  0.33592  0.4597  1.0000
  H   H24       1.0  0.26162  0.31259  0.39564  1.0000
  H   H25       1.0  0.18916  0.44533  0.39904  1.0000
  H   H26       1.0  0.87907  0.19013  0.90929  1.0000
  H   H27       1.0  0.25989  0.50878  0.04691  1.0000
  H   H28       1.0  0.7230000000000001  0.54742  0.2371  1.0000
  H   H29       1.0  0.64716  0.5145  0.14227  1.0000
  H   H30       1.0  0.65834  0.41109000000000007  0.22162  1.0000
  H   H31       1.0  0.401  0.51957  0.25211  1.0000
  H   H32       1.0  0.84782  0.43943  0.41344  1.0000
  H   H33       1.0  0.62914  0.16455  0.03988  1.0000
  H   H34       1.0  0.76135  0.18735000000000002  0.10373  1.0000
  H   H35       1.0  0.68938  0.054630000000000005  0.10015  1.0000
  H   H36       1.0  0.37993000000000005  0.31209  0.58977  1.0000
  H   H37       1.0  0.76396  0.98981  0.45208  1.0000
  H   H38       1.0  0.22352000000000002  0.95171  0.26315  1.0000
  H   H39       1.0  0.14951000000000003  0.9855400000000001  0.3586299999999999  1.0000
  H   H40       1.0  0.16146  0.08917  0.27957  1.0000
  C   C1        1.0  0.06314  0.9772  0.80713  1.0000
  C   C2        1.0  0.74981  0.9208599999999999  0.91992  1.0000
  C   C3        1.0  0.90831  0.68092  0.67126  1.0000
  C   C4        1.0  0.82688  0.64616  0.59992  1.0000
  C   C5        1.0  0.07801  0.75727  0.04138  1.0000
  C   C6        1.0  0.7633700000000001  0.56256  0.91375  1.0000
  C   C7        1.0  0.17566  0.55822  0.84779  1.0000
  C   C8        1.0  0.29471  0.52073  0.80938  1.0000
  C   C9        1.0  0.56567  0.52495  0.69295  1.0000
  C   C10       1.0  0.24966000000000002  0.57779  0.5806  1.0000
  C   C11       1.0  0.40762000000000004  0.8191500000000002  0.82895  1.0000
  C   C12       1.0  0.32698  0.8538699999999999  0.90076  1.0000
  C   C13       1.0  0.57775  0.7407200000000002  0.45978  1.0000
  C   C14       1.0  0.26034  0.9380399999999999  0.58633  1.0000
  C   C15       1.0  0.67281  0.9440600000000001  0.65237  1.0000
  C   C16       1.0  0.7925  0.9801599999999999  0.69003  1.0000
  C   C17       1.0  0.93686  0.0228  0.19287  1.0000
  C   C18       1.0  0.25019  0.07914  0.08008  1.0000
  C   C19       1.0  0.09169  0.31907  0.32874  1.0000
  C   C20       1.0  0.17312  0.35383  0.40008  1.0000
  C   C21       1.0  0.92199  0.24273  0.95862  1.0000
  C   C22       1.0  0.23663  0.43743  0.08624999999999997  1.0000
  C   C23       1.0  0.8243400000000001  0.44178  0.15221  1.0000
  C   C24       1.0  0.7052900000000001  0.47927  0.19062  1.0000
  C   C25       1.0  0.43433000000000005  0.4750400000000001  0.30705  1.0000
  C   C26       1.0  0.75034  0.42221000000000003  0.4194  1.0000
  C   C27       1.0  0.59238  0.18085  0.17105  1.0000
  C   C28       1.0  0.67303  0.14612  0.09924  1.0000
  C   C29       1.0  0.42225  0.25927  0.54022  1.0000
  C   C30       1.0  0.73966  0.06196  0.41367  1.0000
  C   C31       1.0  0.32719  0.05594  0.34763  1.0000
  C   C32       1.0  0.2075  0.01983  0.30997  1.0000
  O   O1        1.0  0.030630000000000004  0.03439  0.87032  1.0000
  O   O2        1.0  0.060910000000000006  0.86848  0.79974  1.0000
  O   O3        1.0  0.8120000000000002  0.9779099999999998  0.97119  1.0000
  O   O4        1.0  0.78871  0.84022  0.87107  1.0000
  O   O5        1.0  0.86072  0.70285  0.74397  1.0000
  O   O6        1.0  0.02091  0.68562  0.6578  1.0000
  O   O7        1.0  0.02462  0.81159  0.98295  1.0000
  O   O8        1.0  0.08546  0.65204  0.04596  1.0000
  O   O9        1.0  0.87276  0.59951  0.92119  1.0000
  O   O10       1.0  0.68322  0.59996  0.86625  1.0000
  O   O11       1.0  0.12772  0.65228  0.82406  1.0000
  O   O12       1.0  0.12782  0.4958  0.90065  1.0000
  O   O13       1.0  0.53329  0.468  0.62966  1.0000
  O   O14       1.0  0.56352  0.63374  0.70026  1.0000
  O   O15       1.0  0.30979  0.51959  0.52866  1.0000
  O   O16       1.0  0.29079  0.65774  0.62915  1.0000
  O   O17       1.0  0.35883  0.7998300000000002  0.75618  1.0000
  O   O18       1.0  0.52016  0.81189  0.84212  1.0000
  O   O19       1.0  0.52691  0.6866  0.51933  1.0000
  O   O20       1.0  0.5835  0.8458000000000001  0.45437  1.0000
  O   O21       1.0  0.37033  0.90272  0.57894  1.0000
  O   O22       1.0  0.18051000000000006  0.8982100000000001  0.63294  1.0000
  O   O23       1.0  0.62459  0.8507400000000002  0.67663  1.0000
  O   O24       1.0  0.6250700000000001  0.00676  0.59944  1.0000
  O   O25       1.0  0.96938  0.96561  0.12968  1.0000
  O   O26       1.0  0.93909  0.13151  0.20026  1.0000
  O   O27       1.0  0.188  0.022090000000000002  0.02881  1.0000
  O   O28       1.0  0.21129  0.15978  0.12893  1.0000
  O   O29       1.0  0.13928  0.29715  0.25603  1.0000
  O   O30       1.0  0.97909  0.31438  0.3422  1.0000
  O   O31       1.0  0.97538  0.18841000000000002  0.01705  1.0000
  O   O32       1.0  0.91454  0.34795  0.95404  1.0000
  O   O33       1.0  0.12724  0.40048  0.07881  1.0000
  O   O34       1.0  0.31678  0.40004000000000006  0.13375  1.0000
  O   O35       1.0  0.8722900000000001  0.34772000000000003  0.17594  1.0000
  O   O36       1.0  0.87218  0.5042  0.09935  1.0000
  O   O37       1.0  0.46671  0.53199  0.37034  1.0000
  O   O38       1.0  0.43648000000000003  0.36626  0.29974  1.0000
  O   O39       1.0  0.69021  0.4804  0.47134  1.0000
  O   O40       1.0  0.70922  0.34225  0.37085  1.0000
  O   O41       1.0  0.64117  0.20017  0.24382  1.0000
  O   O42       1.0  0.47984000000000004  0.18811  0.15788  1.0000
  O   O43       1.0  0.47309  0.3134  0.48067  1.0000
  O   O44       1.0  0.4165  0.15420000000000006  0.54563  1.0000
  O   O45       1.0  0.62967  0.09728000000000002  0.42106  1.0000
  O   O46       1.0  0.8195  0.10179000000000002  0.36706  1.0000
  O   O47       1.0  0.37541  0.14926  0.32337  1.0000
  O   O48       1.0  0.37493  0.99324  0.40056  1.0000
