data_image0
_chemical_formula_structural       Cu8H48C48Br8N16
_chemical_formula_sum              "Cu8 H48 C48 Br8 N16"
_cell_length_a       12.63053
_cell_length_b       14.024130000000001
_cell_length_c       14.02413
_cell_angle_alpha    78.2107
_cell_angle_beta     63.12024
_cell_angle_gamma    63.12024

_space_group_name_H-M_alt    "P 1"
_space_group_IT_number       1

loop_
  _space_group_symop_operation_xyz
  'x, y, z'

loop_
  _atom_site_type_symbol
  _atom_site_label
  _atom_site_symmetry_multiplicity
  _atom_site_fract_x
  _atom_site_fract_y
  _atom_site_fract_z
  _atom_site_occupancy
  Cu  Cu1       1.0  0.8229500000000002  0.52883  0.9995300000000001  1.0000
  Cu  Cu2       1.0  0.35094999999999993  0.47152  0.00059  1.0000
  Cu  Cu3       1.0  0.6015199999999999  0.49945  0.9711400000000002  1.0000
  Cu  Cu4       1.0  0.07260000000000004  0.50045  0.02849  1.0000
  Cu  Cu5       1.0  0.8229500000000002  0.99953  0.52883  1.0000
  Cu  Cu6       1.0  0.35094999999999993  0.00059  0.47152  1.0000
  Cu  Cu7       1.0  0.6015199999999999  0.97113  0.49945  1.0000
  Cu  Cu8       1.0  0.07260000000000004  0.02849  0.50045  1.0000
  H   H1        1.0  0.034019999999999904  0.59616  0.24596000000000007  1.0000
  H   H2        1.0  0.09466  0.63992  0.11313  1.0000
  H   H3        1.0  0.5588200000000001  0.76585  0.07298  1.0000
  H   H4        1.0  0.5745999999999999  0.63576  0.12082000000000002  1.0000
  H   H5        1.0  0.8778200000000002  0.40267  0.75266  1.0000
  H   H6        1.0  0.8492000000000003  0.35888000000000003  0.8855  1.0000
  H   H7        1.0  0.39696999999999993  0.23537  0.9281300000000002  1.0000
  H   H8        1.0  0.33007999999999993  0.36551999999999996  0.88051  1.0000
  H   H9        1.0  0.8799999999999999  0.74679  0.90322  1.0000
  H   H10       1.0  0.9846900000000001  0.61388  0.8595300000000001  1.0000
  H   H11       1.0  0.57536  0.57249  0.7346  1.0000
  H   H12       1.0  0.46055  0.6201  0.86481  1.0000
  H   H13       1.0  0.53053  0.25346  0.09673000000000002  1.0000
  H   H14       1.0  0.45782  0.38624  0.14063  1.0000
  H   H15       1.0  0.88165  0.42766  0.26512  1.0000
  H   H16       1.0  0.94564  0.37972  0.13508  1.0000
  H   H17       1.0  0.034019999999999974  0.24596  0.59616  1.0000
  H   H18       1.0  0.09465999999999992  0.11313  0.6399200000000002  1.0000
  H   H19       1.0  0.5588200000000001  0.07298  0.76585  1.0000
  H   H20       1.0  0.5745999999999999  0.12082  0.63576  1.0000
  H   H21       1.0  0.8778200000000002  0.75266  0.4026700000000001  1.0000
  H   H22       1.0  0.8492000000000001  0.8854999999999998  0.3588800000000001  1.0000
  H   H23       1.0  0.3969700000000001  0.92813  0.23537  1.0000
  H   H24       1.0  0.33007999999999976  0.88051  0.36553000000000013  1.0000
  H   H25       1.0  0.8799999999999994  0.90322  0.7468000000000002  1.0000
  H   H26       1.0  0.9846900000000001  0.85953  0.61388  1.0000
  H   H27       1.0  0.57536  0.73459  0.57249  1.0000
  H   H28       1.0  0.46055000000000007  0.86481  0.6201  1.0000
  H   H29       1.0  0.5305299999999998  0.09673  0.2534600000000001  1.0000
  H   H30       1.0  0.45782000000000006  0.14063  0.38624  1.0000
  H   H31       1.0  0.88165  0.26512  0.42766000000000004  1.0000
  H   H32       1.0  0.94564  0.13508  0.37972  1.0000
  H   H33       1.0  0.07630999999999999  0.75208  0.2459  1.0000
  H   H34       1.0  0.9857099999999999  0.82814  0.17050000000000007  1.0000
  H   H35       1.0  0.3494999999999999  0.78252  0.21952  1.0000
  H   H36       1.0  0.424  0.69847  0.30301  1.0000
  H   H37       1.0  0.07631  0.24589  0.7520800000000001  1.0000
  H   H38       1.0  0.9857099999999999  0.1705  0.8281400000000001  1.0000
  H   H39       1.0  0.3494999999999999  0.21952000000000002  0.78253  1.0000
  H   H40       1.0  0.424  0.30301  0.69847  1.0000
  H   H41       1.0  0.07838000000000006  0.74694  0.7469400000000003  1.0000
  H   H42       1.0  0.06426999999999988  0.67119  0.6711900000000002  1.0000
  H   H43       1.0  0.3822200000000001  0.7184399999999999  0.7184400000000001  1.0000
  H   H44       1.0  0.3721500000000003  0.8022500000000001  0.80226  1.0000
  H   H45       1.0  0.5722  0.25313  0.25313  1.0000
  H   H46       1.0  0.40580000000000005  0.32886999999999994  0.32887000000000005  1.0000
  H   H47       1.0  0.8189500000000002  0.28148  0.28148000000000006  1.0000
  H   H48       1.0  0.9774000000000003  0.19771000000000002  0.19771  1.0000
  C   C1        1.0  0.8915600000000004  0.67621  0.18253  1.0000
  C   C2        1.0  0.6747700000000001  0.69887  0.16083  1.0000
  C   C3        1.0  0.011119999999999903  0.6633400000000002  0.19133000000000003  1.0000
  C   C4        1.0  0.56022  0.71303  0.14293  1.0000
  C   C5        1.0  0.75099  0.32351  0.8166500000000002  1.0000
  C   C6        1.0  0.5340699999999999  0.3019  0.8394400000000001  1.0000
  C   C7        1.0  0.86713  0.33564  0.8074200000000002  1.0000
  C   C8        1.0  0.41527000000000025  0.28817  0.85813  1.0000
  C   C9        1.0  0.8176899999999999  0.6829599999999999  0.8236600000000002  1.0000
  C   C10       1.0  0.62366  0.66071  0.8015200000000001  1.0000
  C   C11       1.0  0.9244499999999999  0.692  0.83617  1.0000
  C   C12       1.0  0.5234899999999999  0.6424  0.7875300000000002  1.0000
  C   C13       1.0  0.3242999999999999  0.31709  0.1764  1.0000
  C   C14       1.0  0.08569999999999994  0.33936  0.19855000000000006  1.0000
  C   C15       1.0  0.4526500000000001  0.30809  0.16390000000000002  1.0000
  C   C16       1.0  0.9531900000000001  0.35759  0.21243000000000006  1.0000
  C   C17       1.0  0.8915600000000001  0.18253  0.67622  1.0000
  C   C18       1.0  0.6747700000000001  0.16083  0.69887  1.0000
  C   C19       1.0  0.01111999999999999  0.19133  0.66334  1.0000
  C   C20       1.0  0.56022  0.14292  0.7130300000000003  1.0000
  C   C21       1.0  0.7509800000000002  0.8166499999999999  0.32351  1.0000
  C   C22       1.0  0.53407  0.83944  0.30191  1.0000
  C   C23       1.0  0.8671299999999997  0.80742  0.33564000000000005  1.0000
  C   C24       1.0  0.41527  0.85812  0.28817  1.0000
  C   C25       1.0  0.81769  0.82366  0.68296  1.0000
  C   C26       1.0  0.6236599999999999  0.8015199999999999  0.66072  1.0000
  C   C27       1.0  0.9244499999999999  0.83617  0.692  1.0000
  C   C28       1.0  0.52349  0.78753  0.6424000000000001  1.0000
  C   C29       1.0  0.32430000000000003  0.17639999999999997  0.3171  1.0000
  C   C30       1.0  0.08569999999999998  0.19855  0.33936  1.0000
  C   C31       1.0  0.45264999999999994  0.1639  0.30809000000000003  1.0000
  C   C32       1.0  0.95319  0.21243  0.35759000000000013  1.0000
  C   C33       1.0  0.7680000000000001  0.75183  0.24789000000000005  1.0000
  C   C34       1.0  0.65749  0.76365  0.23662000000000005  1.0000
  C   C35       1.0  0.99125  0.76613  0.23247  1.0000
  C   C36       1.0  0.4310899999999999  0.76031  0.24113000000000007  1.0000
  C   C37       1.0  0.7680000000000003  0.24789  0.7518300000000001  1.0000
  C   C38       1.0  0.65749  0.23661  0.76365  1.0000
  C   C39       1.0  0.99125  0.23247  0.76614  1.0000
  C   C40       1.0  0.4310899999999998  0.24113  0.7603100000000003  1.0000
  C   C41       1.0  0.76986  0.74804  0.74804  1.0000
  C   C42       1.0  0.6712100000000003  0.73649  0.7364900000000001  1.0000
  C   C43       1.0  0.007469999999999854  0.7331799999999999  0.7331900000000002  1.0000
  C   C44       1.0  0.4414500000000001  0.74039  0.7403900000000002  1.0000
  C   C45       1.0  0.26588  0.25202  0.25202  1.0000
  C   C46       1.0  0.14405000000000004  0.26357  0.2635700000000001  1.0000
  C   C47       1.0  0.47365  0.26687  0.26687  1.0000
  C   C48       1.0  0.92225  0.25958  0.25958  1.0000
  Br  Br1       1.0  0.056049999999999975  0.39887  0.9125600000000003  1.0000
  Br  Br2       1.0  0.36665  0.60158  0.08709  1.0000
  Br  Br3       1.0  0.70431  0.41308  0.10089  1.0000
  Br  Br4       1.0  0.2185000000000001  0.58761  0.89825  1.0000
  Br  Br5       1.0  0.05605000000000001  0.91256  0.39887  1.0000
  Br  Br6       1.0  0.3666499999999999  0.08709  0.60158  1.0000
  Br  Br7       1.0  0.70431  0.10089  0.41308000000000006  1.0000
  Br  Br8       1.0  0.21849999999999997  0.89825  0.58761  1.0000
  N   N1        1.0  0.79326  0.62591  0.10369000000000003  1.0000
  N   N2        1.0  0.90225  0.61583  0.11326000000000003  1.0000
  N   N3        1.0  0.5228300000000001  0.37487000000000004  0.89594  1.0000
  N   N4        1.0  0.6317699999999998  0.38451  0.8858900000000002  1.0000
  N   N5        1.0  0.6690199999999998  0.6039  0.8744700000000002  1.0000
  N   N6        1.0  0.7678400000000001  0.61375  0.88438  1.0000
  N   N7        1.0  0.14727999999999997  0.3961700000000001  0.12556  1.0000
  N   N8        1.0  0.26587000000000005  0.38639999999999997  0.11574000000000002  1.0000
  N   N9        1.0  0.7932599999999999  0.10369  0.6259100000000001  1.0000
  N   N10       1.0  0.9022600000000001  0.11325  0.6158300000000001  1.0000
  N   N11       1.0  0.52283  0.8959399999999998  0.37488000000000005  1.0000
  N   N12       1.0  0.63177  0.88589  0.38452  1.0000
  N   N13       1.0  0.6690200000000001  0.87446  0.6039  1.0000
  N   N14       1.0  0.7678300000000001  0.8843799999999999  0.61375  1.0000
  N   N15       1.0  0.14728  0.12556  0.3961700000000001  1.0000
  N   N16       1.0  0.26587  0.11574  0.3864  1.0000
