data_image0
_chemical_formula_structural       Zn4H46C80Cl4O20
_chemical_formula_sum              "Zn4 H46 C80 Cl4 O20"
_cell_length_a       10.23018
_cell_length_b       16.872220000000002
_cell_length_c       19.96189
_cell_angle_alpha    89.91183999999998
_cell_angle_beta     101.53818
_cell_angle_gamma    90.12724999999999

_symmetry_space_group_name_H-M    'P 1'
_symmetry_Int_Tables_number       1

loop_
  _symmetry_equiv_pos_as_xyz
  'x,y,z'

loop_
  _atom_site_type_symbol
  _atom_site_label
  _atom_site_symmetry_multiplicity
  _atom_site_fract_x
  _atom_site_fract_y
  _atom_site_fract_z
  _atom_site_occupancy
  Zn  Zn1       1.0  0.49056  0.3393800000000001  0.3818099999999999  1.0000
  Zn  Zn2       1.0  0.70257  0.4184900000000001  0.47723  1.0000
  Zn  Zn3       1.0  0.5097099999999998  0.83957  0.6179899999999998  1.0000
  Zn  Zn4       1.0  0.29535999999999996  0.91837  0.5204399999999999  1.0000
  H   H1        1.0  0.58569  0.06267000000000002  0.7190599999999998  1.0000
  H   H2        1.0  0.7025399999999999  0.29933  0.6697899999999999  1.0000
  H   H3        1.0  0.9055  0.21571  0.71152  1.0000
  H   H4        1.0  0.19709999999999994  0.28447  0.8881299999999999  1.0000
  H   H5        1.0  0.031089999999999972  0.26623  0.9617699999999999  1.0000
  H   H6        1.0  0.3706499999999999  0.19815  0.8724899999999999  1.0000
  H   H7        1.0  0.4375099999999999  0.10063  0.8792799999999997  1.0000
  H   H8        1.0  0.3542  0.19159  0.99813  1.0000
  H   H9        1.0  0.25855  0.11606  0.94908  1.0000
  H   H10       1.0  0.41609999999999997  0.09303  0.00214  1.0000
  H   H11       1.0  0.50537  0.17102  0.7983999999999998  1.0000
  H   H12       1.0  0.7759999999999999  0.08033000000000003  0.9665399999999998  1.0000
  H   H13       1.0  0.7938  0.9685100000000001  0.04852  1.0000
  H   H14       1.0  0.9004699999999999  0.1299  0.21721999999999994  1.0000
  H   H15       1.0  0.89894  0.38569  0.11325999999999999  1.0000
  H   H16       1.0  0.97875  0.44842  0.02063  1.0000
  H   H17       1.0  0.81874  0.47298  0.036939999999999994  1.0000
  H   H18       1.0  0.7378199999999999  0.5076700000000002  0.9134999999999998  1.0000
  H   H19       1.0  0.8838299999999998  0.56379  0.9478299999999998  1.0000
  H   H20       1.0  0.89499  0.48046000000000005  0.8951  1.0000
  H   H21       1.0  0.14086  0.28017  0.21305999999999997  1.0000
  H   H22       1.0  0.04466999999999997  0.35455  0.40274999999999994  1.0000
  H   H23       1.0  0.72922  0.29029  0.23393  1.0000
  H   H24       1.0  0.41238  0.5623800000000001  0.28166  1.0000
  H   H25       1.0  0.29722  0.79975  0.32792  1.0000
  H   H26       1.0  0.09493  0.7154  0.28824  1.0000
  H   H27       1.0  0.80351  0.7844700000000002  0.11173  1.0000
  H   H28       1.0  0.96906  0.7661100000000002  0.03792  1.0000
  H   H29       1.0  0.62934  0.69814  0.12745  1.0000
  H   H30       1.0  0.5618900000000001  0.6006100000000002  0.12074  1.0000
  H   H31       1.0  0.6459  0.69171  0.0018099999999999995  1.0000
  H   H32       1.0  0.74121  0.61624  0.05098  1.0000
  H   H33       1.0  0.58357  0.59309  0.9979599999999998  1.0000
  H   H34       1.0  0.49428999999999995  0.67049  0.20128999999999994  1.0000
  H   H35       1.0  0.22388999999999995  0.58039  0.03334  1.0000
  H   H36       1.0  0.20587999999999984  0.46879  0.9513599999999998  1.0000
  H   H37       1.0  0.09986999999999989  0.63056  0.7826499999999997  1.0000
  H   H38       1.0  0.10149999999999999  0.8859800000000001  0.88651  1.0000
  H   H39       1.0  0.021240000000000002  0.94807  0.97921  1.0000
  H   H40       1.0  0.18122  0.97316  0.96287  1.0000
  H   H41       1.0  0.26223  0.00749  0.08633999999999997  1.0000
  H   H42       1.0  0.11641  0.06351  0.052039999999999996  1.0000
  H   H43       1.0  0.10497999999999999  0.9799200000000001  0.10470999999999998  1.0000
  H   H44       1.0  0.85959  0.78057  0.7867599999999999  1.0000
  H   H45       1.0  0.9566899999999999  0.85419  0.59675  1.0000
  H   H46       1.0  0.2712799999999999  0.7897800000000003  0.7657199999999997  1.0000
  C   C1        1.0  0.6059099999999998  0.29096  0.5322699999999998  1.0000
  C   C2        1.0  0.59797  0.22988  0.58518  1.0000
  C   C3        1.0  0.53374  0.15879000000000004  0.5686099999999997  1.0000
  C   C4        1.0  0.52838  0.09754  0.6132099999999998  1.0000
  C   C5        1.0  0.58814  0.11052  0.68254  1.0000
  C   C6        1.0  0.64875  0.1834  0.70395  1.0000
  C   C7        1.0  0.6554099999999998  0.24231000000000003  0.6548599999999998  1.0000
  C   C8        1.0  0.46321999999999997  0.02058  0.5908699999999998  1.0000
  C   C9        1.0  0.6978199999999999  0.19724  0.7782699999999998  1.0000
  C   C10       1.0  0.83195  0.22038000000000005  0.80656  1.0000
  C   C11       1.0  0.9307199999999999  0.2282  0.76592  1.0000
  C   C12       1.0  0.05894999999999997  0.25069  0.7955799999999998  1.0000
  C   C13       1.0  0.09576999999999998  0.26582  0.86647  1.0000
  C   C14       1.0  0.0025099999999999285  0.25635  0.9070099999999999  1.0000
  C   C15       1.0  0.86863  0.23363000000000006  0.87919  1.0000
  C   C16       1.0  0.7741999999999999  0.22250000000000006  0.9222199999999998  1.0000
  C   C17       1.0  0.64488  0.19794  0.89264  1.0000
  C   C18       1.0  0.42743999999999993  0.15496  0.90819  1.0000
  C   C19       1.0  0.3605199999999999  0.13787  0.9680599999999998  1.0000
  C   C20       1.0  0.6077799999999999  0.18638000000000005  0.8211599999999999  1.0000
  C   C21       1.0  0.8124299999999999  0.23588999999999996  0.99718  1.0000
  C   C22       1.0  0.8241599999999999  0.17121  0.0441  1.0000
  C   C23       1.0  0.8015899999999999  0.09156  0.02119  1.0000
  C   C24       1.0  0.8115599999999998  0.029100000000000008  0.06650999999999997  1.0000
  C   C25       1.0  0.8465299999999999  0.04376  0.13763  1.0000
  C   C26       1.0  0.8719799999999999  0.11963  0.16251999999999994  1.0000
  C   C27       1.0  0.86119  0.18486000000000005  0.11659  1.0000
  C   C28       1.0  0.88791  0.26404  0.14033  1.0000
  C   C29       1.0  0.87782  0.32592  0.09394999999999999  1.0000
  C   C30       1.0  0.8390299999999999  0.31269  0.02274  1.0000
  C   C31       1.0  0.8716599999999998  0.45129  0.9977399999999998  1.0000
  C   C32       1.0  0.8451299999999999  0.50381  0.9346999999999998  1.0000
  C   C33       1.0  0.9296699999999998  0.28327  0.21438  1.0000
  C   C34       1.0  0.06553999999999999  0.2920400000000001  0.24321999999999994  1.0000
  C   C35       1.0  0.10662999999999997  0.31709  0.31105999999999995  1.0000
  C   C36       1.0  0.011830000000000018  0.3337700000000001  0.35058  1.0000
  C   C37       1.0  0.8762  0.32304  0.3228699999999999  1.0000
  C   C38       1.0  0.8351999999999999  0.29738000000000003  0.25495  1.0000
  C   C39       1.0  0.25075  0.32722  0.34145  1.0000
  C   C40       1.0  0.77498  0.34105000000000013  0.36481  1.0000
  C   C41       1.0  0.39125999999999994  0.79287  0.4653499999999999  1.0000
  C   C42       1.0  0.40071  0.7311300000000002  0.41352999999999995  1.0000
  C   C43       1.0  0.46517999999999987  0.66034  0.43103999999999987  1.0000
  C   C44       1.0  0.47006999999999993  0.5985000000000001  0.38707  1.0000
  C   C45       1.0  0.41059999999999997  0.61079  0.31759  1.0000
  C   C46       1.0  0.35083  0.68349  0.29544  1.0000
  C   C47       1.0  0.34391  0.74291  0.34373999999999993  1.0000
  C   C48       1.0  0.53414  0.52128  0.40939  1.0000
  C   C49       1.0  0.30197  0.6968  0.22117999999999996  1.0000
  C   C50       1.0  0.16804999999999998  0.72003  0.19301999999999994  1.0000
  C   C51       1.0  0.06960999999999999  0.72792  0.23380999999999996  1.0000
  C   C52       1.0  0.9415599999999998  0.75056  0.20423  1.0000
  C   C53       1.0  0.90471  0.76572  0.13331999999999997  1.0000
  C   C54       1.0  0.9976999999999999  0.75621  0.09269  1.0000
  C   C55       1.0  0.13143  0.73342  0.12044  1.0000
  C   C56       1.0  0.2259  0.7224200000000002  0.07749  1.0000
  C   C57       1.0  0.35506  0.6977200000000002  0.10700999999999998  1.0000
  C   C58       1.0  0.5723899999999998  0.65496  0.09176999999999998  1.0000
  C   C59       1.0  0.63934  0.6379600000000002  0.03197  1.0000
  C   C60       1.0  0.39202  0.68586  0.17842  1.0000
  C   C61       1.0  0.18773  0.736  0.0025999999999999994  1.0000
  C   C62       1.0  0.17599999999999985  0.67141  0.9557399999999998  1.0000
  C   C63       1.0  0.19838999999999993  0.59174  0.9786799999999999  1.0000
  C   C64       1.0  0.1883  0.5294000000000001  0.93337  1.0000
  C   C65       1.0  0.15345  0.54423  0.8622499999999998  1.0000
  C   C66       1.0  0.1282  0.62013  0.83735  1.0000
  C   C67       1.0  0.13903999999999997  0.68521  0.8832699999999999  1.0000
  C   C68       1.0  0.11237  0.76439  0.85948  1.0000
  C   C69       1.0  0.12245999999999996  0.82619  0.9058299999999999  1.0000
  C   C70       1.0  0.16112999999999994  0.8128200000000002  0.9770499999999999  1.0000
  C   C71       1.0  0.12833  0.95119  0.00209  1.0000
  C   C72       1.0  0.15491  0.003530000000000001  0.06513  1.0000
  C   C73       1.0  0.07077000000000001  0.78346  0.78536  1.0000
  C   C74       1.0  0.93494  0.7921800000000001  0.75651  1.0000
  C   C75       1.0  0.89373  0.81695  0.68856  1.0000
  C   C76       1.0  0.9887099999999999  0.8335200000000003  0.64902  1.0000
  C   C77       1.0  0.1243  0.82281  0.67671  1.0000
  C   C78       1.0  0.16538  0.79722  0.74468  1.0000
  C   C79       1.0  0.7495299999999999  0.82725  0.65845  1.0000
  C   C80       1.0  0.22478  0.84047  0.63407  1.0000
  Cl  Cl1       1.0  0.18067000000000005  0.25967  0.74581  1.0000
  Cl  Cl2       1.0  0.85867  0.96355  0.19374  1.0000
  Cl  Cl3       1.0  0.82012  0.75962  0.2541  1.0000
  Cl  Cl4       1.0  0.14116  0.46421  0.80612  1.0000
  O   O1        1.0  0.546  0.27776  0.47133  1.0000
  O   O2        1.0  0.6759199999999999  0.35338  0.5524899999999999  1.0000
  O   O3        1.0  0.3828500000000001  0.01981  0.53197  1.0000
  O   O4        1.0  0.48698  0.96093  0.63002  1.0000
  O   O5        1.0  0.33812  0.30541  0.30642  1.0000
  O   O6        1.0  0.28661  0.35684  0.40071  1.0000
  O   O7        1.0  0.8181600000000001  0.38075  0.42052  1.0000
  O   O8        1.0  0.6562  0.3176  0.34373  1.0000
  O   O9        1.0  0.5585899999999999  0.18675  0.93604  1.0000
  O   O10       1.0  0.82427  0.3727  0.97584  1.0000
  O   O11       1.0  0.45398  0.7820400000000002  0.52612  1.0000
  O   O12       1.0  0.31698  0.85339  0.44442999999999994  1.0000
  O   O13       1.0  0.6166  0.5201  0.46767  1.0000
  O   O14       1.0  0.5074  0.46172000000000013  0.37037  1.0000
  O   O15       1.0  0.66215  0.80538  0.69357  1.0000
  O   O16       1.0  0.7133999999999998  0.85715  0.5992499999999998  1.0000
  O   O17       1.0  0.18176  0.8811  0.57894  1.0000
  O   O18       1.0  0.34287  0.81552  0.65384  1.0000
  O   O19       1.0  0.44148999999999994  0.68677  0.06375999999999998  1.0000
  O   O20       1.0  0.17577  0.8726700000000002  0.023999999999999997  1.0000
