data_image0
_chemical_formula_structural       Zn4H34C52N8O16
_chemical_formula_sum              "Zn4 H34 C52 N8 O16"
_cell_length_a       11.09528
_cell_length_b       11.00863
_cell_length_c       15.95865
_cell_angle_alpha    88.75142
_cell_angle_beta     80.42891
_cell_angle_gamma    88.60201

_symmetry_space_group_name_H-M    'P 1'
_symmetry_Int_Tables_number       1

loop_
  _symmetry_equiv_pos_as_xyz
  'x,y,z'

loop_
  _atom_site_type_symbol
  _atom_site_label
  _atom_site_symmetry_multiplicity
  _atom_site_fract_x
  _atom_site_fract_y
  _atom_site_fract_z
  _atom_site_occupancy
  Zn  Zn1       1.0  0.7183  0.8391299999999998  0.59833  1.0000
  Zn  Zn2       1.0  0.6753600000000002  0.83374  0.77827  1.0000
  Zn  Zn3       1.0  0.28175  0.16077  0.40129  1.0000
  Zn  Zn4       1.0  0.32456  0.16658  0.2174  1.0000
  H   H1        1.0  0.73215  0.4541  0.55861  1.0000
  H   H2        1.0  0.73191  0.22626  0.55953  1.0000
  H   H3        1.0  0.6473799999999997  0.22148999999999996  0.8319  1.0000
  H   H4        1.0  0.64394  0.45011999999999996  0.83058  1.0000
  H   H5        1.0  0.2704300000000001  0.8164299999999999  0.82561  1.0000
  H   H6        1.0  0.04532999999999998  0.81002  0.81914  1.0000
  H   H7        1.0  0.12256999999999997  0.8699999999999999  0.5492000000000002  1.0000
  H   H8        1.0  0.34593  0.8759799999999999  0.55529  1.0000
  H   H9        1.0  0.57666  0.83311  0.30957  1.0000
  H   H10       1.0  0.55522  0.82626  0.46736  1.0000
  H   H11       1.0  0.92972  0.83876  0.45942  1.0000
  H   H12       1.0  0.96898  0.84965  0.30112  1.0000
  H   H13       1.0  0.8272  0.7000799999999999  0.91053  1.0000
  H   H14       1.0  0.84263  0.7317899999999998  0.06314  1.0000
  H   H15       1.0  0.46975  0.01518999999999999  0.9207000000000002  1.0000
  H   H16       1.0  0.8708300000000001  0.91287  0.18289  1.0000
  H   H17       1.0  0.64334  0.9699399999999998  0.19001  1.0000
  H   H18       1.0  0.2682  0.54444  0.4409300000000001  1.0000
  H   H19       1.0  0.2679000000000001  0.7723199999999998  0.44108  1.0000
  H   H20       1.0  0.35200999999999993  0.7798999999999999  0.16879000000000005  1.0000
  H   H21       1.0  0.35593999999999987  0.5509499999999999  0.16908000000000006  1.0000
  H   H22       1.0  0.72975  0.1837  0.17438  1.0000
  H   H23       1.0  0.9551  0.19026999999999997  0.18106  1.0000
  H   H24       1.0  0.87729  0.13016  0.45095  1.0000
  H   H25       1.0  0.65362  0.12428999999999997  0.44449  1.0000
  H   H26       1.0  0.4275  0.16774999999999998  0.68879  1.0000
  H   H27       1.0  0.4460700000000001  0.17443  0.53095  1.0000
  H   H28       1.0  0.07106000000000001  0.16057  0.54246  1.0000
  H   H29       1.0  0.034949999999999995  0.1503  0.70089  1.0000
  H   H30       1.0  0.17738  0.29407  0.08843  1.0000
  H   H31       1.0  0.16252999999999998  0.26722  0.93526  1.0000
  H   H32       1.0  0.47075  0.05052999999999999  0.07322000000000002  1.0000
  H   H33       1.0  0.1354  0.09011999999999999  0.81864  1.0000
  H   H34       1.0  0.3590099999999999  0.03004  0.81043  1.0000
  C   C1        1.0  0.68998  0.60148  0.6932  1.0000
  C   C2        1.0  0.6890899999999999  0.46526999999999996  0.69457  1.0000
  C   C3        1.0  0.7135399999999997  0.40229  0.6179200000000002  1.0000
  C   C4        1.0  0.71364  0.27582  0.61859  1.0000
  C   C5        1.0  0.6905399999999999  0.21030999999999997  0.69585  1.0000
  C   C6        1.0  0.66567  0.27332999999999996  0.77255  1.0000
  C   C7        1.0  0.66417  0.39998999999999996  0.77181  1.0000
  C   C8        1.0  0.69309  0.07403999999999998  0.69591  1.0000
  C   C9        1.0  0.4553799999999999  0.84991  0.6948700000000002  1.0000
  C   C10       1.0  0.3214  0.84683  0.69101  1.0000
  C   C11       1.0  0.23673000000000002  0.8289  0.7657  1.0000
  C   C12       1.0  0.11234999999999994  0.8248  0.7621200000000002  1.0000
  C   C13       1.0  0.07081999999999992  0.8387299999999998  0.6839700000000002  1.0000
  C   C14       1.0  0.15555  0.85721  0.60936  1.0000
  C   C15       1.0  0.27995  0.86084  0.61283  1.0000
  C   C16       1.0  0.9362999999999999  0.83482  0.68139  1.0000
  C   C17       1.0  0.7751199999999999  0.84591  0.29221  1.0000
  C   C18       1.0  0.65742  0.8348099999999998  0.3398  1.0000
  C   C19       1.0  0.6449300000000001  0.8306299999999999  0.42774  1.0000
  C   C20       1.0  0.85494  0.8380999999999997  0.4231300000000001  1.0000
  C   C21       1.0  0.87584  0.84372  0.33533  1.0000
  C   C22       1.0  0.76322  0.7593999999999997  0.95068  1.0000
  C   C23       1.0  0.77093  0.7788499999999998  0.03548  1.0000
  C   C24       1.0  0.6882399999999997  0.86167  0.08637  1.0000
  C   C25       1.0  0.59651  0.9110499999999999  0.04384000000000001  1.0000
  C   C26       1.0  0.60918  0.88116  0.96753  1.0000
  C   C27       1.0  0.31096  0.39816  0.30536  1.0000
  C   C28       1.0  0.31177000000000005  0.5345199999999999  0.30489  1.0000
  C   C29       1.0  0.28700000000000003  0.5967599999999998  0.38185  1.0000
  C   C30       1.0  0.28657999999999995  0.72325  0.38182  1.0000
  C   C31       1.0  0.3095700000000001  0.78969  0.30499  1.0000
  C   C32       1.0  0.33429000000000003  0.72742  0.22792  1.0000
  C   C33       1.0  0.33614000000000005  0.60073  0.22802000000000006  1.0000
  C   C34       1.0  0.30694999999999995  0.9260599999999999  0.3057  1.0000
  C   C35       1.0  0.5445800000000001  0.15009  0.30489  1.0000
  C   C36       1.0  0.6786699999999998  0.15344  0.3089000000000001  1.0000
  C   C37       1.0  0.7635000000000001  0.17139999999999997  0.23431  1.0000
  C   C38       1.0  0.88789  0.1753599999999999  0.23799  1.0000
  C   C39       1.0  0.9292599999999999  0.16123999999999994  0.31619  1.0000
  C   C40       1.0  0.84436  0.14288  0.39075  1.0000
  C   C41       1.0  0.7199900000000001  0.13939  0.3871300000000001  1.0000
  C   C42       1.0  0.06382  0.16518999999999995  0.31885  1.0000
  C   C43       1.0  0.22921999999999995  0.15493  0.70789  1.0000
  C   C44       1.0  0.34625000000000006  0.1659  0.65915  1.0000
  C   C45       1.0  0.35698  0.16992999999999997  0.57135  1.0000
  C   C46       1.0  0.14672999999999994  0.16173  0.57792  1.0000
  C   C47       1.0  0.1275  0.15641  0.6657  1.0000
  C   C48       1.0  0.24051  0.23350999999999994  0.04872  1.0000
  C   C49       1.0  0.23216  0.21806  0.96366  1.0000
  C   C50       1.0  0.31431  0.13618999999999998  0.91535  1.0000
  C   C51       1.0  0.40363999999999994  0.07802  0.95602  1.0000
  C   C52       1.0  0.40435  0.09888999999999998  0.040480000000000016  1.0000
  N   N1        1.0  0.67516  0.81707  0.90933  1.0000
  N   N2        1.0  0.74114  0.83433  0.46944  1.0000
  N   N3        1.0  0.7960499999999999  0.8612599999999998  0.20407  1.0000
  N   N4        1.0  0.69542  0.89533  0.16684  1.0000
  N   N5        1.0  0.32421  0.17409999999999998  0.0881  1.0000
  N   N6        1.0  0.25981999999999994  0.16593  0.53055  1.0000
  N   N7        1.0  0.21034999999999998  0.14063  0.79584  1.0000
  N   N8        1.0  0.31238  0.10816999999999997  0.83225  1.0000
  O   O1        1.0  0.86583  0.82354  0.75282  1.0000
  O   O2        1.0  0.903  0.8435499999999999  0.60882  1.0000
  O   O3        1.0  0.48601  0.8663699999999999  0.76772  1.0000
  O   O4        1.0  0.52778  0.8359899999999998  0.6250300000000002  1.0000
  O   O5        1.0  0.65945  0.6540099999999999  0.76462  1.0000
  O   O6        1.0  0.7214399999999999  0.6543699999999999  0.6216300000000002  1.0000
  O   O7        1.0  0.68467  0.01902  0.76794  1.0000
  O   O8        1.0  0.70368  0.023719999999999998  0.62382  1.0000
  O   O9        1.0  0.13411999999999996  0.1767  0.24752000000000005  1.0000
  O   O10       1.0  0.09690999999999998  0.15627  0.39151  1.0000
  O   O11       1.0  0.51431  0.13325999999999996  0.23208000000000006  1.0000
  O   O12       1.0  0.47236  0.16406  0.37486  1.0000
  O   O13       1.0  0.34278999999999993  0.34623  0.23387  1.0000
  O   O14       1.0  0.2785599999999999  0.3451199999999999  0.3767700000000001  1.0000
  O   O15       1.0  0.31515  0.9811299999999998  0.23379000000000005  1.0000
  O   O16       1.0  0.29637  0.9757399999999998  0.37819  1.0000
