data_image0
_chemical_formula_structural       Cd8H32C64O40
_chemical_formula_sum              "Cd8 H32 C64 O40"
_cell_length_a       7.29151
_cell_length_b       19.003480000000003
_cell_length_c       19.34114
_cell_angle_alpha    89.83995000000002
_cell_angle_beta     92.2557
_cell_angle_gamma    90.1089

_symmetry_space_group_name_H-M    'P 1'
_symmetry_Int_Tables_number       1

loop_
  _symmetry_equiv_pos_as_xyz
  'x,y,z'

loop_
  _atom_site_type_symbol
  _atom_site_label
  _atom_site_symmetry_multiplicity
  _atom_site_fract_x
  _atom_site_fract_y
  _atom_site_fract_z
  _atom_site_occupancy
  Cd  Cd1       1.0  0.56873  0.26549  0.34651  1.0000
  Cd  Cd2       1.0  0.005080000000000001  0.24064000000000002  0.31567  1.0000
  Cd  Cd3       1.0  0.92935  0.76738  0.15385  1.0000
  Cd  Cd4       1.0  0.4937600000000001  0.7400200000000001  0.18358  1.0000
  Cd  Cd5       1.0  0.4312700000000001  0.73451  0.65349  1.0000
  Cd  Cd6       1.0  0.9949200000000001  0.75936  0.68433  1.0000
  Cd  Cd7       1.0  0.07065  0.23262  0.84615  1.0000
  Cd  Cd8       1.0  0.50624  0.25998  0.81641  1.0000
  H   H1        1.0  0.12526  0.07578  0.22242  1.0000
  H   H2        1.0  0.3938100000000001  0.17505  0.65267  1.0000
  H   H3        1.0  0.8933300000000002  0.00541  0.21587  1.0000
  H   H4        1.0  0.41734  0.13785000000000003  0.23804  1.0000
  H   H5        1.0  0.35303000000000023  0.92512  0.16428  1.0000
  H   H6        1.0  0.62213  0.21442999999999998  0.58469  1.0000
  H   H7        1.0  0.10863000000000003  0.1795  0.71627  1.0000
  H   H8        1.0  0.14255000000000004  0.17373  0.49569  1.0000
  H   H9        1.0  0.37389  0.57571  0.27777  1.0000
  H   H10       1.0  0.10787000000000002  0.67058  0.8481100000000001  1.0000
  H   H11       1.0  0.6040700000000002  0.50423  0.28434  1.0000
  H   H12       1.0  0.07942  0.63729  0.26058  1.0000
  H   H13       1.0  0.14533  0.42451000000000005  0.33499  1.0000
  H   H14       1.0  0.8762900000000002  0.71788  0.9160200000000001  1.0000
  H   H15       1.0  0.39442  0.67868  0.78391  1.0000
  H   H16       1.0  0.35726000000000013  0.6706300000000001  0.00438  1.0000
  H   H17       1.0  0.8747400000000002  0.9242200000000002  0.77757  1.0000
  H   H18       1.0  0.60619  0.82495  0.34733  1.0000
  H   H19       1.0  0.10667000000000001  0.99459  0.78412  1.0000
  H   H20       1.0  0.5826700000000002  0.8621500000000001  0.76195  1.0000
  H   H21       1.0  0.6469700000000002  0.07488  0.8357200000000001  1.0000
  H   H22       1.0  0.3778700000000001  0.78557  0.41531  1.0000
  H   H23       1.0  0.8913700000000002  0.8205  0.28373  1.0000
  H   H24       1.0  0.8574500000000002  0.8262700000000001  0.50431  1.0000
  H   H25       1.0  0.62611  0.42429000000000006  0.72223  1.0000
  H   H26       1.0  0.8921300000000002  0.32942  0.15189  1.0000
  H   H27       1.0  0.39593  0.49577000000000004  0.71566  1.0000
  H   H28       1.0  0.9205800000000002  0.36271  0.73942  1.0000
  H   H29       1.0  0.8546700000000003  0.57549  0.66501  1.0000
  H   H30       1.0  0.12371000000000004  0.28212  0.08398  1.0000
  H   H31       1.0  0.60558  0.32133  0.21609  1.0000
  H   H32       1.0  0.64274  0.32937000000000005  0.9956199999999998  1.0000
  C   C1        1.0  0.7865900000000002  0.13741  0.25469  1.0000
  C   C2        1.0  0.66794  0.07841  0.22982  1.0000
  C   C3        1.0  0.7464500000000002  0.01399  0.21185  1.0000
  C   C4        1.0  0.4764800000000001  0.08733  0.22498  1.0000
  C   C5        1.0  0.63192  0.9591800000000001  0.18788  1.0000
  C   C6        1.0  0.4415000000000001  0.9677400000000002  0.18284  1.0000
  C   C7        1.0  0.36255  0.03147  0.20281  1.0000
  C   C8        1.0  0.71294  0.8903900000000001  0.16904  1.0000
  C   C9        1.0  0.7984700000000001  0.20475  0.46040999999999993  1.0000
  C   C10       1.0  0.8736000000000003  0.19509  0.533  1.0000
  C   C11       1.0  0.7677000000000003  0.20338  0.59127  1.0000
  C   C12       1.0  0.8536100000000001  0.19929000000000002  0.65779  1.0000
  C   C13       1.0  0.043070000000000025  0.18573  0.66535  1.0000
  C   C14       1.0  0.14750000000000005  0.17684  0.60667  1.0000
  C   C15       1.0  0.061330000000000016  0.18104  0.54093  1.0000
  C   C16       1.0  0.7389900000000003  0.21251  0.71811  1.0000
  C   C17       1.0  0.7114  0.63639  0.24480999999999997  1.0000
  C   C18       1.0  0.8295900000000003  0.57728  0.26969  1.0000
  C   C19       1.0  0.7510400000000003  0.51276  0.2881  1.0000
  C   C20       1.0  0.02105  0.58658  0.27415  1.0000
  C   C21       1.0  0.86571  0.45785  0.31177  1.0000
  C   C22       1.0  0.05617000000000001  0.46684  0.31635  1.0000
  C   C23       1.0  0.1352  0.53091  0.29652  1.0000
  C   C24       1.0  0.7847500000000002  0.38876  0.33055  1.0000
  C   C25       1.0  0.7002500000000002  0.70606  0.03978  1.0000
  C   C26       1.0  0.62533  0.69588  0.96745  1.0000
  C   C27       1.0  0.7312800000000003  0.7055  0.90943  1.0000
  C   C28       1.0  0.64592  0.70089  0.84298  1.0000
  C   C29       1.0  0.4579300000000001  0.68508  0.83508  1.0000
  C   C30       1.0  0.35404000000000013  0.67389  0.89354  1.0000
  C   C31       1.0  0.43880000000000013  0.6792600000000001  0.9593700000000001  1.0000
  C   C32       1.0  0.7608  0.71417  0.78285  1.0000
  C   C33       1.0  0.21341000000000002  0.8625900000000001  0.74531  1.0000
  C   C34       1.0  0.33206000000000013  0.9215900000000001  0.77018  1.0000
  C   C35       1.0  0.25355  0.9860100000000002  0.78814  1.0000
  C   C36       1.0  0.52352  0.9126700000000001  0.77502  1.0000
  C   C37       1.0  0.3680900000000001  0.04083  0.81212  1.0000
  C   C38       1.0  0.5585  0.03227  0.81715  1.0000
  C   C39       1.0  0.63745  0.96853  0.79719  1.0000
  C   C40       1.0  0.2870600000000001  0.10961  0.83096  1.0000
  C   C41       1.0  0.20154000000000005  0.79525  0.53958  1.0000
  C   C42       1.0  0.1264  0.80491  0.46699  1.0000
  C   C43       1.0  0.2323  0.7966300000000001  0.40873  1.0000
  C   C44       1.0  0.14639  0.8007100000000001  0.34221  1.0000
  C   C45       1.0  0.9569300000000002  0.8142700000000002  0.33464  1.0000
  C   C46       1.0  0.8525  0.82316  0.39333  1.0000
  C   C47       1.0  0.93867  0.81896  0.45907  1.0000
  C   C48       1.0  0.26101  0.78749  0.28189  1.0000
  C   C49       1.0  0.2886  0.36361000000000004  0.75519  1.0000
  C   C50       1.0  0.17041000000000006  0.42272000000000004  0.73031  1.0000
  C   C51       1.0  0.24896000000000001  0.48724000000000006  0.71189  1.0000
  C   C52       1.0  0.9789500000000001  0.41342  0.72585  1.0000
  C   C53       1.0  0.13429  0.54215  0.68823  1.0000
  C   C54       1.0  0.9438300000000002  0.53316  0.68365  1.0000
  C   C55       1.0  0.8648  0.46909  0.70348  1.0000
  C   C56       1.0  0.21526  0.6112400000000001  0.66945  1.0000
  C   C57       1.0  0.2997500000000001  0.29394000000000003  0.96022  1.0000
  C   C58       1.0  0.37468  0.30413  0.03254  1.0000
  C   C59       1.0  0.26872  0.2945  0.09056  1.0000
  C   C60       1.0  0.3540800000000001  0.29911  0.15702  1.0000
  C   C61       1.0  0.54207  0.31492  0.16491  1.0000
  C   C62       1.0  0.6459600000000001  0.32611  0.10645999999999999  1.0000
  C   C63       1.0  0.5612000000000003  0.32074  0.04062  1.0000
  C   C64       1.0  0.23920000000000005  0.28583  0.21714000000000003  1.0000
  O   O1        1.0  0.71206  0.1976  0.2672  1.0000
  O   O2        1.0  0.9602800000000001  0.12984  0.26352  1.0000
  O   O3        1.0  0.8856700000000002  0.8806000000000002  0.18031  1.0000
  O   O4        1.0  0.60839  0.8425800000000001  0.14227  1.0000
  O   O5        1.0  0.9074500000000002  0.19114  0.41253  1.0000
  O   O6        1.0  0.17673000000000005  0.03491  0.19809  1.0000
  O   O7        1.0  0.63147  0.22629  0.45110999999999996  1.0000
  O   O8        1.0  0.56506  0.20821  0.71145  1.0000
  O   O9        1.0  0.8068400000000001  0.23363  0.77841  1.0000
  O   O10       1.0  0.33043  0.16336  0.60808  1.0000
  O   O11       1.0  0.78701  0.69658  0.23247  1.0000
  O   O12       1.0  0.53755  0.62888  0.23602  1.0000
  O   O13       1.0  0.6123500000000002  0.37853  0.31865  1.0000
  O   O14       1.0  0.88884  0.34097  0.35782  1.0000
  O   O15       1.0  0.59245  0.69112  0.08783  1.0000
  O   O16       1.0  0.32102  0.53473  0.30192  1.0000
  O   O17       1.0  0.8657900000000001  0.72923  0.04887  1.0000
  O   O18       1.0  0.9341600000000002  0.70836  0.7903  1.0000
  O   O19       1.0  0.69416  0.7360900000000001  0.72245  1.0000
  O   O20       1.0  0.17298000000000002  0.65669  0.8916899999999999  1.0000
  O   O21       1.0  0.2879400000000001  0.8024100000000001  0.7328  1.0000
  O   O22       1.0  0.03973000000000001  0.87016  0.73648  1.0000
  O   O23       1.0  0.11433000000000003  0.11940000000000002  0.81968  1.0000
  O   O24       1.0  0.39161  0.15742  0.8577300000000001  1.0000
  O   O25       1.0  0.09255000000000001  0.80886  0.58747  1.0000
  O   O26       1.0  0.82327  0.96509  0.80191  1.0000
  O   O27       1.0  0.36853000000000014  0.77371  0.54888  1.0000
  O   O28       1.0  0.43494  0.79179  0.28855  1.0000
  O   O29       1.0  0.19316000000000005  0.76638  0.22158  1.0000
  O   O30       1.0  0.6695700000000002  0.8366400000000002  0.39192  1.0000
  O   O31       1.0  0.21299000000000007  0.3034200000000001  0.76753  1.0000
  O   O32       1.0  0.46245000000000014  0.37112  0.76397  1.0000
  O   O33       1.0  0.38765  0.62147  0.68135  1.0000
  O   O34       1.0  0.11116000000000002  0.65903  0.64218  1.0000
  O   O35       1.0  0.40755  0.30888  0.91217  1.0000
  O   O36       1.0  0.6789800000000003  0.46527  0.69808  1.0000
  O   O37       1.0  0.13421000000000005  0.27077  0.95113  1.0000
  O   O38       1.0  0.06584  0.29164  0.2097  1.0000
  O   O39       1.0  0.3058400000000001  0.26391  0.27755  1.0000
  O   O40       1.0  0.82702  0.34331  0.10831  1.0000
