data_image0
_chemical_formula_structural       Cu6H36C84O24
_chemical_formula_sum              "Cu6 H36 C84 O24"
_cell_length_a       19.03666
_cell_length_b       19.04507
_cell_length_c       20.1202
_cell_angle_alpha    61.73572
_cell_angle_beta     61.75608
_cell_angle_gamma    59.71241

_symmetry_space_group_name_H-M    'P 1'
_symmetry_Int_Tables_number       1

loop_
  _symmetry_equiv_pos_as_xyz
  'x,y,z'

loop_
  _atom_site_type_symbol
  _atom_site_label
  _atom_site_symmetry_multiplicity
  _atom_site_fract_x
  _atom_site_fract_y
  _atom_site_fract_z
  _atom_site_occupancy
  Cu  Cu1       1.0  0.0001300000000000757  2.0000000000058095e-05  0.5604299999999998  1.0000
  Cu  Cu2       1.0  0.0005500000000000425  0.43915  0.56027  1.0000
  Cu  Cu3       1.0  0.4391400000000001  0.0005300000000000677  0.5602399999999997  1.0000
  Cu  Cu4       1.0  0.5608500000000001  0.99947  0.43977  1.0000
  Cu  Cu5       1.0  0.9994400000000002  0.56085  0.43973  1.0000
  Cu  Cu6       1.0  0.9998600000000004  0.99998  0.43957  1.0000
  H   H1        1.0  0.97486  0.25214  0.29387  1.0000
  H   H2        1.0  0.98195  0.5398  0.16731  1.0000
  H   H3        1.0  0.2516500000000001  0.48000999999999994  0.2934  1.0000
  H   H4        1.0  0.5400600000000001  0.31045  0.16755  1.0000
  H   H5        1.0  0.47932000000000013  0.97499  0.29363  1.0000
  H   H6        1.0  0.31087000000000004  0.98181  0.1678  1.0000
  H   H7        1.0  0.5200899999999999  0.7482800000000001  0.70653  1.0000
  H   H8        1.0  0.68956  0.45968000000000003  0.8327  1.0000
  H   H9        1.0  0.025010000000000202  0.5207199999999998  0.7062999999999998  1.0000
  H   H10       1.0  0.018210000000000157  0.6890899999999996  0.83202  1.0000
  H   H11       1.0  0.7479000000000001  0.025100000000000053  0.7062699999999998  1.0000
  H   H12       1.0  0.4602500000000001  0.018040000000000014  0.8326199999999999  1.0000
  H   H13       1.0  0.025130000000000232  0.7478599999999996  0.70613  1.0000
  H   H14       1.0  0.018039999999999976  0.46020000000000005  0.8327  1.0000
  H   H15       1.0  0.74834  0.51999  0.70661  1.0000
  H   H16       1.0  0.45993  0.68955  0.83245  1.0000
  H   H17       1.0  0.52067  0.025009999999999966  0.70637  1.0000
  H   H18       1.0  0.68913  0.018190000000000033  0.8322  1.0000
  H   H19       1.0  0.4799000000000001  0.2517199999999999  0.29347  1.0000
  H   H20       1.0  0.31043000000000004  0.54032  0.16729999999999995  1.0000
  H   H21       1.0  0.9749799999999998  0.47927000000000003  0.29371  1.0000
  H   H22       1.0  0.98179  0.31091  0.16797999999999993  1.0000
  H   H23       1.0  0.2520900000000001  0.9749000000000001  0.2937299999999999  1.0000
  H   H24       1.0  0.53974  0.98196  0.16737999999999995  1.0000
  H   H25       1.0  0.9689800000000001  0.26331999999999994  0.5045  1.0000
  H   H26       1.0  0.26362  0.2637999999999999  0.50388  1.0000
  H   H27       1.0  0.26332  0.96897  0.50434  1.0000
  H   H28       1.0  0.7363699999999999  0.7362  0.49612  1.0000
  H   H29       1.0  0.03102000000000001  0.73667  0.49549999999999994  1.0000
  H   H30       1.0  0.73667  0.03102000000000002  0.49566  1.0000
  H   H31       1.0  9.000000000011554e-05  0.6331899999999998  0.9996899999999999  1.0000
  H   H32       1.0  0.63366  0.36622  0.00014  1.0000
  H   H33       1.0  0.36679000000000006  0.9999299999999999  0.00015999999999999996  1.0000
  H   H34       1.0  0.99991  0.3668  0.00031  1.0000
  H   H35       1.0  0.3663400000000001  0.63378  0.9998599999999999  1.0000
  H   H36       1.0  0.63321  6.99999999999468e-05  0.9998400000000001  1.0000
  C   C1        1.0  0.9749  0.15968999999999997  0.44198  1.0000
  C   C2        1.0  0.9704000000000002  0.2503099999999999  0.40259  1.0000
  C   C3        1.0  0.9725900000000001  0.28921  0.32296  1.0000
  C   C4        1.0  0.9841299999999997  0.49396  0.14818999999999996  1.0000
  C   C5        1.0  0.9920499999999999  0.50714  0.06976  1.0000
  C   C6        1.0  0.15956000000000012  0.42426  0.4412299999999999  1.0000
  C   C7        1.0  0.25029000000000007  0.37745  0.40194999999999986  1.0000
  C   C8        1.0  0.28907000000000005  0.4159399999999999  0.32242  1.0000
  C   C9        1.0  0.49412000000000017  0.3735  0.14825  1.0000
  C   C10       1.0  0.5072900000000001  0.4309  0.06976  1.0000
  C   C11       1.0  0.42349  0.97574  0.44149  1.0000
  C   C12       1.0  0.37688999999999995  0.97075  0.40233999999999986  1.0000
  C   C13       1.0  0.4154099999999997  0.9727500000000001  0.32277  1.0000
  C   C14       1.0  0.37368000000000007  0.98403  0.14845999999999995  1.0000
  C   C15       1.0  0.43101000000000006  0.9920000000000001  0.06982  1.0000
  C   C16       1.0  0.5758800000000002  0.8403900000000001  0.5587  1.0000
  C   C17       1.0  0.6226700000000001  0.7496299999999998  0.59802  1.0000
  C   C18       1.0  0.5841699999999999  0.71084  0.67755  1.0000
  C   C19       1.0  0.6265300000000001  0.5057200000000001  0.8518699999999999  1.0000
  C   C20       1.0  0.5691100000000001  0.49263999999999997  0.9302999999999998  1.0000
  C   C21       1.0  0.024320000000000126  0.5765299999999998  0.5584  1.0000
  C   C22       1.0  0.029259999999999994  0.62313  0.59755  1.0000
  C   C23       1.0  0.0272600000000002  0.5846199999999998  0.67713  1.0000
  C   C24       1.0  0.015980000000000025  0.62628  0.8514399999999999  1.0000
  C   C25       1.0  0.008010000000000066  0.5689700000000001  0.9301199999999997  1.0000
  C   C26       1.0  0.8403300000000001  0.025079999999999995  0.55819  1.0000
  C   C27       1.0  0.7497  0.029599999999999998  0.59756  1.0000
  C   C28       1.0  0.71081  0.027390000000000074  0.6771699999999998  1.0000
  C   C29       1.0  0.5060700000000001  0.015860000000000082  0.8517899999999999  1.0000
  C   C30       1.0  0.49286000000000013  0.00794999999999999  0.93024  1.0000
  C   C31       1.0  0.02508999999999985  0.8403  0.55802  1.0000
  C   C32       1.0  0.029599999999999984  0.74969  0.59741  1.0000
  C   C33       1.0  0.027400000000000046  0.71079  0.67704  1.0000
  C   C34       1.0  0.015860000000000044  0.50604  0.85181  1.0000
  C   C35       1.0  0.00795000000000005  0.49286  0.93024  1.0000
  C   C36       1.0  0.84044  0.57573  0.55877  1.0000
  C   C37       1.0  0.7497000000000001  0.62255  0.59806  1.0000
  C   C38       1.0  0.7109200000000003  0.5840599999999998  0.67759  1.0000
  C   C39       1.0  0.5058700000000002  0.6264899999999998  0.85175  1.0000
  C   C40       1.0  0.4927000000000002  0.5691000000000002  0.9302499999999998  1.0000
  C   C41       1.0  0.5765099999999999  0.02425999999999999  0.55852  1.0000
  C   C42       1.0  0.6231  0.029240000000000033  0.5976599999999999  1.0000
  C   C43       1.0  0.58459  0.027249999999999993  0.67723  1.0000
  C   C44       1.0  0.6263100000000004  0.015959999999999967  0.85154  1.0000
  C   C45       1.0  0.56898  0.00799999999999996  0.93018  1.0000
  C   C46       1.0  0.42410999999999993  0.15961000000000003  0.4413  1.0000
  C   C47       1.0  0.37732  0.25037000000000004  0.40198  1.0000
  C   C48       1.0  0.4158300000000001  0.2891499999999999  0.32245  1.0000
  C   C49       1.0  0.37346  0.49427999999999994  0.14812999999999996  1.0000
  C   C50       1.0  0.4308800000000001  0.5073599999999999  0.06969999999999997  1.0000
  C   C51       1.0  0.9756699999999999  0.42347000000000007  0.4416  1.0000
  C   C52       1.0  0.97073  0.37687  0.40245  1.0000
  C   C53       1.0  0.97274  0.41537999999999997  0.32287  1.0000
  C   C54       1.0  0.98401  0.37372  0.14857  1.0000
  C   C55       1.0  0.99199  0.43103  0.06988  1.0000
  C   C56       1.0  0.15967000000000006  0.9749200000000001  0.44180999999999987  1.0000
  C   C57       1.0  0.2503  0.9704  0.40245  1.0000
  C   C58       1.0  0.28917999999999994  0.9726099999999999  0.32283  1.0000
  C   C59       1.0  0.4939300000000001  0.9841399999999999  0.14820999999999998  1.0000
  C   C60       1.0  0.5071300000000001  0.9920499999999999  0.06976  1.0000
  C   C61       1.0  0.9691800000000003  0.29396999999999995  0.44316  1.0000
  C   C62       1.0  0.9740900000000002  0.37243  0.28123  1.0000
  C   C63       1.0  0.97974  0.41161  0.19710999999999995  1.0000
  C   C64       1.0  0.29419  0.29431  0.4426  1.0000
  C   C65       1.0  0.37251999999999996  0.37262  0.28081  1.0000
  C   C66       1.0  0.41164000000000023  0.4117399999999999  0.19682  1.0000
  C   C67       1.0  0.2939799999999999  0.96918  0.4430199999999999  1.0000
  C   C68       1.0  0.37242000000000014  0.9740999999999999  0.28114  1.0000
  C   C69       1.0  0.41159  0.97975  0.19704  1.0000
  C   C70       1.0  0.7058  0.70568  0.5574  1.0000
  C   C71       1.0  0.62747  0.62738  0.71919  1.0000
  C   C72       1.0  0.58835  0.5882499999999999  0.80318  1.0000
  C   C73       1.0  0.030819999999999913  0.70602  0.55684  1.0000
  C   C74       1.0  0.02590000000000005  0.62757  0.71877  1.0000
  C   C75       1.0  0.020260000000000104  0.5883900000000001  0.8028999999999997  1.0000
  C   C76       1.0  0.7060100000000001  0.030820000000000007  0.55699  1.0000
  C   C77       1.0  0.62758  0.025900000000000027  0.71886  1.0000
  C   C78       1.0  0.5884099999999999  0.020249999999999994  0.80296  1.0000
  C   C79       1.0  4.999999999991903e-05  0.5759500000000001  0.99983  1.0000
  C   C80       1.0  0.5762300000000001  0.42370999999999986  7e-05  1.0000
  C   C81       1.0  0.42403000000000013  0.99996  0.0001  1.0000
  C   C82       1.0  0.9999500000000001  0.42404  0.00017  1.0000
  C   C83       1.0  0.42377000000000004  0.57629  0.99993  1.0000
  C   C84       1.0  0.5759700000000001  4.0000000000008175e-05  0.9998999999999999  1.0000
  O   O1        1.0  0.97766  0.12365999999999999  0.40026  1.0000
  O   O2        1.0  0.9777900000000003  0.12415  0.51336  1.0000
  O   O3        1.0  0.12310000000000007  0.49953999999999993  0.39973  1.0000
  O   O4        1.0  0.12441000000000009  0.38520999999999994  0.51244  1.0000
  O   O5        1.0  0.49859000000000003  0.9782900000000001  0.39985999999999994  1.0000
  O   O6        1.0  0.38450000000000006  0.9791499999999997  0.51265  1.0000
  O   O7        1.0  0.5006000000000002  0.87684  0.60017  1.0000
  O   O8        1.0  0.6149400000000002  0.8755699999999996  0.48750999999999994  1.0000
  O   O9        1.0  0.021840000000000026  0.50143  0.60005  1.0000
  O   O10       1.0  0.020869999999999975  0.61551  0.48723999999999995  1.0000
  O   O11       1.0  0.8764800000000001  0.022159999999999992  0.59993  1.0000
  O   O12       1.0  0.87578  0.022330000000000013  0.48679  1.0000
  O   O13       1.0  0.02233000000000001  0.87634  0.59974  1.0000
  O   O14       1.0  0.02220000000000007  0.87585  0.48664999999999997  1.0000
  O   O15       1.0  0.87689  0.50046  0.60027  1.0000
  O   O16       1.0  0.8755800000000002  0.6147899999999997  0.48756  1.0000
  O   O17       1.0  0.5014100000000001  0.021710000000000076  0.6001399999999998  1.0000
  O   O18       1.0  0.6154900000000001  0.020850000000000007  0.48735  1.0000
  O   O19       1.0  0.4994000000000001  0.12315999999999999  0.39984  1.0000
  O   O20       1.0  0.38505  0.12443000000000003  0.51249  1.0000
  O   O21       1.0  0.97815  0.49857  0.39995  1.0000
  O   O22       1.0  0.9791200000000001  0.38447999999999993  0.51276  1.0000
  O   O23       1.0  0.12352000000000007  0.97784  0.40007  1.0000
  O   O24       1.0  0.12421999999999989  0.97767  0.51321  1.0000
