data_image0
_chemical_formula_structural       Cd10H28C32N36Cl4O8
_chemical_formula_sum              "Cd10 H28 C32 N36 Cl4 O8"
_cell_length_a       8.33434
_cell_length_b       10.1493
_cell_length_c       21.92146
_cell_angle_alpha    90.00046
_cell_angle_beta     90.0
_cell_angle_gamma    91.59725

_space_group_name_H-M_alt    "P 1"
_space_group_IT_number       1

loop_
  _space_group_symop_operation_xyz
  'x, y, z'

loop_
  _atom_site_type_symbol
  _atom_site_label
  _atom_site_symmetry_multiplicity
  _atom_site_fract_x
  _atom_site_fract_y
  _atom_site_fract_z
  _atom_site_occupancy
  Cd  Cd1       1.0  0.61699  0.96826  0.35191000000000006  1.0000
  Cd  Cd2       1.0  0.30664  0.71828  0.39152000000000003  1.0000
  Cd  Cd3       1.0  0.383  0.53176  0.8519100000000002  1.0000
  Cd  Cd4       1.0  0.69334  0.78174  0.89153  1.0000
  Cd  Cd5       1.0  0.38299  0.03175  0.6481  1.0000
  Cd  Cd6       1.0  0.69334  0.28173  0.60848  1.0000
  Cd  Cd7       1.0  0.61699  0.46825  0.14809000000000003  1.0000
  Cd  Cd8       1.0  0.30664  0.21827000000000002  0.10847  1.0000
  Cd  Cd9       1.0  0.99999  0.5  0.5  1.0000
  Cd  Cd10      1.0  0.0  0.0  0.0  1.0000
  H   H1        1.0  0.94517  0.8104  0.42505  1.0000
  H   H2        1.0  0.37046  0.01252  0.23334  1.0000
  H   H3        1.0  0.71832  0.29217  0.29286000000000006  1.0000
  H   H4        1.0  0.60073  0.51697  0.47080000000000005  1.0000
  H   H5        1.0  0.08453  0.16375000000000003  0.36962  1.0000
  H   H6        1.0  0.29092  0.18657  0.34876000000000007  1.0000
  H   H7        1.0  0.23755  0.18255  0.42646  1.0000
  H   H8        1.0  0.05482999999999999  0.68961  0.9250600000000001  1.0000
  H   H9        1.0  0.62953  0.48748  0.73335  1.0000
  H   H10       1.0  0.28167  0.20785  0.79288  1.0000
  H   H11       1.0  0.39925  0.98305  0.97081  1.0000
  H   H12       1.0  0.91547  0.33624  0.86962  1.0000
  H   H13       1.0  0.70907  0.31344  0.8487600000000001  1.0000
  H   H14       1.0  0.76245  0.31746  0.9264600000000002  1.0000
  H   H15       1.0  0.05482000000000001  0.18961000000000003  0.57495  1.0000
  H   H16       1.0  0.62953  0.9874800000000001  0.76666  1.0000
  H   H17       1.0  0.28167  0.70784  0.70714  1.0000
  H   H18       1.0  0.39926  0.48303  0.5292  1.0000
  H   H19       1.0  0.91545  0.83626  0.63039  1.0000
  H   H20       1.0  0.70906  0.8134300000000001  0.65124  1.0000
  H   H21       1.0  0.76243  0.81746  0.57354  1.0000
  H   H22       1.0  0.94516  0.3104  0.07495  1.0000
  H   H23       1.0  0.37045  0.51253  0.26665000000000005  1.0000
  H   H24       1.0  0.71832  0.79216  0.20713  1.0000
  H   H25       1.0  0.60074  0.01696  0.02919  1.0000
  H   H26       1.0  0.08452000000000001  0.6637700000000001  0.13039  1.0000
  H   H27       1.0  0.29092  0.68657  0.15124  1.0000
  H   H28       1.0  0.23754  0.68254  0.07354  1.0000
  C   C1        1.0  0.83284  0.75548  0.43117000000000005  1.0000
  C   C2        1.0  0.82454  0.24054  0.41432  1.0000
  C   C3        1.0  0.70598  0.13412  0.4764900000000001  1.0000
  C   C4        1.0  0.44354  0.10199  0.23817000000000002  1.0000
  C   C5        1.0  0.62092  0.24417  0.26778  1.0000
  C   C6        1.0  0.65669  0.60726  0.4539200000000001  1.0000
  C   C7        1.0  0.20793  0.13994  0.38167  1.0000
  C   C8        1.0  0.2309  0.9935700000000001  0.38282  1.0000
  C   C9        1.0  0.16715  0.74453  0.9311800000000002  1.0000
  C   C10       1.0  0.17544  0.25946  0.9143200000000001  1.0000
  C   C11       1.0  0.29398  0.36589  0.9765000000000003  1.0000
  C   C12       1.0  0.55645  0.39802000000000004  0.73818  1.0000
  C   C13       1.0  0.37906  0.25584  0.7678  1.0000
  C   C14       1.0  0.3433  0.8927600000000001  0.9539200000000002  1.0000
  C   C15       1.0  0.79207  0.36007  0.88167  1.0000
  C   C16       1.0  0.76911  0.50643  0.88282  1.0000
  C   C17       1.0  0.16714  0.24452  0.56883  1.0000
  C   C18       1.0  0.17544  0.75946  0.58569  1.0000
  C   C19       1.0  0.294  0.86588  0.52351  1.0000
  C   C20       1.0  0.55645  0.89801  0.7618300000000001  1.0000
  C   C21       1.0  0.37907  0.75583  0.7322200000000001  1.0000
  C   C22       1.0  0.3433  0.39275  0.54609  1.0000
  C   C23       1.0  0.79205  0.8600700000000001  0.6183300000000002  1.0000
  C   C24       1.0  0.76908  0.00644  0.61718  1.0000
  C   C25       1.0  0.83284  0.25548  0.06882  1.0000
  C   C26       1.0  0.82455  0.74054  0.08568  1.0000
  C   C27       1.0  0.70601  0.63412  0.023500000000000007  1.0000
  C   C28       1.0  0.44354  0.60199  0.26182  1.0000
  C   C29       1.0  0.62092  0.74417  0.23221000000000006  1.0000
  C   C30       1.0  0.65669  0.10724  0.04608000000000002  1.0000
  C   C31       1.0  0.20792  0.63994  0.11833  1.0000
  C   C32       1.0  0.23087  0.49357000000000006  0.11718  1.0000
  N   N1        1.0  0.56374  0.11993000000000001  0.27947  1.0000
  N   N2        1.0  0.7388  0.12382000000000001  0.41649  1.0000
  N   N3        1.0  0.81541  0.63754  0.45955  1.0000
  N   N4        1.0  0.84507  0.31183  0.4668600000000001  1.0000
  N   N5        1.0  0.69252  0.79586  0.40958000000000006  1.0000
  N   N6        1.0  0.57847  0.70027  0.42431  1.0000
  N   N7        1.0  0.42689  0.20826  0.20339000000000004  1.0000
  N   N8        1.0  0.76445  0.23814  0.50921  1.0000
  N   N9        1.0  0.54183  0.30003  0.22199  1.0000
  N   N10       1.0  0.43626  0.38008  0.7794800000000001  1.0000
  N   N11       1.0  0.26117  0.37619  0.9165  1.0000
  N   N12       1.0  0.18457  0.8624800000000001  0.9595500000000001  1.0000
  N   N13       1.0  0.15491  0.18818  0.9668600000000002  1.0000
  N   N14       1.0  0.30748  0.70416  0.90959  1.0000
  N   N15       1.0  0.42152  0.79975  0.92432  1.0000
  N   N16       1.0  0.57309  0.29175  0.7034000000000001  1.0000
  N   N17       1.0  0.23552  0.26186  0.00921  1.0000
  N   N18       1.0  0.45814  0.19997999999999996  0.7220000000000001  1.0000
  N   N19       1.0  0.43625  0.88008  0.72054  1.0000
  N   N20       1.0  0.26118  0.87618  0.5835100000000001  1.0000
  N   N21       1.0  0.18457  0.36247  0.54045  1.0000
  N   N22       1.0  0.15492  0.6881800000000001  0.53314  1.0000
  N   N23       1.0  0.30747  0.20415000000000003  0.5904300000000001  1.0000
  N   N24       1.0  0.42151  0.29974  0.5757  1.0000
  N   N25       1.0  0.5731  0.7917500000000001  0.79661  1.0000
  N   N26       1.0  0.23554  0.76187  0.4907900000000001  1.0000
  N   N27       1.0  0.45815000000000006  0.69997  0.77801  1.0000
  N   N28       1.0  0.56373  0.61992  0.22052000000000002  1.0000
  N   N29       1.0  0.73881  0.62382  0.0835  1.0000
  N   N30       1.0  0.81542  0.13753  0.04045000000000001  1.0000
  N   N31       1.0  0.84508  0.81183  0.03314  1.0000
  N   N32       1.0  0.69251  0.29585  0.09042000000000001  1.0000
  N   N33       1.0  0.57847  0.20026  0.07569  1.0000
  N   N34       1.0  0.42690000000000006  0.7082500000000002  0.29660000000000003  1.0000
  N   N35       1.0  0.76447  0.7381500000000001  0.99079  1.0000
  N   N36       1.0  0.54185  0.80003  0.278  1.0000
  Cl  Cl1       1.0  0.15837  0.49669  0.38917000000000007  1.0000
  Cl  Cl2       1.0  0.84161  0.00334  0.8891700000000001  1.0000
  Cl  Cl3       1.0  0.84162  0.50332  0.61083  1.0000
  Cl  Cl4       1.0  0.15838  0.99667  0.11083  1.0000
  O   O1        1.0  0.11972000000000001  0.91273  0.36926  1.0000
  O   O2        1.0  0.37206  0.95314  0.39975  1.0000
  O   O3        1.0  0.8803  0.58728  0.8692700000000002  1.0000
  O   O4        1.0  0.62795  0.54687  0.89975  1.0000
  O   O5        1.0  0.88027  0.08728  0.63075  1.0000
  O   O6        1.0  0.62792  0.04686  0.60025  1.0000
  O   O7        1.0  0.11968000000000001  0.41273  0.13074  1.0000
  O   O8        1.0  0.37204  0.45314000000000004  0.10025  1.0000
