data_image0
_chemical_formula_structural       Cd6H34C48N8O18
_chemical_formula_sum              "Cd6 H34 C48 N8 O18"
_cell_length_a       11.87098
_cell_length_b       11.87526
_cell_length_c       19.737309999999997
_cell_angle_alpha    89.81176999999998
_cell_angle_beta     90.16744
_cell_angle_gamma    117.00645

_symmetry_space_group_name_H-M    'P 1'
_symmetry_Int_Tables_number       1

loop_
  _symmetry_equiv_pos_as_xyz
  'x,y,z'

loop_
  _atom_site_type_symbol
  _atom_site_label
  _atom_site_symmetry_multiplicity
  _atom_site_fract_x
  _atom_site_fract_y
  _atom_site_fract_z
  _atom_site_occupancy
  Cd  Cd1       1.0  0.41179999999999994  0.02187  0.16367  1.0000
  Cd  Cd2       1.0  0.02197000000000004  0.4121  0.83638  1.0000
  Cd  Cd3       1.0  0.022219999999999993  0.41156  0.66428  1.0000
  Cd  Cd4       1.0  0.41107999999999995  0.02271  0.33583  1.0000
  Cd  Cd5       1.0  0.07900999999999994  0.81617  0.25057  1.0000
  Cd  Cd6       1.0  0.81642  0.07949000000000002  0.74949  1.0000
  H   H1        1.0  0.9454899999999999  0.6476500000000001  0.04108  1.0000
  H   H2        1.0  0.89573  0.49536  0.9445  1.0000
  H   H3        1.0  0.26137000000000005  0.5372100000000001  0.94148  1.0000
  H   H4        1.0  0.32443000000000005  0.6864300000000001  0.04044  1.0000
  H   H5        1.0  0.90105  0.60376  0.14548  1.0000
  H   H6        1.0  0.6881499999999999  0.41323  0.14047  1.0000
  H   H7        1.0  0.9303599999999999  0.8999400000000001  0.35509  1.0000
  H   H8        1.0  0.7400499999999999  0.9411900000000001  0.35883  1.0000
  H   H9        1.0  0.64766  0.9456000000000002  0.95889  1.0000
  H   H10       1.0  0.49520000000000003  0.89581  0.05553  1.0000
  H   H11       1.0  0.53716  0.26134  0.058480000000000004  1.0000
  H   H12       1.0  0.68654  0.32441  0.9594600000000001  1.0000
  H   H13       1.0  0.60426  0.90146  0.85459  1.0000
  H   H14       1.0  0.41366  0.68861  0.8596999999999999  1.0000
  H   H15       1.0  0.90018  0.9309300000000001  0.64492  1.0000
  H   H16       1.0  0.94068  0.7402600000000001  0.64121  1.0000
  H   H17       1.0  0.6484500000000001  0.9468600000000003  0.54058  1.0000
  H   H18       1.0  0.49546000000000007  0.8969900000000001  0.44423000000000007  1.0000
  H   H19       1.0  0.53605  0.26223  0.44077000000000005  1.0000
  H   H20       1.0  0.68666  0.32562  0.53933  1.0000
  H   H21       1.0  0.6027100000000001  0.9001600000000002  0.64533  1.0000
  H   H22       1.0  0.41203  0.68671  0.64164  1.0000
  H   H23       1.0  0.8978800000000001  0.9289400000000002  0.8552900000000001  1.0000
  H   H24       1.0  0.9380499999999999  0.73803  0.85933  1.0000
  H   H25       1.0  0.94697  0.64844  0.45903  1.0000
  H   H26       1.0  0.89665  0.49552000000000007  0.55559  1.0000
  H   H27       1.0  0.26206  0.53627  0.55947  1.0000
  H   H28       1.0  0.32581  0.68661  0.46075999999999995  1.0000
  H   H29       1.0  0.89965  0.60211  0.35475  1.0000
  H   H30       1.0  0.68604  0.41173000000000004  0.35853  1.0000
  H   H31       1.0  0.92838  0.89756  0.14473  1.0000
  H   H32       1.0  0.73765  0.93821  0.14074  1.0000
  H   H33       1.0  0.26398  0.07017000000000001  0.24908  1.0000
  H   H34       1.0  0.07039000000000001  0.2645700000000001  0.7509900000000002  1.0000
  C   C1        1.0  0.17497000000000007  0.7698500000000001  0.10704  1.0000
  C   C2        1.0  0.13964  0.67908  0.04919  1.0000
  C   C3        1.0  0.017080000000000036  0.62344  0.02131  1.0000
  C   C4        1.0  0.9890799999999998  0.53988  0.96764  1.0000
  C   C5        1.0  0.19420000000000004  0.56246  0.9662400000000001  1.0000
  C   C6        1.0  0.22885000000000008  0.6459200000000002  0.02023  1.0000
  C   C7        1.0  0.84946  0.5581800000000001  0.19118  1.0000
  C   C8        1.0  0.7316299999999999  0.4536600000000001  0.18879  1.0000
  C   C9        1.0  0.8851999999999999  0.91003  0.30894  1.0000
  C   C10       1.0  0.7802200000000001  0.9321800000000002  0.3109  1.0000
  C   C11       1.0  0.76988  0.17502  0.8929500000000001  1.0000
  C   C12       1.0  0.67904  0.13966  0.95079  1.0000
  C   C13       1.0  0.62337  0.017120000000000003  0.97867  1.0000
  C   C14       1.0  0.5397400000000001  0.9891200000000001  0.03235  1.0000
  C   C15       1.0  0.56238  0.1942  0.03371  1.0000
  C   C16       1.0  0.64591  0.22885000000000003  0.97971  1.0000
  C   C17       1.0  0.55862  0.84984  0.80892  1.0000
  C   C18       1.0  0.45398000000000005  0.7320800000000002  0.81133  1.0000
  C   C19       1.0  0.9100999999999999  0.8856700000000001  0.69108  1.0000
  C   C20       1.0  0.93191  0.7805300000000002  0.68914  1.0000
  C   C21       1.0  0.77028  0.17527  0.60667  1.0000
  C   C22       1.0  0.6797999999999998  0.141  0.54861  1.0000
  C   C23       1.0  0.62406  0.0185  0.52075  1.0000
  C   C24       1.0  0.54012  0.99043  0.46709000000000006  1.0000
  C   C25       1.0  0.56212  0.19528000000000006  0.46542000000000006  1.0000
  C   C26       1.0  0.64612  0.23000000000000007  0.5193800000000001  1.0000
  C   C27       1.0  0.55786  0.84917  0.69132  1.0000
  C   C28       1.0  0.45330000000000004  0.7312900000000001  0.6895900000000001  1.0000
  C   C29       1.0  0.9087399999999999  0.8845300000000001  0.80922  1.0000
  C   C30       1.0  0.93042  0.77933  0.81135  1.0000
  C   C31       1.0  0.17543999999999996  0.77037  0.39332  1.0000
  C   C32       1.0  0.14114999999999997  0.67981  0.45135  1.0000
  C   C33       1.0  0.018480000000000003  0.62407  0.47907  1.0000
  C   C34       1.0  0.9902000000000002  0.5402400000000002  0.5328  1.0000
  C   C35       1.0  0.19519  0.56229  0.5347  1.0000
  C   C36       1.0  0.23011000000000004  0.6461800000000001  0.48066  1.0000
  C   C37       1.0  0.84864  0.55733  0.30878  1.0000
  C   C38       1.0  0.73062  0.45293000000000005  0.31054  1.0000
  C   C39       1.0  0.8840499999999999  0.90858  0.19080000000000003  1.0000
  C   C40       1.0  0.7789699999999999  0.93052  0.18870000000000003  1.0000
  C   C41       1.0  0.66934  0.3979400000000001  0.24953  1.0000
  C   C42       1.0  0.54627  0.28008  0.24916  1.0000
  C   C43       1.0  0.72503  0.94336  0.24974  1.0000
  C   C44       1.0  0.6107699999999998  0.96536  0.24929  1.0000
  C   C45       1.0  0.39806  0.67003  0.75058  1.0000
  C   C46       1.0  0.28  0.54706  0.7508  1.0000
  C   C47       1.0  0.9430599999999999  0.7253  0.75031  1.0000
  C   C48       1.0  0.96494  0.6110100000000002  0.75066  1.0000
  N   N1        1.0  0.07571000000000003  0.5090400000000002  0.93974  1.0000
  N   N2        1.0  0.5089  0.07573  0.06023  1.0000
  N   N3        1.0  0.50867  0.07685  0.43896  1.0000
  N   N4        1.0  0.07664  0.50896  0.56109  1.0000
  N   N5        1.0  0.90935  0.61005  0.25014  1.0000
  N   N6        1.0  0.9380399999999999  0.89906  0.24993000000000004  1.0000
  N   N7        1.0  0.61051  0.9097900000000002  0.74995  1.0000
  N   N8        1.0  0.89932  0.93858  0.75009  1.0000
  O   O1        1.0  0.08674000000000005  0.78812  0.13455  1.0000
  O   O2        1.0  0.2910900000000001  0.8217600000000002  0.12472  1.0000
  O   O3        1.0  0.50233  0.23321000000000006  0.19096000000000002  1.0000
  O   O4        1.0  0.56729  0.97495  0.30681  1.0000
  O   O5        1.0  0.7882  0.08683000000000002  0.86547  1.0000
  O   O6        1.0  0.8217700000000001  0.29111000000000004  0.87525  1.0000
  O   O7        1.0  0.23326  0.50265  0.80899  1.0000
  O   O8        1.0  0.97442  0.5678  0.69307  1.0000
  O   O9        1.0  0.78923  0.08637000000000002  0.63323  1.0000
  O   O10       1.0  0.82104  0.29044000000000003  0.62599  1.0000
  O   O11       1.0  0.23428  0.49777  0.69329  1.0000
  O   O12       1.0  0.97103  0.5663600000000001  0.80861  1.0000
  O   O13       1.0  0.0864400000000001  0.7892200000000003  0.36679  1.0000
  O   O14       1.0  0.29066  0.82125  0.37398000000000003  1.0000
  O   O15       1.0  0.49675  0.23454000000000003  0.30669  1.0000
  O   O16       1.0  0.5663800000000001  0.9713700000000001  0.19127  1.0000
  O   O17       1.0  0.27216  0.9920700000000001  0.24931  1.0000
  O   O18       1.0  0.99227  0.27273  0.75073  1.0000
