data_image0
_chemical_formula_structural       Fe3H48C72N30
_chemical_formula_sum              "Fe3 H48 C72 N30"
_cell_length_a       9.54218
_cell_length_b       16.44396
_cell_length_c       16.46003
_cell_angle_alpha    116.71544999999999
_cell_angle_beta     101.01986
_cell_angle_gamma    101.0516

_symmetry_space_group_name_H-M    'P 1'
_symmetry_Int_Tables_number       1

loop_
  _symmetry_equiv_pos_as_xyz
  'x,y,z'

loop_
  _atom_site_type_symbol
  _atom_site_label
  _atom_site_symmetry_multiplicity
  _atom_site_fract_x
  _atom_site_fract_y
  _atom_site_fract_z
  _atom_site_occupancy
  Fe  Fe1       1.0  3.999999999999099e-05  1.999999999999756e-05  0.5  1.0000
  Fe  Fe2       1.0  0.99997  0.49998  0.99999  1.0000
  Fe  Fe3       1.0  0.49993000000000004  0.49998  0.49998  1.0000
  H   H1        1.0  0.009929999999999968  0.13622999999999993  0.40264  1.0000
  H   H2        1.0  0.16307  0.17635  0.30947  1.0000
  H   H3        1.0  0.35766  0.0945  0.2678  1.0000
  H   H4        1.0  0.3934599999999998  0.9776799999999995  0.32409  1.0000
  H   H5        1.0  0.28124000000000005  0.78372  0.601  1.0000
  H   H6        1.0  0.3790199999999999  0.65704  0.6122599999999999  1.0000
  H   H7        1.0  0.54889  0.61251  0.38726  1.0000
  H   H8        1.0  0.46337999999999996  0.7404599999999998  0.37  1.0000
  H   H9        1.0  0.8735999999999999  0.26503  0.86286  1.0000
  H   H10       1.0  0.98618  0.13096999999999998  0.82245  1.0000
  H   H11       1.0  0.26164  0.17122  0.90435  1.0000
  H   H12       1.0  0.41405  0.3453  0.0215  1.0000
  H   H13       1.0  0.49833  0.81814  0.21739  1.0000
  H   H14       1.0  0.7231899999999999  0.95687  0.34415  1.0000
  H   H15       1.0  0.9348500000000002  0.7749299999999998  0.38674  1.0000
  H   H16       1.0  0.72148  0.62898  0.25843  1.0000
  H   H17       1.0  0.6075799999999999  0.5979899999999998  0.73474  1.0000
  H   H18       1.0  0.85365  0.6913999999999998  0.86852  1.0000
  H   H19       1.0  0.08914  0.73261  0.82819  1.0000
  H   H20       1.0  0.0683599999999999  0.6753999999999998  0.65445  1.0000
  H   H21       1.0  0.6800299999999999  0.39858999999999983  0.18122  1.0000
  H   H22       1.0  0.7670699999999998  0.38719  0.04341  1.0000
  H   H23       1.0  0.1599999999999999  0.6128199999999998  0.22616  1.0000
  H   H24       1.0  0.09165999999999996  0.6297399999999997  0.37129  1.0000
  H   H25       1.0  0.99015  0.8637999999999998  0.59739  1.0000
  H   H26       1.0  0.83696  0.8236599999999998  0.69052  1.0000
  H   H27       1.0  0.64233  0.90549  0.73216  1.0000
  H   H28       1.0  0.6065599999999999  0.022320000000000027  0.67586  1.0000
  H   H29       1.0  0.7188  0.21631999999999996  0.39904  1.0000
  H   H30       1.0  0.62093  0.34296  0.38774  1.0000
  H   H31       1.0  0.45104  0.3874600000000001  0.61273  1.0000
  H   H32       1.0  0.53664  0.25953999999999994  0.63002  1.0000
  H   H33       1.0  0.12639999999999998  0.7349699999999999  0.13716  1.0000
  H   H34       1.0  0.013839999999999943  0.8690399999999998  0.17755000000000004  1.0000
  H   H35       1.0  0.7383899999999999  0.8287999999999999  0.09565  1.0000
  H   H36       1.0  0.58597  0.65471  0.97849  1.0000
  H   H37       1.0  0.50165  0.18187999999999993  0.78262  1.0000
  H   H38       1.0  0.27682  0.043149999999999966  0.65584  1.0000
  H   H39       1.0  0.06515000000000003  0.22509000000000007  0.61326  1.0000
  H   H40       1.0  0.27852  0.37104999999999994  0.7415899999999999  1.0000
  H   H41       1.0  0.39236  0.40204000000000006  0.26527  1.0000
  H   H42       1.0  0.14630999999999997  0.30858999999999986  0.13147  1.0000
  H   H43       1.0  0.9108  0.26734  0.17178  1.0000
  H   H44       1.0  0.9315499999999999  0.32457  0.34552  1.0000
  H   H45       1.0  0.31992999999999994  0.6013699999999997  0.81875  1.0000
  H   H46       1.0  0.23293  0.61278  0.95659  1.0000
  H   H47       1.0  0.83998  0.38716  0.77385  1.0000
  H   H48       1.0  0.90831  0.3702199999999999  0.62871  1.0000
  C   C1        1.0  0.09542  0.10266  0.38258  1.0000
  C   C2        1.0  0.1805  0.12416999999999999  0.33056  1.0000
  C   C3        1.0  0.28868  0.07856  0.30755  1.0000
  C   C4        1.0  0.30897  0.01373000000000003  0.3377200000000001  1.0000
  C   C5        1.0  0.22008  0.9960299999999999  0.3901200000000001  1.0000
  C   C6        1.0  0.23702  0.93315  0.4284299999999999  1.0000
  C   C7        1.0  0.29859  0.83993  0.47242  1.0000
  C   C8        1.0  0.3636  0.77132  0.48377  1.0000
  C   C9        1.0  0.34212  0.74788  0.55376  1.0000
  C   C10       1.0  0.39547  0.67763  0.55974  1.0000
  C   C11       1.0  0.49098  0.6528599999999998  0.4342  1.0000
  C   C12       1.0  0.44307  0.72359  0.42436  1.0000
  C   C13       1.0  0.9923300000000002  0.27872  0.89641  1.0000
  C   C14       1.0  0.05562999999999999  0.2047  0.87476  1.0000
  C   C15       1.0  0.20884999999999998  0.22732999999999995  0.92037  1.0000
  C   C16       1.0  0.29390999999999995  0.32286999999999993  0.9853500000000001  1.0000
  C   C17       1.0  0.22305  0.39344  0.00309  1.0000
  C   C18       1.0  0.30308  0.49509  0.06624  1.0000
  C   C19       1.0  0.45829999999999993  0.63268  0.16010000000000002  1.0000
  C   C20       1.0  0.59205  0.71273  0.22874  1.0000
  C   C21       1.0  0.5947999999999999  0.8067599999999997  0.25283  1.0000
  C   C22       1.0  0.71831  0.88324  0.32303  1.0000
  C   C23       1.0  0.8371  0.78152  0.34663  1.0000
  C   C24       1.0  0.71856  0.70066  0.27581  1.0000
  C   C25       1.0  0.71283  0.61782  0.72119  1.0000
  C   C26       1.0  0.84977  0.66994  0.79498  1.0000
  C   C27       1.0  0.9805799999999999  0.6926899999999998  0.77231  1.0000
  C   C28       1.0  0.9705  0.66201  0.67694  1.0000
  C   C29       1.0  0.8293999999999999  0.60948  0.60658  1.0000
  C   C30       1.0  0.80793  0.57075  0.50498  1.0000
  C   C31       1.0  0.8251399999999999  0.5270199999999998  0.36729000000000006  1.0000
  C   C32       1.0  0.87879  0.51589  0.28724  1.0000
  C   C33       1.0  0.7879200000000001  0.44586  0.19309  1.0000
  C   C34       1.0  0.8355099999999998  0.43996  0.11697  1.0000
  C   C35       1.0  0.05548000000000002  0.56574  0.21897  1.0000
  C   C36       1.0  0.017329999999999998  0.5754  0.29952  1.0000
  C   C37       1.0  0.90465  0.89737  0.61743  1.0000
  C   C38       1.0  0.8195400000000002  0.87584  0.66944  1.0000
  C   C39       1.0  0.71134  0.92144  0.69243  1.0000
  C   C40       1.0  0.69106  0.9862699999999996  0.66225  1.0000
  C   C41       1.0  0.77998  0.003990000000000008  0.60987  1.0000
  C   C42       1.0  0.7630199999999999  0.06685000000000002  0.57155  1.0000
  C   C43       1.0  0.7014199999999999  0.1600799999999999  0.52757  1.0000
  C   C44       1.0  0.6364  0.22869  0.51624  1.0000
  C   C45       1.0  0.6578799999999999  0.25213999999999986  0.44625  1.0000
  C   C46       1.0  0.6044899999999997  0.3223799999999999  0.44027  1.0000
  C   C47       1.0  0.50897  0.34713  0.56579  1.0000
  C   C48       1.0  0.55692  0.2764099999999998  0.5756499999999999  1.0000
  C   C49       1.0  0.007680000000000025  0.72129  0.10361  1.0000
  C   C50       1.0  0.94439  0.7953099999999997  0.12525  1.0000
  C   C51       1.0  0.7911699999999999  0.77269  0.07963  1.0000
  C   C52       1.0  0.7061  0.67715  0.01466  1.0000
  C   C53       1.0  0.77695  0.60658  0.99693  1.0000
  C   C54       1.0  0.69691  0.50492  0.93378  1.0000
  C   C55       1.0  0.54168  0.36734  0.83993  1.0000
  C   C56       1.0  0.40792999999999996  0.2872899999999999  0.77128  1.0000
  C   C57       1.0  0.40518999999999994  0.19325999999999993  0.7471799999999998  1.0000
  C   C58       1.0  0.2817  0.11678000000000004  0.67696  1.0000
  C   C59       1.0  0.16292000000000004  0.21851  0.65337  1.0000
  C   C60       1.0  0.28144  0.29937  0.72421  1.0000
  C   C61       1.0  0.28709999999999997  0.3821799999999999  0.27881  1.0000
  C   C62       1.0  0.15017000000000003  0.33005  0.20501  1.0000
  C   C63       1.0  0.01936000000000001  0.30728  0.22767  1.0000
  C   C64       1.0  0.029420000000000005  0.33796  0.32303  1.0000
  C   C65       1.0  0.17051000000000002  0.3905  0.39341000000000004  1.0000
  C   C66       1.0  0.19196999999999995  0.4292399999999999  0.495  1.0000
  C   C67       1.0  0.17478  0.4729799999999999  0.6327  1.0000
  C   C68       1.0  0.1211499999999999  0.48408999999999985  0.71275  1.0000
  C   C69       1.0  0.2120399999999999  0.5541099999999998  0.80689  1.0000
  C   C70       1.0  0.16447000000000003  0.56001  0.88303  1.0000
  C   C71       1.0  0.9444899999999999  0.43423999999999996  0.78103  1.0000
  C   C72       1.0  0.98263  0.42457  0.70047  1.0000
  N   N1        1.0  0.11336000000000002  0.039570000000000015  0.41178000000000003  1.0000
  N   N2        1.0  0.15739999999999993  0.9289799999999999  0.48779  1.0000
  N   N3        1.0  0.19680999999999996  0.8695399999999998  0.51702  1.0000
  N   N4        1.0  0.32656  0.87752  0.41622  1.0000
  N   N5        1.0  0.46681000000000006  0.62857  0.5  1.0000
  N   N6        1.0  0.07331000000000001  0.37159  0.95959  1.0000
  N   N7        1.0  0.22854999999999992  0.5592499999999998  0.07086  1.0000
  N   N8        1.0  0.3277699999999999  0.6482099999999997  0.13079  1.0000
  N   N9        1.0  0.44784999999999997  0.53828  0.12189  1.0000
  N   N10       1.0  0.8379200000000001  0.87215  0.37149  1.0000
  N   N11       1.0  0.70133  0.58826  0.62856  1.0000
  N   N12       1.0  0.66933  0.51109  0.44105  1.0000
  N   N13       1.0  0.67925  0.48211000000000004  0.35207000000000005  1.0000
  N   N14       1.0  0.90919  0.5832  0.46152  1.0000
  N   N15       1.0  0.96608  0.49988999999999995  0.12821  1.0000
  N   N16       1.0  0.8867099999999999  0.96046  0.58822  1.0000
  N   N17       1.0  0.8426099999999999  0.07101000000000006  0.51217  1.0000
  N   N18       1.0  0.80317  0.13046  0.48295  1.0000
  N   N19       1.0  0.67348  0.12249  0.58378  1.0000
  N   N20       1.0  0.53311  0.3714099999999999  0.49999  1.0000
  N   N21       1.0  0.92668  0.6284100000000001  0.04044  1.0000
  N   N22       1.0  0.7714299999999998  0.4407599999999999  0.92916  1.0000
  N   N23       1.0  0.67221  0.3518  0.86923  1.0000
  N   N24       1.0  0.55213  0.46174  0.87815  1.0000
  N   N25       1.0  0.16209999999999997  0.12788  0.6285  1.0000
  N   N26       1.0  0.29858999999999997  0.41172999999999993  0.37143999999999994  1.0000
  N   N27       1.0  0.33056  0.48893  0.55893  1.0000
  N   N28       1.0  0.32065  0.51791  0.64791  1.0000
  N   N29       1.0  0.09072999999999994  0.41677999999999976  0.53847  1.0000
  N   N30       1.0  0.033899999999999986  0.50009  0.87179  1.0000
