data_image0
_chemical_formula_structural       Gd4H48C48N12O36
_chemical_formula_sum              "Gd4 H48 C48 N12 O36"
_cell_length_a       7.74881
_cell_length_b       11.13358
_cell_length_c       22.51349
_cell_angle_alpha    90.0
_cell_angle_beta     90.0
_cell_angle_gamma    98.65659

_symmetry_space_group_name_H-M    'P 1'
_symmetry_Int_Tables_number       1

loop_
  _symmetry_equiv_pos_as_xyz
  'x,y,z'

loop_
  _atom_site_type_symbol
  _atom_site_label
  _atom_site_symmetry_multiplicity
  _atom_site_fract_x
  _atom_site_fract_y
  _atom_site_fract_z
  _atom_site_occupancy
  Gd  Gd1       1.0  0.61314  0.26893  0.7731699999999999  1.0000
  Gd  Gd2       1.0  0.8868699999999999  0.7310699999999999  0.27316  1.0000
  Gd  Gd3       1.0  0.38686  0.7310699999999999  0.22684  1.0000
  Gd  Gd4       1.0  0.11314  0.26893  0.72684  1.0000
  H   H1        1.0  0.39021  0.10595  0.53364  1.0000
  H   H2        1.0  0.24761  0.21837  0.53554  1.0000
  H   H3        1.0  0.50863  0.37927  0.55156  1.0000
  H   H4        1.0  0.64236  0.26368  0.56118  1.0000
  H   H5        1.0  0.29174  0.50984  0.38703999999999994  1.0000
  H   H6        1.0  0.4164099999999999  0.49354  0.3217  1.0000
  H   H7        1.0  0.04813999999999999  0.35237  0.34206  1.0000
  H   H8        1.0  0.16803  0.36811  0.27435  1.0000
  H   H9        1.0  0.77097  0.10096999999999999  0.37247  1.0000
  H   H10       1.0  0.76457  0.2053  0.31267  1.0000
  H   H11       1.0  0.54651  0.06601  0.25956  1.0000
  H   H12       1.0  0.48559  0.9806599999999999  0.32389  1.0000
  H   H13       1.0  0.10979  0.89405  0.03363  1.0000
  H   H14       1.0  0.2523899999999999  0.78163  0.03554  1.0000
  H   H15       1.0  0.9913799999999998  0.62074  0.051559999999999995  1.0000
  H   H16       1.0  0.8576399999999997  0.7363199999999999  0.06117999999999999  1.0000
  H   H17       1.0  0.20825999999999995  0.49015999999999993  0.88704  1.0000
  H   H18       1.0  0.08358999999999997  0.50647  0.8217  1.0000
  H   H19       1.0  0.45187  0.64764  0.84206  1.0000
  H   H20       1.0  0.3319699999999999  0.63189  0.7743499999999998  1.0000
  H   H21       1.0  0.72903  0.89904  0.87247  1.0000
  H   H22       1.0  0.73543  0.7947  0.81267  1.0000
  H   H23       1.0  0.95349  0.934  0.75956  1.0000
  H   H24       1.0  0.014409999999999992  0.01935  0.82389  1.0000
  H   H25       1.0  0.60979  0.89405  0.4663699999999999  1.0000
  H   H26       1.0  0.75239  0.78163  0.46447  1.0000
  H   H27       1.0  0.49138000000000004  0.62074  0.4484499999999999  1.0000
  H   H28       1.0  0.35763999999999996  0.7363199999999999  0.43882  1.0000
  H   H29       1.0  0.7082699999999998  0.49015999999999993  0.61296  1.0000
  H   H30       1.0  0.58359  0.50647  0.6783  1.0000
  H   H31       1.0  0.9518699999999998  0.64764  0.6579499999999999  1.0000
  H   H32       1.0  0.83198  0.63189  0.7256499999999999  1.0000
  H   H33       1.0  0.22903  0.89904  0.62753  1.0000
  H   H34       1.0  0.23542999999999997  0.7947  0.6873399999999998  1.0000
  H   H35       1.0  0.4534899999999999  0.934  0.74044  1.0000
  H   H36       1.0  0.51442  0.01935  0.67611  1.0000
  H   H37       1.0  0.89021  0.10595  0.9663699999999997  1.0000
  H   H38       1.0  0.7476099999999998  0.21837  0.9644699999999999  1.0000
  H   H39       1.0  0.00863  0.37927  0.9484499999999998  1.0000
  H   H40       1.0  0.14235999999999996  0.26368  0.9388299999999998  1.0000
  H   H41       1.0  0.79174  0.50984  0.11296  1.0000
  H   H42       1.0  0.91641  0.49354  0.17829999999999996  1.0000
  H   H43       1.0  0.54814  0.35237  0.15795  1.0000
  H   H44       1.0  0.66803  0.36811  0.22565  1.0000
  H   H45       1.0  0.27097  0.10096999999999999  0.12753  1.0000
  H   H46       1.0  0.2645699999999999  0.2053  0.18734  1.0000
  H   H47       1.0  0.04651  0.06601  0.24043999999999996  1.0000
  H   H48       1.0  0.98559  0.9806499999999999  0.17610999999999996  1.0000
  C   C1        1.0  0.54132  0.17063  0.4347899999999999  1.0000
  C   C2        1.0  0.34146  0.32368  0.43860999999999994  1.0000
  C   C3        1.0  0.46643999999999997  0.27236  0.34296  1.0000
  C   C4        1.0  0.38095  0.20207  0.5267  1.0000
  C   C5        1.0  0.50952  0.28484  0.56601  1.0000
  C   C6        1.0  0.45696  0.2788  0.63107  1.0000
  C   C7        1.0  0.3119699999999999  0.44921  0.35041  1.0000
  C   C8        1.0  0.14179  0.41405999999999993  0.3157  1.0000
  C   C9        1.0  0.05738999999999998  0.52325  0.30026  1.0000
  C   C10       1.0  0.68643  0.13545  0.33976  1.0000
  C   C11       1.0  0.59825  0.03206  0.30053  1.0000
  C   C12       1.0  0.71642  0.94088  0.28497  1.0000
  C   C13       1.0  0.95868  0.8293699999999999  0.93479  1.0000
  C   C14       1.0  0.15853999999999996  0.67633  0.93861  1.0000
  C   C15       1.0  0.03355999999999995  0.7276399999999998  0.8429699999999998  1.0000
  C   C16       1.0  0.11904999999999996  0.79793  0.0267  1.0000
  C   C17       1.0  0.99049  0.71516  0.06601  1.0000
  C   C18       1.0  0.04304  0.7212  0.13107  1.0000
  C   C19       1.0  0.18803  0.55079  0.8504099999999999  1.0000
  C   C20       1.0  0.35821  0.58594  0.8156999999999998  1.0000
  C   C21       1.0  0.44260999999999995  0.47674999999999995  0.8002599999999997  1.0000
  C   C22       1.0  0.81358  0.86455  0.83976  1.0000
  C   C23       1.0  0.9017499999999998  0.96794  0.80053  1.0000
  C   C24       1.0  0.7835799999999999  0.059129999999999995  0.78497  1.0000
  C   C25       1.0  0.45867999999999987  0.8293699999999999  0.56521  1.0000
  C   C26       1.0  0.6585499999999997  0.67633  0.5614  1.0000
  C   C27       1.0  0.5335599999999999  0.7276399999999998  0.65704  1.0000
  C   C28       1.0  0.6190499999999998  0.79793  0.4733  1.0000
  C   C29       1.0  0.49049000000000004  0.71516  0.43399  1.0000
  C   C30       1.0  0.54305  0.7212  0.3689299999999999  1.0000
  C   C31       1.0  0.6880299999999998  0.55079  0.64959  1.0000
  C   C32       1.0  0.8582099999999999  0.58594  0.68431  1.0000
  C   C33       1.0  0.9426099999999998  0.47674999999999995  0.69975  1.0000
  C   C34       1.0  0.31358  0.86455  0.66024  1.0000
  C   C35       1.0  0.40175  0.96794  0.69947  1.0000
  C   C36       1.0  0.28358  0.059129999999999995  0.71504  1.0000
  C   C37       1.0  0.04132  0.17063  0.06521  1.0000
  C   C38       1.0  0.84146  0.32368  0.06139999999999999  1.0000
  C   C39       1.0  0.9664399999999997  0.27236  0.15704  1.0000
  C   C40       1.0  0.88095  0.20207  0.9733099999999998  1.0000
  C   C41       1.0  0.009509999999999985  0.28484  0.93399  1.0000
  C   C42       1.0  0.9569599999999998  0.2788  0.8689299999999998  1.0000
  C   C43       1.0  0.81197  0.44921  0.14959  1.0000
  C   C44       1.0  0.6418  0.41405999999999993  0.18431  1.0000
  C   C45       1.0  0.55739  0.52325  0.19974999999999998  1.0000
  C   C46       1.0  0.18642  0.13545  0.16024  1.0000
  C   C47       1.0  0.09825  0.03206  0.19947  1.0000
  C   C48       1.0  0.21642  0.94088  0.21503  1.0000
  N   N1        1.0  0.41577  0.22822  0.4631899999999999  1.0000
  N   N2        1.0  0.37546  0.34443  0.37812  1.0000
  N   N3        1.0  0.55968  0.19446  0.37374  1.0000
  N   N4        1.0  0.08422999999999996  0.7717799999999999  0.9631899999999998  1.0000
  N   N5        1.0  0.12453999999999994  0.65557  0.87812  1.0000
  N   N6        1.0  0.9403200000000002  0.80555  0.8737399999999997  1.0000
  N   N7        1.0  0.5842299999999998  0.7717799999999999  0.53681  1.0000
  N   N8        1.0  0.62454  0.65557  0.62188  1.0000
  N   N9        1.0  0.44032  0.80555  0.62627  1.0000
  N   N10       1.0  0.91577  0.22822  0.03681  1.0000
  N   N11       1.0  0.87546  0.34443  0.12187999999999999  1.0000
  N   N12       1.0  0.05968  0.19446  0.12627  1.0000
  O   O1        1.0  0.4688099999999999  0.27970999999999996  0.28851  1.0000
  O   O2        1.0  0.62598  0.10273  0.46113  1.0000
  O   O3        1.0  0.2519700000000001  0.3842  0.46759  1.0000
  O   O4        1.0  0.57496  0.26636  0.6694399999999999  1.0000
  O   O5        1.0  0.30014  0.28991  0.64343  1.0000
  O   O6        1.0  0.90618  0.533  0.31847  1.0000
  O   O7        1.0  0.13959  0.61021  0.26751  1.0000
  O   O8        1.0  0.66621  0.86014  0.24395999999999995  1.0000
  O   O9        1.0  0.8583899999999999  0.9379899999999999  0.31188999999999995  1.0000
  O   O10       1.0  0.031190000000000006  0.72029  0.78851  1.0000
  O   O11       1.0  0.87402  0.89727  0.96114  1.0000
  O   O12       1.0  0.24802999999999997  0.6158  0.9675999999999998  1.0000
  O   O13       1.0  0.9250399999999999  0.7336499999999999  0.16944  1.0000
  O   O14       1.0  0.19986  0.71009  0.14343  1.0000
  O   O15       1.0  0.5938199999999998  0.467  0.8184699999999999  1.0000
  O   O16       1.0  0.36041000000000006  0.3898  0.7675199999999999  1.0000
  O   O17       1.0  0.83379  0.13986  0.7439599999999998  1.0000
  O   O18       1.0  0.64161  0.06201  0.81189  1.0000
  O   O19       1.0  0.53119  0.72029  0.7114999999999999  1.0000
  O   O20       1.0  0.3740199999999999  0.89727  0.53887  1.0000
  O   O21       1.0  0.7480299999999998  0.6158  0.53241  1.0000
  O   O22       1.0  0.42504  0.7336499999999999  0.33056  1.0000
  O   O23       1.0  0.69986  0.71009  0.35657  1.0000
  O   O24       1.0  0.09382  0.467  0.6815299999999999  1.0000
  O   O25       1.0  0.86042  0.3898  0.73249  1.0000
  O   O26       1.0  0.33379  0.13986  0.7560399999999998  1.0000
  O   O27       1.0  0.14161  0.06201  0.6881099999999999  1.0000
  O   O28       1.0  0.96881  0.27970999999999996  0.21149999999999997  1.0000
  O   O29       1.0  0.12598000000000004  0.10273  0.038869999999999995  1.0000
  O   O30       1.0  0.75197  0.3842  0.03241  1.0000
  O   O31       1.0  0.07496  0.26636  0.83057  1.0000
  O   O32       1.0  0.80014  0.28991  0.8565699999999999  1.0000
  O   O33       1.0  0.4061799999999999  0.533  0.18152999999999994  1.0000
  O   O34       1.0  0.63959  0.61021  0.23249  1.0000
  O   O35       1.0  0.16621  0.86014  0.25604  1.0000
  O   O36       1.0  0.35839  0.9379899999999999  0.18811  1.0000
