data_image0
_chemical_formula_structural       Cu12P12H36C36O36
_chemical_formula_sum              "Cu12 P12 H36 C36 O36"
_cell_length_a       4.6746
_cell_length_b       17.83223
_cell_length_c       19.37074
_cell_angle_alpha    90.04969
_cell_angle_beta     90.03696
_cell_angle_gamma    93.20031999999999

_space_group_name_H-M_alt    "P 1"
_space_group_IT_number       1

loop_
  _space_group_symop_operation_xyz
  'x, y, z'

loop_
  _atom_site_type_symbol
  _atom_site_label
  _atom_site_symmetry_multiplicity
  _atom_site_fract_x
  _atom_site_fract_y
  _atom_site_fract_z
  _atom_site_occupancy
  Cu  Cu1       1.0  0.96965  0.77271  0.28256  1.0000
  Cu  Cu2       1.0  0.41057  0.747  0.15139  1.0000
  Cu  Cu3       1.0  0.9362000000000001  0.72558  0.02542  1.0000
  Cu  Cu4       1.0  0.53218  0.7259  0.7843  1.0000
  Cu  Cu5       1.0  0.09047000000000002  0.75291  0.65245  1.0000
  Cu  Cu6       1.0  0.56263  0.77424  0.52562  1.0000
  Cu  Cu7       1.0  0.030340000000000002  0.22729000000000002  0.71744  1.0000
  Cu  Cu8       1.0  0.58943  0.25299  0.84861  1.0000
  Cu  Cu9       1.0  0.06379  0.27441  0.97459  1.0000
  Cu  Cu10      1.0  0.46781  0.27410000000000007  0.21571  1.0000
  Cu  Cu11      1.0  0.9095300000000001  0.24708  0.34755  1.0000
  Cu  Cu12      1.0  0.4373600000000001  0.22575000000000003  0.47439000000000003  1.0000
  P   P1        1.0  0.9059299999999999  0.64341  0.16483  1.0000
  P   P2        1.0  0.02639  0.72876  0.43966999999999995  1.0000
  P   P3        1.0  0.4095  0.34956  0.35287  1.0000
  P   P4        1.0  0.59099  0.85527  0.66659  1.0000
  P   P5        1.0  0.47218000000000004  0.77271  0.9408  1.0000
  P   P6        1.0  0.08918  0.1505  0.85302  1.0000
  P   P7        1.0  0.09406  0.35658  0.83517  1.0000
  P   P8        1.0  0.9736000000000001  0.27124  0.56033  1.0000
  P   P9        1.0  0.59049  0.65044  0.64714  1.0000
  P   P10       1.0  0.40900000000000003  0.14472  0.33342  1.0000
  P   P11       1.0  0.52782  0.22729000000000002  0.05920000000000001  1.0000
  P   P12       1.0  0.91081  0.8495  0.14698  1.0000
  H   H1        1.0  0.24624000000000001  0.62089  0.31155  1.0000
  H   H2        1.0  0.64653  0.53501  0.46349  1.0000
  H   H3        1.0  0.52611  0.47578000000000004  0.24940999999999997  1.0000
  H   H4        1.0  0.91364  0.5102  0.16689  1.0000
  H   H5        1.0  0.23868  0.5568  0.1999  1.0000
  H   H6        1.0  0.35797  0.62819  0.43543  1.0000
  H   H7        1.0  0.07615  0.614  0.49872  1.0000
  H   H8        1.0  0.10028  0.45041  0.36236  1.0000
  H   H9        1.0  0.30903  0.43963  0.43718000000000007  1.0000
  H   H10       1.0  0.2513  0.8793600000000001  0.81165  1.0000
  H   H11       1.0  0.85016  0.96605  0.96372  1.0000
  H   H12       1.0  0.97263  0.02383  0.74954  1.0000
  H   H13       1.0  0.58744  0.98852  0.66661  1.0000
  H   H14       1.0  0.2603  0.9430700000000001  0.69961  1.0000
  H   H15       1.0  0.13771  0.87301  0.9352900000000001  1.0000
  H   H16       1.0  0.41765000000000013  0.88798  0.99891  1.0000
  H   H17       1.0  0.39832  0.04955  0.8626899999999998  1.0000
  H   H18       1.0  0.18969  0.060660000000000006  0.93737  1.0000
  H   H19       1.0  0.75375  0.37911  0.68845  1.0000
  H   H20       1.0  0.35346  0.46499  0.53652  1.0000
  H   H21       1.0  0.47389  0.52421  0.75059  1.0000
  H   H22       1.0  0.08635000000000001  0.48978999999999995  0.8331099999999999  1.0000
  H   H23       1.0  0.76132  0.4431900000000001  0.80011  1.0000
  H   H24       1.0  0.64202  0.3718000000000001  0.56457  1.0000
  H   H25       1.0  0.9238399999999999  0.386  0.50128  1.0000
  H   H26       1.0  0.8997199999999999  0.54959  0.63764  1.0000
  H   H27       1.0  0.69097  0.56037  0.56282  1.0000
  H   H28       1.0  0.74869  0.12063  0.18836  1.0000
  H   H29       1.0  0.14984  0.03395  0.03628  1.0000
  H   H30       1.0  0.027360000000000002  0.9761600000000001  0.25046  1.0000
  H   H31       1.0  0.41256  0.01147  0.3334  1.0000
  H   H32       1.0  0.7396900000000001  0.056920000000000005  0.3004  1.0000
  H   H33       1.0  0.8622800000000002  0.12699  0.06472  1.0000
  H   H34       1.0  0.58234  0.11201000000000001  0.00109  1.0000
  H   H35       1.0  0.60167  0.9504499999999999  0.13732  1.0000
  H   H36       1.0  0.8103  0.93933  0.06263  1.0000
  C   C1        1.0  0.89557  0.54845  0.27335  1.0000
  C   C2        1.0  0.05397999999999997  0.587  0.32493  1.0000
  C   C3        1.0  0.95582  0.58558  0.39333  1.0000
  C   C4        1.0  0.70944  0.54133  0.40965  1.0000
  C   C5        1.0  0.54627  0.5012000000000001  0.3586  1.0000
  C   C6        1.0  0.64451  0.50677  0.28976  1.0000
  C   C7        1.0  0.0028000000000000173  0.55505  0.20082  1.0000
  C   C8        1.0  0.12475  0.63086  0.44526  1.0000
  C   C9        1.0  0.32038  0.4422  0.38072  1.0000
  C   C10       1.0  0.60214  0.9517299999999999  0.77359  1.0000
  C   C11       1.0  0.44314999999999993  0.9134199999999999  0.82512  1.0000
  C   C12       1.0  0.5407  0.9152600000000001  0.8935700000000001  1.0000
  C   C13       1.0  0.78743  0.95948  0.90988  1.0000
  C   C14       1.0  0.9517800000000001  0.9990700000000001  0.85883  1.0000
  C   C15       1.0  0.8536600000000001  0.99325  0.78996  1.0000
  C   C16       1.0  0.4960300000000001  0.9444900000000002  0.701  1.0000
  C   C17       1.0  0.37063  0.87046  0.94552  1.0000
  C   C18       1.0  0.17829  0.05795  0.88092  1.0000
  C   C19       1.0  0.10443  0.45155  0.72665  1.0000
  C   C20       1.0  0.9460100000000001  0.4129900000000001  0.67507  1.0000
  C   C21       1.0  0.04418  0.41441  0.60668  1.0000
  C   C22       1.0  0.29055  0.4586700000000001  0.59036  1.0000
  C   C23       1.0  0.45372000000000007  0.4988  0.6414  1.0000
  C   C24       1.0  0.3554800000000001  0.49323000000000006  0.71025  1.0000
  C   C25       1.0  0.9972000000000001  0.44494  0.79919  1.0000
  C   C26       1.0  0.87524  0.36914  0.55475  1.0000
  C   C27       1.0  0.67962  0.5578  0.61929  1.0000
  C   C28       1.0  0.39786  0.04827  0.22640999999999997  1.0000
  C   C29       1.0  0.55685  0.08657  0.17488  1.0000
  C   C30       1.0  0.45929000000000003  0.08473000000000003  0.10643999999999999  1.0000
  C   C31       1.0  0.21257  0.04052  0.09012  1.0000
  C   C32       1.0  0.04821  0.0009300000000000002  0.14118  1.0000
  C   C33       1.0  0.14633  0.00675  0.21005  1.0000
  C   C34       1.0  0.50396  0.055510000000000004  0.299  1.0000
  C   C35       1.0  0.62937  0.12953  0.05448  1.0000
  C   C36       1.0  0.8217  0.94204  0.11909  1.0000
  O   O1        1.0  0.08438  0.70815  0.20855  1.0000
  O   O2        1.0  0.58594  0.65106  0.17656  1.0000
  O   O3        1.0  0.014240000000000017  0.64771  0.09025  1.0000
  O   O4        1.0  0.12823  0.7613  0.36848  1.0000
  O   O5        1.0  0.69399  0.72324  0.4445  1.0000
  O   O6        1.0  0.15543000000000007  0.7760400000000002  0.49989  1.0000
  O   O7        1.0  0.2972  0.34049  0.2772  1.0000
  O   O8        1.0  0.24373000000000003  0.28813  0.39995  1.0000
  O   O9        1.0  0.7335500000000001  0.34456  0.36132  1.0000
  O   O10       1.0  0.41461  0.79173  0.71178  1.0000
  O   O11       1.0  0.9124100000000002  0.84856  0.67681  1.0000
  O   O12       1.0  0.4733200000000001  0.84882  0.5928  1.0000
  O   O13       1.0  0.37229  0.73883  0.8699399999999999  1.0000
  O   O14       1.0  0.80431  0.77997  0.94641  1.0000
  O   O15       1.0  0.34424  0.72486  0.00068  1.0000
  O   O16       1.0  0.20158  0.15952  0.77742  1.0000
  O   O17       1.0  0.25503  0.21199000000000007  0.9001500000000001  1.0000
  O   O18       1.0  0.76504  0.15539  0.86147  1.0000
  O   O19       1.0  0.91561  0.29185000000000005  0.79145  1.0000
  O   O20       1.0  0.41405  0.34893  0.82344  1.0000
  O   O21       1.0  0.98576  0.35229  0.9097499999999998  1.0000
  O   O22       1.0  0.87177  0.23869  0.63152  1.0000
  O   O23       1.0  0.306  0.27676  0.55551  1.0000
  O   O24       1.0  0.8445700000000002  0.22396000000000005  0.50011  1.0000
  O   O25       1.0  0.70279  0.6595  0.7228  1.0000
  O   O26       1.0  0.75626  0.71187  0.60006  1.0000
  O   O27       1.0  0.26644  0.65544  0.63868  1.0000
  O   O28       1.0  0.58538  0.20826  0.28822  1.0000
  O   O29       1.0  0.08759  0.15144  0.3232  1.0000
  O   O30       1.0  0.52668  0.15117  0.40721  1.0000
  O   O31       1.0  0.62771  0.26116  0.13006  1.0000
  O   O32       1.0  0.19568  0.22003000000000003  0.05360000000000001  1.0000
  O   O33       1.0  0.65576  0.27514  0.99932  1.0000
  O   O34       1.0  0.79842  0.84048  0.22258  1.0000
  O   O35       1.0  0.74496  0.78801  0.09985  1.0000
  O   O36       1.0  0.23495000000000002  0.8446  0.13854  1.0000
