data_image0
_chemical_formula_structural       Cu4H48C80N4O16
_chemical_formula_sum              "Cu4 H48 C80 N4 O16"
_cell_length_a       17.44972
_cell_length_b       23.070659999999997
_cell_length_c       23.07078
_cell_angle_alpha    60.612100000000005
_cell_angle_beta     67.78033
_cell_angle_gamma    67.77971

_symmetry_space_group_name_H-M    'P 1'
_symmetry_Int_Tables_number       1

loop_
  _symmetry_equiv_pos_as_xyz
  'x,y,z'

loop_
  _atom_site_type_symbol
  _atom_site_label
  _atom_site_symmetry_multiplicity
  _atom_site_fract_x
  _atom_site_fract_y
  _atom_site_fract_z
  _atom_site_occupancy
  Cu  Cu1       1.0  0.47802000000000017  0.9748699999999998  0.97487  1.0000
  Cu  Cu2       1.0  0.9280000000000002  0.5251299999999999  0.52513  1.0000
  Cu  Cu3       1.0  0.07201  0.47487  0.47486999999999996  1.0000
  Cu  Cu4       1.0  0.52198  0.025130000000000003  0.02513  1.0000
  H   H1        1.0  0.7255600000000001  0.8634199999999999  0.11133  1.0000
  H   H2        1.0  0.8339900000000003  0.75548  0.15345  1.0000
  H   H3        1.0  0.7481900000000001  0.6622899999999999  0.0742  1.0000
  H   H4        1.0  0.6405800000000001  0.7708699999999998  0.03161  1.0000
  H   H5        1.0  0.93452  0.68507  0.00602  1.0000
  H   H6        1.0  0.0032900000000000876  0.6169899999999999  0.9371300000000001  1.0000
  H   H7        1.0  0.20040000000000005  0.63659  0.38868  1.0000
  H   H8        1.0  0.24306999999999995  0.7447200000000002  0.34637  1.0000
  H   H9        1.0  0.98496  0.83793  0.42552  1.0000
  H   H10       1.0  0.9432799999999999  0.72916  0.46832999999999997  1.0000
  H   H11       1.0  0.12581000000000014  0.8150799999999999  0.49381  1.0000
  H   H12       1.0  0.05732999999999997  0.8831  0.56277  1.0000
  H   H13       1.0  0.7996000000000002  0.61132  0.36341  1.0000
  H   H14       1.0  0.7569299999999999  0.65363  0.25528  1.0000
  H   H15       1.0  0.015040000000000038  0.57448  0.16207  1.0000
  H   H16       1.0  0.05672999999999997  0.53167  0.27084  1.0000
  H   H17       1.0  0.87419  0.5061899999999999  0.18492  1.0000
  H   H18       1.0  0.9426700000000002  0.43722999999999973  0.1169  1.0000
  H   H19       1.0  0.27443999999999996  0.88867  0.13658  1.0000
  H   H20       1.0  0.16600000000000012  0.8465499999999998  0.24452  1.0000
  H   H21       1.0  0.25181  0.92581  0.33771  1.0000
  H   H22       1.0  0.3594200000000002  0.9684  0.22913  1.0000
  H   H23       1.0  0.06548  0.99398  0.31493  1.0000
  H   H24       1.0  0.9967200000000002  0.06286999999999998  0.38301  1.0000
  H   H25       1.0  0.27444999999999997  0.13658000000000003  0.88867  1.0000
  H   H26       1.0  0.16601  0.24452000000000004  0.8465499999999999  1.0000
  H   H27       1.0  0.25182000000000004  0.33772  0.9258  1.0000
  H   H28       1.0  0.3594200000000001  0.22913000000000003  0.9683899999999999  1.0000
  H   H29       1.0  0.06548000000000005  0.31494  0.99397  1.0000
  H   H30       1.0  0.9967200000000002  0.38301  0.06287  1.0000
  H   H31       1.0  0.7996000000000001  0.36342  0.61132  1.0000
  H   H32       1.0  0.7569300000000003  0.25528000000000006  0.65362  1.0000
  H   H33       1.0  0.01504  0.16208000000000003  0.57448  1.0000
  H   H34       1.0  0.056729999999999996  0.27084  0.53167  1.0000
  H   H35       1.0  0.8742  0.18492  0.50618  1.0000
  H   H36       1.0  0.94267  0.11690999999999999  0.43723  1.0000
  H   H37       1.0  0.20040999999999998  0.38868  0.63658  1.0000
  H   H38       1.0  0.24308000000000005  0.34636999999999996  0.74472  1.0000
  H   H39       1.0  0.9849700000000001  0.42552  0.83792  1.0000
  H   H40       1.0  0.9432799999999998  0.4683300000000001  0.72916  1.0000
  H   H41       1.0  0.12581  0.49382000000000004  0.81508  1.0000
  H   H42       1.0  0.057330000000000124  0.56278  0.8830899999999999  1.0000
  H   H43       1.0  0.7255700000000002  0.11132999999999998  0.86341  1.0000
  H   H44       1.0  0.834  0.15344999999999998  0.75548  1.0000
  H   H45       1.0  0.7481899999999999  0.0742  0.66229  1.0000
  H   H46       1.0  0.64059  0.03161000000000002  0.77087  1.0000
  H   H47       1.0  0.93453  0.006030000000000003  0.68506  1.0000
  H   H48       1.0  0.003280000000000103  0.9371299999999999  0.61699  1.0000
  C   C1        1.0  0.7305200000000002  0.8190899999999999  0.10373  1.0000
  C   C2        1.0  0.7912100000000001  0.75878  0.12725  1.0000
  C   C3        1.0  0.79821  0.7016  0.11672999999999999  1.0000
  C   C4        1.0  0.74339  0.70651  0.0819  1.0000
  C   C5        1.0  0.68329  0.7671699999999999  0.05809  1.0000
  C   C6        1.0  0.67583  0.82419  0.06882  1.0000
  C   C7        1.0  0.61114  0.88878  0.04381  1.0000
  C   C8        1.0  0.9363299999999999  0.6306699999999998  0.029849999999999998  1.0000
  C   C9        1.0  0.97502  0.5915499999999999  0.99123  1.0000
  C   C10       1.0  0.1535400000000001  0.6810099999999999  0.39615  1.0000
  C   C11       1.0  0.17741000000000004  0.7413699999999999  0.37256  1.0000
  C   C12       1.0  0.11673000000000006  0.79856  0.38307  1.0000
  C   C13       1.0  0.032000000000000056  0.79364  0.4178799999999999  1.0000
  C   C14       1.0  0.008749999999999982  0.73294  0.44178000000000006  1.0000
  C   C15       1.0  0.06906999999999999  0.6758900000000001  0.43112  1.0000
  C   C16       1.0  0.04406000000000009  0.6112099999999998  0.45622000000000007  1.0000
  C   C17       1.0  0.0970799999999999  0.86947  0.46999  1.0000
  C   C18       1.0  0.05791999999999999  0.90856  0.50863  1.0000
  C   C19       1.0  0.84646  0.60385  0.31899  1.0000
  C   C20       1.0  0.8225900000000004  0.62744  0.25863  1.0000
  C   C21       1.0  0.8832700000000001  0.6169299999999999  0.20144  1.0000
  C   C22       1.0  0.9680000000000001  0.5821199999999999  0.20635999999999996  1.0000
  C   C23       1.0  0.9912499999999999  0.55821  0.26706  1.0000
  C   C24       1.0  0.93093  0.5688799999999998  0.32411  1.0000
  C   C25       1.0  0.9559400000000002  0.5437799999999999  0.38879  1.0000
  C   C26       1.0  0.90292  0.53001  0.13053  1.0000
  C   C27       1.0  0.9420800000000001  0.49137  0.09144  1.0000
  C   C28       1.0  0.26948  0.8962699999999999  0.18091  1.0000
  C   C29       1.0  0.20879  0.87275  0.24122  1.0000
  C   C30       1.0  0.20179000000000002  0.88327  0.29839  1.0000
  C   C31       1.0  0.2566100000000001  0.9180999999999998  0.29349  1.0000
  C   C32       1.0  0.3167  0.9419099999999999  0.23282999999999998  1.0000
  C   C33       1.0  0.32417  0.93118  0.17581  1.0000
  C   C34       1.0  0.3888499999999999  0.95619  0.11122  1.0000
  C   C35       1.0  0.0636700000000001  0.9701599999999998  0.36932  1.0000
  C   C36       1.0  0.024989999999999988  0.008760000000000009  0.40845  1.0000
  C   C37       1.0  0.26949  0.18091000000000007  0.8962599999999998  1.0000
  C   C38       1.0  0.20880000000000004  0.24123000000000008  0.8727399999999998  1.0000
  C   C39       1.0  0.20180000000000006  0.2984  0.88327  1.0000
  C   C40       1.0  0.2566100000000002  0.29348999999999986  0.9180999999999999  1.0000
  C   C41       1.0  0.3167100000000001  0.23283000000000004  0.9419  1.0000
  C   C42       1.0  0.32417  0.17581000000000002  0.9311799999999999  1.0000
  C   C43       1.0  0.3888600000000001  0.11121999999999996  0.95619  1.0000
  C   C44       1.0  0.06367999999999999  0.36933000000000005  0.97015  1.0000
  C   C45       1.0  0.024990000000000002  0.40845  0.00876  1.0000
  C   C46       1.0  0.8464600000000003  0.3189899999999999  0.60385  1.0000
  C   C47       1.0  0.8225900000000003  0.25862999999999997  0.62744  1.0000
  C   C48       1.0  0.8832700000000003  0.20144000000000004  0.61692  1.0000
  C   C49       1.0  0.9680000000000001  0.20635999999999993  0.58212  1.0000
  C   C50       1.0  0.9912499999999999  0.26705999999999996  0.55821  1.0000
  C   C51       1.0  0.93093  0.32411999999999996  0.56887  1.0000
  C   C52       1.0  0.95594  0.3887900000000001  0.54378  1.0000
  C   C53       1.0  0.9029200000000001  0.13053  0.53  1.0000
  C   C54       1.0  0.9420899999999999  0.09144999999999999  0.49136  1.0000
  C   C55       1.0  0.15355  0.39614999999999995  0.68101  1.0000
  C   C56       1.0  0.17741  0.37256  0.74137  1.0000
  C   C57       1.0  0.11674000000000001  0.3830799999999999  0.79856  1.0000
  C   C58       1.0  0.03200000000000001  0.41788  0.79364  1.0000
  C   C59       1.0  0.008749999999999982  0.44179  0.73294  1.0000
  C   C60       1.0  0.06908000000000004  0.43112999999999996  0.67588  1.0000
  C   C61       1.0  0.044059999999999995  0.4562199999999999  0.61121  1.0000
  C   C62       1.0  0.09708  0.4699999999999999  0.86947  1.0000
  C   C63       1.0  0.057920000000000194  0.5086399999999999  0.9085499999999999  1.0000
  C   C64       1.0  0.7305200000000003  0.10373  0.81909  1.0000
  C   C65       1.0  0.7912100000000001  0.12725000000000006  0.75877  1.0000
  C   C66       1.0  0.79821  0.11672999999999997  0.7016  1.0000
  C   C67       1.0  0.7433999999999997  0.08190000000000001  0.70651  1.0000
  C   C68       1.0  0.6833000000000001  0.05809999999999999  0.76717  1.0000
  C   C69       1.0  0.6758400000000001  0.06881999999999992  0.8241900000000001  1.0000
  C   C70       1.0  0.61115  0.04380999999999993  0.8887800000000001  1.0000
  C   C71       1.0  0.93634  0.029850000000000012  0.63067  1.0000
  C   C72       1.0  0.9750100000000002  0.9912399999999999  0.59155  1.0000
  C   C73       1.0  0.89971  0.60024  0.10008  1.0000
  C   C74       1.0  0.97927  0.5207399999999999  0.02066  1.0000
  C   C75       1.0  0.10029  0.89992  0.39976  1.0000
  C   C76       1.0  0.02073000000000004  0.9793399999999998  0.47926  1.0000
  C   C77       1.0  0.10028999999999996  0.3997599999999999  0.8999200000000002  1.0000
  C   C78       1.0  0.020729999999999988  0.47926  0.97934  1.0000
  C   C79       1.0  0.89972  0.10008000000000003  0.60024  1.0000
  C   C80       1.0  0.9792799999999999  0.020660000000000026  0.52074  1.0000
  N   N1        1.0  0.85994  0.6400299999999999  0.13987  1.0000
  N   N2        1.0  0.14006000000000007  0.8601299999999997  0.35997  1.0000
  N   N3        1.0  0.14006  0.35997  0.86013  1.0000
  N   N4        1.0  0.85995  0.13987000000000002  0.64003  1.0000
  O   O1        1.0  0.5650300000000003  0.8906199999999999  0.01052  1.0000
  O   O2        1.0  0.60619  0.9379799999999999  0.05742  1.0000
  O   O3        1.0  0.96653  0.6093399999999999  0.48962  1.0000
  O   O4        1.0  0.10186000000000002  0.5619899999999999  0.44258000000000003  1.0000
  O   O5        1.0  0.03346999999999996  0.51038  0.39066  1.0000
  O   O6        1.0  0.8981399999999999  0.55742  0.43800999999999995  1.0000
  O   O7        1.0  0.43496000000000007  0.9894799999999998  0.10938  1.0000
  O   O8        1.0  0.39381  0.94258  0.06202  1.0000
  O   O9        1.0  0.4349700000000001  0.10937999999999999  0.98948  1.0000
  O   O10       1.0  0.3938199999999999  0.06203000000000002  0.9425700000000001  1.0000
  O   O11       1.0  0.03346999999999991  0.3906600000000001  0.51038  1.0000
  O   O12       1.0  0.8981400000000002  0.43801  0.55742  1.0000
  O   O13       1.0  0.96653  0.4896200000000001  0.60934  1.0000
  O   O14       1.0  0.10186000000000002  0.4425799999999999  0.56199  1.0000
  O   O15       1.0  0.5650399999999999  0.010519999999999953  0.8906200000000001  1.0000
  O   O16       1.0  0.6062000000000001  0.05743000000000006  0.93797  1.0000
