data_image0
_chemical_formula_structural       Cd2Ni2H88C44N16
_chemical_formula_sum              "Cd2 Ni2 H88 C44 N16"
_cell_length_a       8.90361
_cell_length_b       11.29136
_cell_length_c       15.15946
_cell_angle_alpha    81.4877
_cell_angle_beta     94.85327000000001
_cell_angle_gamma    110.83767000000002

_symmetry_space_group_name_H-M    'P 1'
_symmetry_Int_Tables_number       1

loop_
  _symmetry_equiv_pos_as_xyz
  'x,y,z'

loop_
  _atom_site_type_symbol
  _atom_site_label
  _atom_site_symmetry_multiplicity
  _atom_site_fract_x
  _atom_site_fract_y
  _atom_site_fract_z
  _atom_site_occupancy
  Cd  Cd1       1.0  0.00011000000000002163  3.000000000000446e-05  0.99999  1.0000
  Cd  Cd2       1.0  0.9999200000000001  0.9999899999999999  0.49982  1.0000
  Ni  Ni1       1.0  0.3679400000000001  0.93809  0.76911  1.0000
  Ni  Ni2       1.0  0.6323200000000001  0.06245999999999999  0.23091  1.0000
  H   H1        1.0  0.91712  0.7500500000000001  0.10881  1.0000
  H   H2        1.0  0.11155000000000001  0.8259699999999999  0.12418  1.0000
  H   H3        1.0  0.1713399999999999  0.78546  0.98469  1.0000
  H   H4        1.0  0.09698000000000004  0.64743  0.0618  1.0000
  H   H5        1.0  0.8811599999999999  0.7401399999999999  0.9221  1.0000
  H   H6        1.0  0.82884  0.58947  0.98736  1.0000
  H   H7        1.0  0.07806000000000013  0.6949700000000001  0.84134  1.0000
  H   H8        1.0  0.04855999999999995  0.5492299999999999  0.90898  1.0000
  H   H9        1.0  0.75649  0.46980999999999995  0.85288  1.0000
  H   H10       1.0  0.79208  0.61432  0.78272  1.0000
  H   H11       1.0  0.00017000000000002798  0.56768  0.70372  1.0000
  H   H12       1.0  0.9725100000000001  0.42871  0.77836  1.0000
  H   H13       1.0  0.71756  0.47591999999999995  0.64261  1.0000
  H   H14       1.0  0.67891  0.34408  0.72629  1.0000
  H   H15       1.0  0.89554  0.28564  0.66939  1.0000
  H   H16       1.0  0.92501  0.40907  0.58049  1.0000
  H   H17       1.0  0.60625  0.18505000000000002  0.61418  1.0000
  H   H18       1.0  0.64123  0.30736  0.52331  1.0000
  H   H19       1.0  0.66771  0.12033999999999999  0.47221  1.0000
  H   H20       1.0  0.85726  0.2424  0.47177  1.0000
  H   H21       1.0  0.9023699999999999  0.12923  0.62183  1.0000
  H   H22       1.0  0.74059  0.0101  0.60159  1.0000
  H   H23       1.0  0.06904999999999997  0.24975999999999995  0.38168  1.0000
  H   H24       1.0  0.19512000000000002  0.18011999999999997  0.3622300000000001  1.0000
  H   H25       1.0  0.34683  0.23248999999999997  0.49601  1.0000
  H   H26       1.0  0.35364  0.36787999999999993  0.41921  1.0000
  H   H27       1.0  0.11689  0.25984  0.57024  1.0000
  H   H28       1.0  0.1557  0.40885  0.50368  1.0000
  H   H29       1.0  0.39778  0.3293  0.63304  1.0000
  H   H30       1.0  0.4398500000000001  0.48007  0.56961  1.0000
  H   H31       1.0  0.22741  0.51839  0.64974  1.0000
  H   H32       1.0  0.18457999999999994  0.3672899999999999  0.71226  1.0000
  H   H33       1.0  0.4691600000000001  0.43423  0.77653  1.0000
  H   H34       1.0  0.51264  0.58423  0.71175  1.0000
  H   H35       1.0  0.26733  0.48307  0.85987  1.0000
  H   H36       1.0  0.30395999999999995  0.6278999999999999  0.78966  1.0000
  H   H37       1.0  0.59939  0.69074  0.83988  1.0000
  H   H38       1.0  0.54864  0.55724  0.92197  1.0000
  H   H39       1.0  0.4027799999999999  0.7692399999999998  0.90639  1.0000
  H   H40       1.0  0.37058  0.64185  0.99326  1.0000
  H   H41       1.0  0.56717  0.8271  0.04934  1.0000
  H   H42       1.0  0.66967  0.7244199999999998  0.03363  1.0000
  H   H43       1.0  0.74031  0.86358  0.88499  1.0000
  H   H44       1.0  0.67547  0.96313  0.92248  1.0000
  H   H45       1.0  0.08328999999999999  0.24979  0.89142  1.0000
  H   H46       1.0  0.8887799999999999  0.17397999999999997  0.87584  1.0000
  H   H47       1.0  0.82878  0.21439999999999998  0.01532  1.0000
  H   H48       1.0  0.90292  0.3523399999999999  0.93813  1.0000
  H   H49       1.0  0.11901999999999999  0.2597999999999999  0.07766  1.0000
  H   H50       1.0  0.17115999999999998  0.41050999999999993  0.01243  1.0000
  H   H51       1.0  0.92214  0.30486  0.15855  1.0000
  H   H52       1.0  0.95148  0.45059  0.09092  1.0000
  H   H53       1.0  0.24359000000000003  0.53013  0.147  1.0000
  H   H54       1.0  0.20803  0.38565  0.21719  1.0000
  H   H55       1.0  0.99988  0.43228999999999995  0.29616  1.0000
  H   H56       1.0  0.027510000000000034  0.57121  0.22148  1.0000
  H   H57       1.0  0.28255  0.52405  0.35719  1.0000
  H   H58       1.0  0.32117  0.65584  0.27346  1.0000
  H   H59       1.0  0.10470999999999984  0.7144199999999998  0.33045  1.0000
  H   H60       1.0  0.07526999999999998  0.5910099999999999  0.41935  1.0000
  H   H61       1.0  0.39406  0.81498  0.38559  1.0000
  H   H62       1.0  0.35912  0.69266  0.47646  1.0000
  H   H63       1.0  0.33285  0.87977  0.52757  1.0000
  H   H64       1.0  0.14335  0.7576400000000001  0.52816  1.0000
  H   H65       1.0  0.09819999999999994  0.8707499999999999  0.37798  1.0000
  H   H66       1.0  0.2596099999999999  0.99005  0.39841  1.0000
  H   H67       1.0  0.93174  0.7504300000000002  0.61797  1.0000
  H   H68       1.0  0.80565  0.8198799999999999  0.63774  1.0000
  H   H69       1.0  0.65372  0.76775  0.5039  1.0000
  H   H70       1.0  0.64674  0.6323  0.58071  1.0000
  H   H71       1.0  0.88345  0.74018  0.42968  1.0000
  H   H72       1.0  0.8444899999999999  0.59114  0.49622  1.0000
  H   H73       1.0  0.60253  0.67086  0.36689  1.0000
  H   H74       1.0  0.5604  0.52005  0.4303  1.0000
  H   H75       1.0  0.77279  0.48173  0.35009  1.0000
  H   H76       1.0  0.8155600000000002  0.63284  0.28758  1.0000
  H   H77       1.0  0.53095  0.56583  0.22335  1.0000
  H   H78       1.0  0.48753  0.4158499999999999  0.28815  1.0000
  H   H79       1.0  0.7328000000000002  0.51705  0.14001000000000002  1.0000
  H   H80       1.0  0.69632  0.37226  0.21027  1.0000
  H   H81       1.0  0.40094  0.30917  0.16008  1.0000
  H   H82       1.0  0.45139  0.44269  0.07801  1.0000
  H   H83       1.0  0.5975799999999999  0.23087999999999997  0.09346  1.0000
  H   H84       1.0  0.62981  0.35838  0.00667  1.0000
  H   H85       1.0  0.43317999999999995  0.17286999999999997  0.9506  1.0000
  H   H86       1.0  0.3309099999999999  0.27580999999999994  0.96611  1.0000
  H   H87       1.0  0.26098  0.13685  0.11514  1.0000
  H   H88       1.0  0.32456  0.03696  0.0772  1.0000
  C   C1        1.0  0.06341000000000001  0.72282  0.01985  1.0000
  C   C2        1.0  0.9289900000000001  0.66595  0.95275  1.0000
  C   C3        1.0  0.9863999999999999  0.61478  0.87907  1.0000
  C   C4        1.0  0.8507600000000001  0.5474200000000001  0.81493  1.0000
  C   C5        1.0  0.9088600000000001  0.49113  0.74433  1.0000
  C   C6        1.0  0.77355  0.4134799999999999  0.68413  1.0000
  C   C7        1.0  0.83293  0.34114999999999995  0.62521  1.0000
  C   C8        1.0  0.7002100000000002  0.25163  0.57006  1.0000
  C   C9        1.0  0.76339  0.17582  0.51583  1.0000
  C   C10       1.0  0.20453  0.94718  0.83805  1.0000
  C   C11       1.0  0.54174  0.07666999999999999  0.80974  1.0000
  C   C12       1.0  0.27455  0.2888  0.46403  1.0000
  C   C13       1.0  0.21183999999999995  0.3398299999999999  0.53523  1.0000
  C   C14       1.0  0.3431  0.40013  0.60374  1.0000
  C   C15       1.0  0.28216  0.44734  0.67861  1.0000
  C   C16       1.0  0.41561  0.50567  0.74692  1.0000
  C   C17       1.0  0.36115  0.55941  0.82071  1.0000
  C   C18       1.0  0.50145  0.6271799999999997  0.8826  1.0000
  C   C19       1.0  0.46040000000000003  0.70522  0.94543  1.0000
  C   C20       1.0  0.60646  0.78613  0.99824  1.0000
  C   C21       1.0  0.28285  0.01421  0.66665  1.0000
  C   C22       1.0  0.50356  0.87133  0.7169  1.0000
  C   C23       1.0  0.93665  0.27706  0.98012  1.0000
  C   C24       1.0  0.07113000000000003  0.33401  0.04713  1.0000
  C   C25       1.0  0.013739999999999987  0.38510999999999995  0.12084  1.0000
  C   C26       1.0  0.14932999999999996  0.4525199999999999  0.18496  1.0000
  C   C27       1.0  0.09119000000000005  0.50882  0.25553  1.0000
  C   C28       1.0  0.22657  0.5865  0.31568  1.0000
  C   C29       1.0  0.16732000000000005  0.6589  0.37461  1.0000
  C   C30       1.0  0.30014  0.74842  0.42974  1.0000
  C   C31       1.0  0.23706999999999995  0.8242399999999999  0.48403  1.0000
  C   C32       1.0  0.79556  0.053709999999999994  0.16165  1.0000
  C   C33       1.0  0.45922999999999997  0.92422  0.18989  1.0000
  C   C34       1.0  0.72586  0.71132  0.53588  1.0000
  C   C35       1.0  0.78844  0.66022  0.46466000000000013  1.0000
  C   C36       1.0  0.65715  0.59998  0.39615  1.0000
  C   C37       1.0  0.71801  0.55277  0.32126  1.0000
  C   C38       1.0  0.58453  0.49441999999999997  0.25297  1.0000
  C   C39       1.0  0.63904  0.44069  0.17919  1.0000
  C   C40       1.0  0.49878  0.37283  0.11732  1.0000
  C   C41       1.0  0.53997  0.29493  0.05445  1.0000
  C   C42       1.0  0.39394  0.21404  0.0016  1.0000
  C   C43       1.0  0.71735  0.98624  0.33298  1.0000
  C   C44       1.0  0.49699  0.12959  0.28333  1.0000
  N   N1        1.0  0.020600000000000004  0.80239  0.07603  1.0000
  N   N2        1.0  0.83193  0.08562999999999998  0.57068  1.0000
  N   N3        1.0  0.10402999999999989  0.9696399999999996  0.87091  1.0000
  N   N4        1.0  0.65468  0.15295  0.84023  1.0000
  N   N5        1.0  0.14243  0.20262999999999998  0.41222  1.0000
  N   N6        1.0  0.724  0.8932299999999999  0.9430100000000001  1.0000
  N   N7        1.0  0.20879  0.05145999999999998  0.6082900000000001  1.0000
  N   N8        1.0  0.60253  0.8460899999999999  0.68454  1.0000
  N   N9        1.0  0.97964  0.19751  0.92404  1.0000
  N   N10       1.0  0.16832  0.91434  0.42921  1.0000
  N   N11       1.0  0.8949  0.029949999999999997  0.12868  1.0000
  N   N12       1.0  0.34674  0.84719  0.15974  1.0000
  N   N13       1.0  0.8581  0.79745  0.58762  1.0000
  N   N14       1.0  0.27634  0.10709999999999999  0.05695  1.0000
  N   N15       1.0  0.79095  0.9484999999999999  0.39135  1.0000
  N   N16       1.0  0.39742  0.15408  0.31572  1.0000
