data_image0
_chemical_formula_structural       K4In4H12C60O48
_chemical_formula_sum              "K4 In4 H12 C60 O48"
_cell_length_a       7.41013
_cell_length_b       18.02803
_cell_length_c       18.031860000000005
_cell_angle_alpha    79.84864
_cell_angle_beta     83.79408000000001
_cell_angle_gamma    83.78362

_space_group_name_H-M_alt    "P 1"
_space_group_IT_number       1

loop_
  _space_group_symop_operation_xyz
  'x, y, z'

loop_
  _atom_site_type_symbol
  _atom_site_label
  _atom_site_symmetry_multiplicity
  _atom_site_fract_x
  _atom_site_fract_y
  _atom_site_fract_z
  _atom_site_occupancy
  K   K1        1.0  0.21848000000000017  0.9777699999999998  0.41973  1.0000
  K   K2        1.0  0.28178000000000003  0.58031  0.02225  1.0000
  K   K3        1.0  0.78166  0.02213  0.58017  1.0000
  K   K4        1.0  0.71838  0.41968000000000005  0.9778199999999999  1.0000
  In  In1       1.0  0.30214  0.14640999999999996  0.55756  1.0000
  In  In2       1.0  0.19768  0.44234000000000007  0.85362  1.0000
  In  In3       1.0  0.69811  0.85373  0.4422  1.0000
  In  In4       1.0  0.80221  0.55787  0.1462  1.0000
  H   H1        1.0  0.4847  0.73009  0.6893  1.0000
  H   H2        1.0  0.08715999999999999  0.29334  0.69186  1.0000
  H   H3        1.0  0.12342999999999998  0.96219  0.75699  1.0000
  H   H4        1.0  0.015280000000000009  0.3106299999999999  0.26978  1.0000
  H   H5        1.0  0.4127700000000001  0.3080999999999999  0.70671  1.0000
  H   H6        1.0  0.3766300000000001  0.24298999999999998  0.03773  1.0000
  H   H7        1.0  0.51553  0.26991  0.31047  1.0000
  H   H8        1.0  0.91318  0.70712  0.30699  1.0000
  H   H9        1.0  0.8770299999999998  0.03772999999999998  0.24301000000000003  1.0000
  H   H10       1.0  0.98475  0.68961  0.72991  1.0000
  H   H11       1.0  0.58739  0.69244  0.29307  1.0000
  H   H12       1.0  0.62284  0.75718  0.9618699999999999  1.0000
  C   C1        1.0  0.40579999999999994  0.7808199999999998  0.70414  1.0000
  C   C2        1.0  0.29905000000000004  0.9137000000000001  0.6702  1.0000
  C   C3        1.0  0.2854  0.98826  0.61704  1.0000
  C   C4        1.0  0.8554699999999998  0.25274  0.65408  1.0000
  C   C5        1.0  0.40050000000000013  0.8477099999999999  0.65135  1.0000
  C   C6        1.0  0.9392099999999998  0.29593  0.69517  1.0000
  C   C7        1.0  0.6639299999999998  0.25739  0.6584  1.0000
  C   C8        1.0  0.5673300000000001  0.21092999999999998  0.61772  1.0000
  C   C9        1.0  0.98354  0.2021  0.61027  1.0000
  C   C10       1.0  0.51268  0.84738  0.57744  1.0000
  C   C11       1.0  0.2029199999999999  0.91178  0.74159  1.0000
  C   C12       1.0  0.31538999999999995  0.77982  0.77633  1.0000
  C   C13       1.0  0.2115999999999998  0.84531  0.79472  1.0000
  C   C14       1.0  0.33725  0.7114  0.83278  1.0000
  C   C15       1.0  0.10837000000000002  0.84524  0.86891  1.0000
  C   C16       1.0  0.09423000000000002  0.29578999999999994  0.21908  1.0000
  C   C17       1.0  0.20099  0.32977  0.08624  1.0000
  C   C18       1.0  0.21454  0.38295  0.01171  1.0000
  C   C19       1.0  0.6444400000000002  0.34588999999999986  0.74729  1.0000
  C   C20       1.0  0.09954000000000002  0.34861  0.15222  1.0000
  C   C21       1.0  0.56071  0.30478999999999995  0.7041  1.0000
  C   C22       1.0  0.8359599999999997  0.34158000000000005  0.74261  1.0000
  C   C23       1.0  0.9326400000000002  0.38221999999999995  0.78909  1.0000
  C   C24       1.0  0.51641  0.38971000000000006  0.79791  1.0000
  C   C25       1.0  0.9872499999999998  0.42252999999999996  0.15259  1.0000
  C   C26       1.0  0.29708  0.25836  0.08815  1.0000
  C   C27       1.0  0.18459999999999988  0.22356999999999996  0.22012  1.0000
  C   C28       1.0  0.28828999999999994  0.20520999999999992  0.1546  1.0000
  C   C29       1.0  0.16282  0.16711  0.28855  1.0000
  C   C30       1.0  0.39152000000000003  0.13102  0.15467  1.0000
  C   C31       1.0  0.59446  0.21916  0.29571  1.0000
  C   C32       1.0  0.70145  0.08633000000000002  0.32972  1.0000
  C   C33       1.0  0.7150799999999999  0.011820000000000006  0.38294  1.0000
  C   C34       1.0  0.14429999999999998  0.7474999999999998  0.34548  1.0000
  C   C35       1.0  0.59993  0.15231  0.34854  1.0000
  C   C36       1.0  0.06104999999999999  0.70445  0.30406  1.0000
  C   C37       1.0  0.3358  0.74323  0.34101  1.0000
  C   C38       1.0  0.43232  0.79016  0.38129  1.0000
  C   C39       1.0  0.01624000000000006  0.7979499999999998  0.38946  1.0000
  C   C40       1.0  0.48771  0.15263  0.42244  1.0000
  C   C41       1.0  0.79748  0.08817999999999998  0.25832  1.0000
  C   C42       1.0  0.6847  0.22012999999999996  0.2235  1.0000
  C   C43       1.0  0.7885300000000001  0.15461999999999995  0.20517  1.0000
  C   C44       1.0  0.66271  0.28854  0.16703  1.0000
  C   C45       1.0  0.89154  0.15465  0.13096  1.0000
  C   C46       1.0  0.9058899999999999  0.7043900000000001  0.78067  1.0000
  C   C47       1.0  0.79834  0.6702499999999998  0.9134900000000001  1.0000
  C   C48       1.0  0.7845700000000001  0.61698  0.9880799999999998  1.0000
  C   C49       1.0  0.35597000000000006  0.6542999999999998  0.25252  1.0000
  C   C50       1.0  0.90027  0.6515399999999999  0.84753  1.0000
  C   C51       1.0  0.43942000000000003  0.6956199999999998  0.2956  1.0000
  C   C52       1.0  0.16455999999999998  0.65882  0.25661  1.0000
  C   C53       1.0  0.06801000000000006  0.6183099999999998  0.2098  1.0000
  C   C54       1.0  0.48357  0.61032  0.20206  1.0000
  C   C55       1.0  0.012430000000000031  0.5775899999999999  0.84726  1.0000
  C   C56       1.0  0.7026  0.74176  0.91154  1.0000
  C   C57       1.0  0.81546  0.7766200000000001  0.77963  1.0000
  C   C58       1.0  0.71162  0.79496  0.8451  1.0000
  C   C59       1.0  0.83719  0.83314  0.71126  1.0000
  C   C60       1.0  0.6085499999999999  0.8691999999999996  0.84502  1.0000
  O   O1        1.0  0.38939  0.03676999999999999  0.6289  1.0000
  O   O2        1.0  0.2539  0.7120999999999998  0.90454  1.0000
  O   O3        1.0  0.052980000000000006  0.22912000000000005  0.54408  1.0000
  O   O4        1.0  0.5729  0.78558  0.55612  1.0000
  O   O5        1.0  0.04373  0.13735999999999998  0.64437  1.0000
  O   O6        1.0  0.16798  0.00011999999999998905  0.56987  1.0000
  O   O7        1.0  0.65304  0.16253  0.58118  1.0000
  O   O8        1.0  0.5488900000000001  0.91156  0.53714  1.0000
  O   O9        1.0  0.39114999999999994  0.22245000000000004  0.62281  1.0000
  O   O10       1.0  0.42686  0.6516700000000001  0.82581  1.0000
  O   O11       1.0  0.12494999999999996  0.7816900000000001  0.9231  1.0000
  O   O12       1.0  0.0003900000000000568  0.8956  0.88858  1.0000
  O   O13       1.0  0.11050999999999998  0.37107000000000007  0.96323  1.0000
  O   O14       1.0  0.24611  0.09531999999999996  0.28777  1.0000
  O   O15       1.0  0.44696999999999987  0.4559099999999999  0.77088  1.0000
  O   O16       1.0  0.92704  0.44381000000000004  0.21439  1.0000
  O   O17       1.0  0.45629  0.35559  0.86264  1.0000
  O   O18       1.0  0.33188999999999996  0.43012999999999996  0.99986  1.0000
  O   O19       1.0  0.84711  0.41881000000000007  0.83749  1.0000
  O   O20       1.0  0.9510100000000001  0.46285999999999994  0.08844  1.0000
  O   O21       1.0  0.10882000000000004  0.37704999999999983  0.77758  1.0000
  O   O22       1.0  0.07325999999999999  0.1741  0.34828  1.0000
  O   O23       1.0  0.37497  0.07682  0.21822  1.0000
  O   O24       1.0  0.4995999999999999  0.11133999999999997  0.10437  1.0000
  O   O25       1.0  0.61077  0.9633899999999999  0.37119  1.0000
  O   O26       1.0  0.746  0.28773999999999994  0.09526  1.0000
  O   O27       1.0  0.9461699999999998  0.77072  0.45552999999999993  1.0000
  O   O28       1.0  0.4270900000000001  0.21442999999999993  0.44364  1.0000
  O   O29       1.0  0.9569100000000001  0.8628499999999999  0.35554  1.0000
  O   O30       1.0  0.83279  0.9998900000000001  0.43001  1.0000
  O   O31       1.0  0.34676999999999997  0.83725  0.41942  1.0000
  O   O32       1.0  0.4519  0.08844999999999999  0.46286000000000005  1.0000
  O   O33       1.0  0.60875  0.78044  0.37402  1.0000
  O   O34       1.0  0.5732  0.34828  0.17405  1.0000
  O   O35       1.0  0.87466  0.21815999999999997  0.07674  1.0000
  O   O36       1.0  0.99956  0.10434  0.1113  1.0000
  O   O37       1.0  0.8891899999999997  0.62876  0.0364  1.0000
  O   O38       1.0  0.75397  0.9049799999999999  0.71204  1.0000
  O   O39       1.0  0.5540300000000001  0.54432  0.22929  1.0000
  O   O40       1.0  0.07298  0.55629  0.78552  1.0000
  O   O41       1.0  0.54196  0.64428  0.13707  1.0000
  O   O42       1.0  0.66675  0.5699599999999999  0.00018  1.0000
  O   O43       1.0  0.15302000000000002  0.5795099999999999  0.16309  1.0000
  O   O44       1.0  0.04810000000000002  0.5371999999999999  0.9114700000000001  1.0000
  O   O45       1.0  0.8915100000000001  0.6261399999999998  0.21923  1.0000
  O   O46       1.0  0.92669  0.82604  0.65155  1.0000
  O   O47       1.0  0.62564  0.9236299999999998  0.78165  1.0000
  O   O48       1.0  0.50029  0.88875  0.89535  1.0000
