data_image0
_chemical_formula_structural       Cu8Mo8H36C40N12O24
_chemical_formula_sum              "Cu8 Mo8 H36 C40 N12 O24"
_cell_length_a       6.88055
_cell_length_b       8.20661
_cell_length_c       28.341480000000004
_cell_angle_alpha    90.05913
_cell_angle_beta     89.91688
_cell_angle_gamma    103.82636

_space_group_name_H-M_alt    "P 1"
_space_group_IT_number       1

loop_
  _space_group_symop_operation_xyz
  'x, y, z'

loop_
  _atom_site_type_symbol
  _atom_site_label
  _atom_site_symmetry_multiplicity
  _atom_site_fract_x
  _atom_site_fract_y
  _atom_site_fract_z
  _atom_site_occupancy
  Cu  Cu1       1.0  0.35059999999999997  0.4962199999999999  0.4346300000000001  1.0000
  Cu  Cu2       1.0  0.83724  0.19118  0.51524  1.0000
  Cu  Cu3       1.0  0.64947  0.003229999999999999  0.9346300000000001  1.0000
  Cu  Cu4       1.0  0.16265  0.30885  0.015170000000000003  1.0000
  Cu  Cu5       1.0  0.6494  0.50378  0.56537  1.0000
  Cu  Cu6       1.0  0.16276  0.8088399999999998  0.4847600000000001  1.0000
  Cu  Cu7       1.0  0.3505200000000001  0.9967799999999999  0.06537  1.0000
  Cu  Cu8       1.0  0.8373400000000002  0.69117  0.9848300000000001  1.0000
  Mo  Mo1       1.0  0.70277  0.80097  0.4927800000000001  1.0000
  Mo  Mo2       1.0  0.8889500000000002  0.50147  0.4493500000000001  1.0000
  Mo  Mo3       1.0  0.2973400000000001  0.69898  0.9928500000000002  1.0000
  Mo  Mo4       1.0  0.11118  0.9983499999999998  0.94934  1.0000
  Mo  Mo5       1.0  0.29723  0.19905  0.50722  1.0000
  Mo  Mo6       1.0  0.11104999999999998  0.4985499999999999  0.55064  1.0000
  Mo  Mo7       1.0  0.7026500000000002  0.3010299999999999  0.007150000000000002  1.0000
  Mo  Mo8       1.0  0.88881  0.0016599999999999996  0.050650000000000014  1.0000
  H   H1        1.0  0.17272  0.3097  0.35092  1.0000
  H   H2        1.0  0.21958  0.33164  0.26439  1.0000
  H   H3        1.0  0.68125  0.78496  0.28874000000000005  1.0000
  H   H4        1.0  0.6250500000000002  0.7349299999999998  0.3743200000000001  1.0000
  H   H5        1.0  0.9972100000000002  0.26836  0.12675000000000003  1.0000
  H   H6        1.0  0.11490000000000003  0.37621  0.20526000000000003  1.0000
  H   H7        1.0  0.61281  0.69415  0.21441000000000004  1.0000
  H   H8        1.0  0.65528  0.66245  0.13679  1.0000
  H   H9        1.0  0.51441  0.54109  0.062440000000000016  1.0000
  H   H10       1.0  0.8274500000000002  0.19032  0.85102  1.0000
  H   H11       1.0  0.78076  0.16877  0.76448  1.0000
  H   H12       1.0  0.31916  0.71507  0.78879  1.0000
  H   H13       1.0  0.37555  0.76486  0.8743700000000002  1.0000
  H   H14       1.0  0.002790000000000005  0.23213  0.62661  1.0000
  H   H15       1.0  0.8853600000000003  0.12415  0.70515  1.0000
  H   H16       1.0  0.38762000000000013  0.80612  0.7145200000000002  1.0000
  H   H17       1.0  0.34496  0.83774  0.63697  1.0000
  H   H18       1.0  0.48541000000000006  0.9594499999999998  0.5625600000000002  1.0000
  H   H19       1.0  0.8272700000000002  0.69031  0.6490800000000002  1.0000
  H   H20       1.0  0.78041  0.66838  0.7356100000000001  1.0000
  H   H21       1.0  0.31874000000000013  0.21505  0.71126  1.0000
  H   H22       1.0  0.37494000000000005  0.2650899999999999  0.6256700000000001  1.0000
  H   H23       1.0  0.002790000000000021  0.73165  0.87324  1.0000
  H   H24       1.0  0.8851000000000001  0.62381  0.79474  1.0000
  H   H25       1.0  0.38718000000000014  0.30587  0.7855900000000002  1.0000
  H   H26       1.0  0.3447200000000001  0.33756  0.86321  1.0000
  H   H27       1.0  0.4855900000000001  0.45892  0.93756  1.0000
  H   H28       1.0  0.17254000000000008  0.8097  0.14898000000000003  1.0000
  H   H29       1.0  0.21922999999999995  0.8312499999999998  0.23552000000000006  1.0000
  H   H30       1.0  0.6808300000000002  0.28495  0.21121  1.0000
  H   H31       1.0  0.62444  0.23515  0.12562  1.0000
  H   H32       1.0  0.9972000000000001  0.76788  0.3733800000000001  1.0000
  H   H33       1.0  0.11463000000000002  0.87587  0.29485  1.0000
  H   H34       1.0  0.6123700000000002  0.1939  0.28547000000000006  1.0000
  H   H35       1.0  0.65503  0.16228  0.36303  1.0000
  H   H36       1.0  0.51457  0.04056  0.43744  1.0000
  C   C1        1.0  0.28455000000000014  0.41247  0.33546000000000004  1.0000
  C   C2        1.0  0.30855  0.42816  0.28675  1.0000
  C   C3        1.0  0.45238000000000006  0.56438  0.26806  1.0000
  C   C4        1.0  0.56817  0.6764  0.30084  1.0000
  C   C5        1.0  0.5368400000000001  0.64991  0.34867  1.0000
  C   C6        1.0  0.14295  0.35635  0.13043  1.0000
  C   C7        1.0  0.21141000000000001  0.41566  0.17509  1.0000
  C   C8        1.0  0.4018700000000001  0.52562  0.17911  1.0000
  C   C9        1.0  0.5097600000000001  0.57278  0.13717000000000001  1.0000
  C   C10       1.0  0.4291900000000001  0.50609  0.09466  1.0000
  C   C11       1.0  0.7157600000000001  0.08758  0.83551  1.0000
  C   C12       1.0  0.6918  0.07211  0.7868200000000002  1.0000
  C   C13       1.0  0.548  0.93587  0.76812  1.0000
  C   C14       1.0  0.4322300000000001  0.82367  0.8008900000000001  1.0000
  C   C15       1.0  0.46361000000000013  0.84996  0.84871  1.0000
  C   C16       1.0  0.8571000000000002  0.14409  0.63035  1.0000
  C   C17       1.0  0.7887800000000003  0.08475  0.67503  1.0000
  C   C18       1.0  0.5983600000000001  0.97472  0.67914  1.0000
  C   C19       1.0  0.49040000000000006  0.92754  0.63727  1.0000
  C   C20       1.0  0.57074  0.9943099999999998  0.59474  1.0000
  C   C21       1.0  0.71544  0.58755  0.66454  1.0000
  C   C22       1.0  0.6914400000000002  0.57186  0.7132400000000002  1.0000
  C   C23       1.0  0.54761  0.43564  0.73194  1.0000
  C   C24       1.0  0.43182  0.32361  0.6991600000000002  1.0000
  C   C25       1.0  0.4631500000000001  0.3501  0.6513200000000002  1.0000
  C   C26       1.0  0.8570500000000003  0.64367  0.86957  1.0000
  C   C27       1.0  0.78858  0.58435  0.82491  1.0000
  C   C28       1.0  0.59812  0.4744  0.8208900000000002  1.0000
  C   C29       1.0  0.49023000000000005  0.42723  0.8628200000000001  1.0000
  C   C30       1.0  0.5708000000000001  0.49393  0.90533  1.0000
  C   C31       1.0  0.28423000000000004  0.91243  0.16448000000000004  1.0000
  C   C32       1.0  0.30819000000000013  0.92791  0.21318  1.0000
  C   C33       1.0  0.4519900000000001  0.06415  0.23188000000000006  1.0000
  C   C34       1.0  0.56777  0.17634  0.19911000000000006  1.0000
  C   C35       1.0  0.5363799999999999  0.15004999999999993  0.15129  1.0000
  C   C36       1.0  0.14289  0.85592  0.36964000000000014  1.0000
  C   C37       1.0  0.21119999999999997  0.9152699999999998  0.32496  1.0000
  C   C38       1.0  0.40163  0.02529  0.32086  1.0000
  C   C39       1.0  0.50959  0.07247  0.36273  1.0000
  C   C40       1.0  0.42924  0.005700000000000001  0.4052600000000001  1.0000
  N   N1        1.0  0.39527000000000007  0.52103  0.3666000000000001  1.0000
  N   N2        1.0  0.4942300000000002  0.59566  0.22063000000000005  1.0000
  N   N3        1.0  0.24818000000000004  0.3974999999999999  0.09040000000000002  1.0000
  N   N4        1.0  0.60515  0.97881  0.8666400000000001  1.0000
  N   N5        1.0  0.50615  0.9046899999999998  0.7207  1.0000
  N   N6        1.0  0.7517400000000002  0.10294  0.5903900000000002  1.0000
  N   N7        1.0  0.6047100000000001  0.47898  0.6333900000000001  1.0000
  N   N8        1.0  0.5057600000000001  0.40435  0.77937  1.0000
  N   N9        1.0  0.75181  0.6025199999999997  0.90959  1.0000
  N   N10       1.0  0.39484  0.0212  0.13336  1.0000
  N   N11       1.0  0.49384  0.09532999999999997  0.2793  1.0000
  N   N12       1.0  0.24823999999999996  0.8970699999999998  0.4096  1.0000
  O   O1        1.0  0.45602  0.82499  0.49742  1.0000
  O   O2        1.0  0.83824  0.0007600000000000004  0.4715700000000001  1.0000
  O   O3        1.0  0.77313  0.75374  0.55011  1.0000
  O   O4        1.0  0.6549200000000002  0.60192  0.45452  1.0000
  O   O5        1.0  0.8670999999999999  0.4041899999999999  0.39499  1.0000
  O   O6        1.0  0.15903  0.5642  0.47863000000000006  1.0000
  O   O7        1.0  0.54407  0.67499  0.9975000000000002  1.0000
  O   O8        1.0  0.16188  0.49912  0.9716400000000002  1.0000
  O   O9        1.0  0.22648000000000004  0.74655  0.05018  1.0000
  O   O10       1.0  0.3452299999999999  0.8976799999999998  0.9545000000000002  1.0000
  O   O11       1.0  0.13315  0.09608  0.89508  1.0000
  O   O12       1.0  0.8409000000000001  0.93585  0.97863  1.0000
  O   O13       1.0  0.54398  0.17503  0.5025800000000001  1.0000
  O   O14       1.0  0.16174999999999998  0.99926  0.52842  1.0000
  O   O15       1.0  0.22685000000000002  0.24627999999999994  0.4498900000000001  1.0000
  O   O16       1.0  0.3450800000000001  0.3981  0.54548  1.0000
  O   O17       1.0  0.13289999999999993  0.5958299999999997  0.6050000000000002  1.0000
  O   O18       1.0  0.84097  0.43582  0.52137  1.0000
  O   O19       1.0  0.45592000000000005  0.32502  0.002500000000000001  1.0000
  O   O20       1.0  0.83811  0.5009  0.02836  1.0000
  O   O21       1.0  0.7735100000000003  0.25347  0.94982  1.0000
  O   O22       1.0  0.65476  0.10232999999999998  0.04549000000000001  1.0000
  O   O23       1.0  0.8668400000000003  0.90393  0.10491  1.0000
  O   O24       1.0  0.1591  0.06416  0.021370000000000007  1.0000
