data_image0
_chemical_formula_structural       Cd4H32C56N32O24
_chemical_formula_sum              "Cd4 H32 C56 N32 O24"
_cell_length_a       9.23045
_cell_length_b       15.21768
_cell_length_c       19.298039999999997
_cell_angle_alpha    89.99774
_cell_angle_beta     90.00905
_cell_angle_gamma    89.99955

_symmetry_space_group_name_H-M    'P 1'
_symmetry_Int_Tables_number       1

loop_
  _symmetry_equiv_pos_as_xyz
  'x,y,z'

loop_
  _atom_site_type_symbol
  _atom_site_label
  _atom_site_symmetry_multiplicity
  _atom_site_fract_x
  _atom_site_fract_y
  _atom_site_fract_z
  _atom_site_occupancy
  Cd  Cd1       1.0  0.67687  0.50002  0.24997999999999998  1.0000
  Cd  Cd2       1.0  0.32312  0.49998  0.75001  1.0000
  Cd  Cd3       1.0  0.82312  3.0000000000000008e-05  0.7500199999999999  1.0000
  Cd  Cd4       1.0  0.17687000000000005  0.99998  0.24997999999999998  1.0000
  H   H1        1.0  0.88658  0.30248  0.23717999999999997  1.0000
  H   H2        1.0  0.86012  0.69638  0.41271  1.0000
  H   H3        1.0  0.13991000000000006  0.69635  0.91272  1.0000
  H   H4        1.0  0.58338  0.38107999999999986  0.10185  1.0000
  H   H5        1.0  0.41661000000000004  0.61893  0.8981499999999999  1.0000
  H   H6        1.0  0.9165600000000002  0.11892999999999998  0.60189  1.0000
  H   H7        1.0  0.18191  0.3868  0.96867  1.0000
  H   H8        1.0  0.6133800000000003  0.80248  0.7628399999999997  1.0000
  H   H9        1.0  0.64049  0.80369  0.9126699999999999  1.0000
  H   H10       1.0  0.35952000000000006  0.80366  0.41266  1.0000
  H   H11       1.0  0.11341  0.69752  0.7628199999999998  1.0000
  H   H12       1.0  0.18191  0.61321  0.53135  1.0000
  H   H13       1.0  0.88656  0.69751  0.26282  1.0000
  H   H14       1.0  0.6819700000000001  0.8869  0.53138  1.0000
  H   H15       1.0  0.11344  0.3025  0.73718  1.0000
  H   H16       1.0  0.9166000000000001  0.8810699999999998  0.89813  1.0000
  H   H17       1.0  0.38658  0.80249  0.26284  1.0000
  H   H18       1.0  0.31802  0.8869  0.03135999999999999  1.0000
  H   H19       1.0  0.86008  0.30365  0.08727999999999998  1.0000
  H   H20       1.0  0.64047  0.19633999999999993  0.58734  1.0000
  H   H21       1.0  0.6134100000000001  0.19750999999999996  0.73716  1.0000
  H   H22       1.0  0.3866100000000001  0.19752999999999996  0.23716  1.0000
  H   H23       1.0  0.58342  0.61891  0.3981299999999999  1.0000
  H   H24       1.0  0.13987000000000005  0.30363  0.58729  1.0000
  H   H25       1.0  0.6819800000000003  0.11310999999999997  0.9686399999999997  1.0000
  H   H26       1.0  0.08343  0.88108  0.39811  1.0000
  H   H27       1.0  0.41657  0.38109  0.60187  1.0000
  H   H28       1.0  0.81808  0.3868  0.46864  1.0000
  H   H29       1.0  0.81808  0.6132  0.03133  1.0000
  H   H30       1.0  0.35950000000000004  0.19631999999999994  0.08732999999999999  1.0000
  H   H31       1.0  0.0834  0.11893999999999999  0.10186999999999997  1.0000
  H   H32       1.0  0.31802  0.11310999999999997  0.46862  1.0000
  C   C1        1.0  0.9580400000000001  0.14892  0.64871  1.0000
  C   C2        1.0  0.6021600000000003  0.9362  0.51676  1.0000
  C   C3        1.0  0.9244  0.4952299999999999  0.06345  1.0000
  C   C4        1.0  0.027380000000000005  0.43044  0.04606  1.0000
  C   C5        1.0  0.93921  0.75701  0.28051  1.0000
  C   C6        1.0  0.60217  0.0638  0.9832599999999999  1.0000
  C   C7        1.0  0.93251  0.64416  0.90662  1.0000
  C   C8        1.0  0.43908  0.2571  0.21947  1.0000
  C   C9        1.0  0.56753  0.14462  0.09329999999999997  1.0000
  C   C10       1.0  0.3445400000000001  0.00615  0.13133  1.0000
  C   C11       1.0  0.97261  0.56956  0.95394  1.0000
  C   C12       1.0  0.06078000000000001  0.24299  0.71949  1.0000
  C   C13       1.0  0.04192000000000001  0.14892  0.14869  1.0000
  C   C14       1.0  0.52774  0.06958  0.046199999999999984  1.0000
  C   C15       1.0  0.93252  0.35587  0.59338  1.0000
  C   C16       1.0  0.39783  0.06381  0.4832399999999999  1.0000
  C   C17       1.0  0.6554600000000002  0.00616  0.63133  1.0000
  C   C18       1.0  0.93922  0.24297  0.21947999999999998  1.0000
  C   C19       1.0  0.47223  0.06959  0.5462  1.0000
  C   C20       1.0  0.34453  0.99384  0.36866  1.0000
  C   C21       1.0  0.39782  0.9362  0.01674  1.0000
  C   C22       1.0  0.97261  0.43044  0.54605  1.0000
  C   C23       1.0  0.54168  0.35119  0.14865999999999996  1.0000
  C   C24       1.0  0.4324600000000001  0.14462  0.5933  1.0000
  C   C25       1.0  0.02739  0.56956  0.4539499999999999  1.0000
  C   C26       1.0  0.8979300000000001  0.56389  0.01681  1.0000
  C   C27       1.0  0.56754  0.85538  0.4067  1.0000
  C   C28       1.0  0.4722500000000001  0.9304199999999998  0.9537999999999998  1.0000
  C   C29       1.0  0.56092  0.25708  0.71948  1.0000
  C   C30       1.0  0.6554600000000002  0.9938499999999998  0.8686699999999998  1.0000
  C   C31       1.0  0.15553000000000003  0.49367  0.6313699999999999  1.0000
  C   C32       1.0  0.45832  0.64882  0.8513399999999999  1.0000
  C   C33       1.0  0.4324600000000001  0.85539  0.9066999999999998  1.0000
  C   C34       1.0  0.10206000000000003  0.43612  0.98319  1.0000
  C   C35       1.0  0.92442  0.50477  0.43654  1.0000
  C   C36       1.0  0.57541  0.99523  0.93655  1.0000
  C   C37       1.0  0.52776  0.9304199999999998  0.4537999999999999  1.0000
  C   C38       1.0  0.95807  0.8510899999999998  0.8513099999999999  1.0000
  C   C39       1.0  0.4246  0.99523  0.43654  1.0000
  C   C40       1.0  0.8979400000000002  0.43611  0.48316999999999993  1.0000
  C   C41       1.0  0.57539  0.004769999999999999  0.5634599999999998  1.0000
  C   C42       1.0  0.07557  0.49524  0.5634599999999998  1.0000
  C   C43       1.0  0.06077  0.75703  0.78052  1.0000
  C   C44       1.0  0.45829  0.35119  0.6486799999999999  1.0000
  C   C45       1.0  0.06748  0.64414  0.4066199999999999  1.0000
  C   C46       1.0  0.07559  0.50477  0.93655  1.0000
  C   C47       1.0  0.43907000000000007  0.74292  0.28052  1.0000
  C   C48       1.0  0.4245800000000001  0.004769999999999999  0.06345  1.0000
  C   C49       1.0  0.15553000000000003  0.50634  0.8686399999999999  1.0000
  C   C50       1.0  0.5417  0.64882  0.3513199999999999  1.0000
  C   C51       1.0  0.06748  0.35585  0.09338  1.0000
  C   C52       1.0  0.10205000000000003  0.5639  0.51683  1.0000
  C   C53       1.0  0.04195  0.85108  0.35129  1.0000
  C   C54       1.0  0.56091  0.7429099999999998  0.78053  1.0000
  C   C55       1.0  0.84446  0.49366  0.13136  1.0000
  C   C56       1.0  0.84446  0.50633  0.36863  1.0000
  N   N1        1.0  0.97585  0.17418  0.25676  1.0000
  N   N2        1.0  0.0344  0.28677  0.5955899999999998  1.0000
  N   N3        1.0  0.9655500000000001  0.2867799999999999  0.09559  1.0000
  N   N4        1.0  0.52176  0.72939  0.84878  1.0000
  N   N5        1.0  0.47582  0.67419  0.24322  1.0000
  N   N6        1.0  0.47824000000000005  0.72938  0.34877  1.0000
  N   N7        1.0  0.54127  0.61525  0.28826  1.0000
  N   N8        1.0  0.4649400000000001  0.78668  0.40438  1.0000
  N   N9        1.0  0.9787300000000001  0.77045  0.34873  1.0000
  N   N10       1.0  0.47583  0.32585  0.25676  1.0000
  N   N11       1.0  0.9586100000000001  0.88471  0.78826  1.0000
  N   N12       1.0  0.02415  0.17421  0.75678  1.0000
  N   N13       1.0  0.45874  0.61523  0.78828  1.0000
  N   N14       1.0  0.9656000000000001  0.71323  0.40440999999999994  1.0000
  N   N15       1.0  0.52416  0.67416  0.74324  1.0000
  N   N16       1.0  0.04139  0.88469  0.28824  1.0000
  N   N17       1.0  0.53505  0.21332  0.59562  1.0000
  N   N18       1.0  0.02414  0.82582  0.74324  1.0000
  N   N19       1.0  0.54125  0.38476999999999995  0.21171999999999996  1.0000
  N   N20       1.0  0.04138  0.1153  0.21172999999999997  1.0000
  N   N21       1.0  0.9586  0.11532  0.71176  1.0000
  N   N22       1.0  0.5217500000000003  0.2706199999999999  0.65123  1.0000
  N   N23       1.0  0.9758400000000003  0.8257899999999998  0.24322  1.0000
  N   N24       1.0  0.97871  0.22955  0.15125999999999998  1.0000
  N   N25       1.0  0.4587300000000001  0.3847499999999999  0.71174  1.0000
  N   N26       1.0  0.46491  0.2133  0.09560999999999997  1.0000
  N   N27       1.0  0.5350800000000001  0.7867  0.9043799999999999  1.0000
  N   N28       1.0  0.021280000000000007  0.77045  0.8487399999999999  1.0000
  N   N29       1.0  0.03444  0.71323  0.90441  1.0000
  N   N30       1.0  0.02126  0.22955  0.6512699999999998  1.0000
  N   N31       1.0  0.52417  0.3258199999999999  0.75678  1.0000
  N   N32       1.0  0.47823  0.2706199999999999  0.15122  1.0000
  O   O1        1.0  0.6866000000000001  0.15171  0.12066  1.0000
  O   O2        1.0  0.62711  0.06735  0.67399  1.0000
  O   O3        1.0  0.6866000000000001  0.84829  0.37934  1.0000
  O   O4        1.0  0.12837  0.43165  0.67359  1.0000
  O   O5        1.0  0.75103  0.55401  0.14260999999999996  1.0000
  O   O6        1.0  0.3728800000000001  0.93265  0.32599999999999996  1.0000
  O   O7        1.0  0.3729000000000001  0.06736  0.17398999999999998  1.0000
  O   O8        1.0  0.81352  0.65028  0.8790599999999998  1.0000
  O   O9        1.0  0.87164  0.43164  0.17358  1.0000
  O   O10       1.0  0.8716200000000002  0.56835  0.32641  1.0000
  O   O11       1.0  0.6271000000000001  0.93265  0.8260099999999999  1.0000
  O   O12       1.0  0.18647000000000005  0.34972  0.12093999999999999  1.0000
  O   O13       1.0  0.18646  0.65021  0.3790499999999999  1.0000
  O   O14       1.0  0.24979000000000004  0.9465599999999997  0.1423  1.0000
  O   O15       1.0  0.8135300000000001  0.34979  0.6209499999999999  1.0000
  O   O16       1.0  0.24897  0.44599  0.8573899999999998  1.0000
  O   O17       1.0  0.7502  0.05345  0.8577  1.0000
  O   O18       1.0  0.31339  0.8483  0.87934  1.0000
  O   O19       1.0  0.24896  0.55402  0.64261  1.0000
  O   O20       1.0  0.24976000000000004  0.05343  0.3577  1.0000
  O   O21       1.0  0.12835  0.56836  0.82642  1.0000
  O   O22       1.0  0.75103  0.44598  0.35738999999999993  1.0000
  O   O23       1.0  0.31339  0.15171  0.62066  1.0000
  O   O24       1.0  0.7502300000000002  0.94657  0.64229  1.0000
