data_image0
_chemical_formula_structural       Ho6H36C72O36
_chemical_formula_sum              "Ho6 H36 C72 O36"
_cell_length_a       10.70284
_cell_length_b       11.220969999999998
_cell_length_c       26.063209999999998
_cell_angle_alpha    84.44407
_cell_angle_beta     87.62469
_cell_angle_gamma    63.79504000000001

_symmetry_space_group_name_H-M    'P 1'
_symmetry_Int_Tables_number       1

loop_
  _symmetry_equiv_pos_as_xyz
  'x,y,z'

loop_
  _atom_site_type_symbol
  _atom_site_label
  _atom_site_symmetry_multiplicity
  _atom_site_fract_x
  _atom_site_fract_y
  _atom_site_fract_z
  _atom_site_occupancy
  Ho  Ho1       1.0  0.3977099999999999  0.026219999999999966  0.5611200000000001  1.0000
  Ho  Ho2       1.0  0.35919999999999985  0.8268899999999999  0.74291  1.0000
  Ho  Ho3       1.0  0.4035799999999999  0.62712  0.90395  1.0000
  Ho  Ho4       1.0  0.6019600000000002  0.97389  0.43886000000000003  1.0000
  Ho  Ho5       1.0  0.65075  0.16983999999999994  0.25693  1.0000
  Ho  Ho6       1.0  0.59923  0.37560000000000004  0.09726  1.0000
  H   H1        1.0  0.4404699999999999  0.40014  0.5809900000000001  1.0000
  H   H2        1.0  0.5437499999999996  0.38227999999999995  0.42026000000000013  1.0000
  H   H3        1.0  0.32896  0.3533299999999999  0.64158  1.0000
  H   H4        1.0  0.3708000000000001  0.5248699999999998  0.6838800000000003  1.0000
  H   H5        1.0  0.43395999999999996  0.10032999999999995  0.7826500000000002  1.0000
  H   H6        1.0  0.4692499999999999  0.27272  0.8261400000000001  1.0000
  H   H7        1.0  0.044969999999999996  0.02403  0.54673  1.0000
  H   H8        1.0  0.8214299999999999  0.02646  0.52215  1.0000
  H   H9        1.0  0.8522799999999998  0.7547899999999998  0.6545600000000001  1.0000
  H   H10       1.0  0.08276000000000004  0.74533  0.6771600000000001  1.0000
  H   H11       1.0  0.70771  0.83161  0.7489300000000001  1.0000
  H   H12       1.0  0.92754  0.85712  0.74202  1.0000
  H   H13       1.0  0.02946000000000004  0.6877999999999999  0.8983300000000002  1.0000
  H   H14       1.0  0.8131999999999999  0.6559699999999999  0.9049000000000003  1.0000
  H   H15       1.0  0.34784  0.06732000000000002  0.92262  1.0000
  H   H16       1.0  0.59764  0.76563  0.038380000000000004  1.0000
  H   H17       1.0  0.14686000000000002  0.36108  0.93164  1.0000
  H   H18       1.0  0.06397000000000003  0.6672099999999999  0.03248  1.0000
  H   H19       1.0  0.55955  0.59982  0.41897  1.0000
  H   H20       1.0  0.4563700000000001  0.6176399999999999  0.5795900000000002  1.0000
  H   H21       1.0  0.67052  0.64832  0.3585700000000001  1.0000
  H   H22       1.0  0.62939  0.47603  0.31632  1.0000
  H   H23       1.0  0.56586  0.90044  0.21728000000000003  1.0000
  H   H24       1.0  0.5303799999999999  0.72732  0.17406  1.0000
  H   H25       1.0  0.9558999999999995  0.97576  0.45357  1.0000
  H   H26       1.0  0.17954000000000006  0.9736199999999999  0.47787000000000013  1.0000
  H   H27       1.0  0.14782999999999996  0.24512  0.34545  1.0000
  H   H28       1.0  0.9169299999999999  0.25461999999999996  0.3231500000000001  1.0000
  H   H29       1.0  0.29542000000000007  0.16801000000000002  0.2514700000000001  1.0000
  H   H30       1.0  0.07498999999999999  0.14328000000000002  0.25760000000000005  1.0000
  H   H31       1.0  0.97632  0.31338  0.10102000000000003  1.0000
  H   H32       1.0  0.19361  0.34342  0.09538000000000002  1.0000
  H   H33       1.0  0.6525  0.93458  0.07773000000000002  1.0000
  H   H34       1.0  0.4030599999999999  0.23598999999999995  0.9621  1.0000
  H   H35       1.0  0.8541099999999999  0.63946  0.06817  1.0000
  H   H36       1.0  0.9372399999999999  0.33287999999999995  0.9673300000000002  1.0000
  C   C1        1.0  0.48245  0.25099999999999995  0.5005300000000001  1.0000
  C   C2        1.0  0.4898  0.38027999999999995  0.5005300000000001  1.0000
  C   C3        1.0  0.4651999999999996  0.44534  0.5457700000000001  1.0000
  C   C4        1.0  0.5251699999999998  0.43486  0.45474  1.0000
  C   C5        1.0  0.6853999999999999  0.9062299999999998  0.5740700000000001  1.0000
  C   C6        1.0  0.3610099999999998  0.11608999999999994  0.6825900000000003  1.0000
  C   C7        1.0  0.38015999999999983  0.21760999999999997  0.7095900000000003  1.0000
  C   C8        1.0  0.36152000000000006  0.3376599999999999  0.6816300000000002  1.0000
  C   C9        1.0  0.3847799999999999  0.43184000000000006  0.7052300000000002  1.0000
  C   C10       1.0  0.4194299999999999  0.19412999999999994  0.76166  1.0000
  C   C11       1.0  0.4408299999999999  0.28942999999999997  0.78558  1.0000
  C   C12       1.0  0.20892999999999998  0.88903  0.62644  1.0000
  C   C13       1.0  0.07790000000000002  0.8833299999999998  0.6127700000000001  1.0000
  C   C14       1.0  0.004449999999999982  0.96224  0.5690700000000001  1.0000
  C   C15       1.0  0.8804499999999998  0.9633300000000001  0.55534  1.0000
  C   C16       1.0  0.82622  0.88832  0.5864800000000001  1.0000
  C   C17       1.0  0.8980900000000002  0.80989  0.6305500000000003  1.0000
  C   C18       1.0  0.025340000000000102  0.8055099999999997  0.6432000000000001  1.0000
  C   C19       1.0  0.4257599999999999  0.40805  0.7572800000000002  1.0000
  C   C20       1.0  0.44742999999999994  0.51172  0.78263  1.0000
  C   C21       1.0  0.12686999999999998  0.78752  0.81677  1.0000
  C   C22       1.0  0.9936399999999997  0.7736299999999998  0.8197900000000002  1.0000
  C   C23       1.0  0.6122600000000001  0.7289299999999997  0.83188  1.0000
  C   C24       1.0  0.7458299999999998  0.7423600000000001  0.8272  1.0000
  C   C25       1.0  0.7793600000000002  0.7990799999999999  0.7814000000000002  1.0000
  C   C26       1.0  0.9022399999999997  0.8136399999999998  0.7775500000000002  1.0000
  C   C27       1.0  0.95963  0.7173699999999997  0.8655800000000001  1.0000
  C   C28       1.0  0.83812  0.70031  0.8693  1.0000
  C   C29       1.0  0.4420600000000001  0.8060899999999996  0.9542700000000002  1.0000
  C   C30       1.0  0.47027  0.90706  0.9783000000000002  1.0000
  C   C31       1.0  0.41421999999999987  0.039789999999999943  0.9565100000000002  1.0000
  C   C32       1.0  0.5562699999999999  0.86875  0.02205  1.0000
  C   C33       1.0  0.23645  0.53807  0.9592400000000002  1.0000
  C   C34       1.0  0.11687000000000004  0.51515  0.9808000000000001  1.0000
  C   C35       1.0  0.08253999999999999  0.42068  0.9616100000000002  1.0000
  C   C36       1.0  0.03430999999999997  0.59467  0.01895  1.0000
  C   C37       1.0  0.5177099999999999  0.74883  0.49935  1.0000
  C   C38       1.0  0.51028  0.61946  0.49935  1.0000
  C   C39       1.0  0.53502  0.5543099999999999  0.4541400000000001  1.0000
  C   C40       1.0  0.47504  0.56479  0.54515  1.0000
  C   C41       1.0  0.31568  0.09353  0.42589  1.0000
  C   C42       1.0  0.6406599999999999  0.88417  0.31735  1.0000
  C   C43       1.0  0.61999  0.78331  0.29040000000000005  1.0000
  C   C44       1.0  0.63843  0.66355  0.3185  1.0000
  C   C45       1.0  0.6156499999999999  0.56903  0.29499000000000003  1.0000
  C   C46       1.0  0.5806499999999999  0.8067399999999999  0.23837000000000005  1.0000
  C   C47       1.0  0.5592899999999998  0.7113  0.21456  1.0000
  C   C48       1.0  0.7915999999999999  0.11011999999999998  0.37406  1.0000
  C   C49       1.0  0.9223599999999997  0.11645999999999997  0.38758  1.0000
  C   C50       1.0  0.99613  0.03771999999999997  0.4312300000000001  1.0000
  C   C51       1.0  0.12028999999999998  0.03674999999999997  0.4447500000000001  1.0000
  C   C52       1.0  0.17463999999999993  0.11154  0.4135900000000001  1.0000
  C   C53       1.0  0.10212999999999993  0.19008  0.3695800000000001  1.0000
  C   C54       1.0  0.9746899999999998  0.19443999999999997  0.3571100000000001  1.0000
  C   C55       1.0  0.57509  0.59255  0.24291  1.0000
  C   C56       1.0  0.55601  0.48781  0.21748000000000006  1.0000
  C   C57       1.0  0.87828  0.21312999999999996  0.18285  1.0000
  C   C58       1.0  0.011199999999999986  0.22649000000000002  0.1797  1.0000
  C   C59       1.0  0.39258999999999994  0.26996  0.16922000000000006  1.0000
  C   C60       1.0  0.25896999999999987  0.25673  0.17314000000000004  1.0000
  C   C61       1.0  0.22462999999999997  0.20032  0.21881  1.0000
  C   C62       1.0  0.10164999999999998  0.18613000000000002  0.22218000000000004  1.0000
  C   C63       1.0  0.04568  0.28296  0.13397  1.0000
  C   C64       1.0  0.16763000000000003  0.2992  0.13078  1.0000
  C   C65       1.0  0.5587999999999999  0.19602  0.04634  1.0000
  C   C66       1.0  0.5301  0.09478  0.022130000000000004  1.0000
  C   C67       1.0  0.58615  0.96193  0.04385  1.0000
  C   C68       1.0  0.44422  0.13289  0.97836  1.0000
  C   C69       1.0  0.7650100000000001  0.46191999999999994  0.0406  1.0000
  C   C70       1.0  0.8839099999999999  0.48537  0.018990000000000003  1.0000
  C   C71       1.0  0.91826  0.57981  0.03819000000000001  1.0000
  C   C72       1.0  0.9666299999999998  0.4056699999999999  0.9808700000000002  1.0000
  O   O1        1.0  0.41730999999999974  0.21863  0.53736  1.0000
  O   O2        1.0  0.54422  0.1804  0.46361000000000013  1.0000
  O   O3        1.0  0.6412199999999999  0.9460199999999999  0.52703  1.0000
  O   O4        1.0  0.6040199999999998  0.89556  0.6090200000000001  1.0000
  O   O5        1.0  0.23759000000000005  0.9743999999999999  0.59908  1.0000
  O   O6        1.0  0.35278999999999994  0.13315999999999995  0.6337800000000002  1.0000
  O   O7        1.0  0.15678000000000009  0.8407199999999998  0.7744000000000002  1.0000
  O   O8        1.0  0.3543399999999998  0.016780000000000003  0.70939  1.0000
  O   O9        1.0  0.28336  0.8119099999999999  0.66379  1.0000
  O   O10       1.0  0.4514000000000002  0.60857  0.7523300000000003  1.0000
  O   O11       1.0  0.51336  0.80493  0.79951  1.0000
  O   O12       1.0  0.6003299999999999  0.6491699999999999  0.8667100000000001  1.0000
  O   O13       1.0  0.20744  0.7450499999999999  0.85536  1.0000
  O   O14       1.0  0.35391000000000006  0.844  0.91687  1.0000
  O   O15       1.0  0.50787  0.6815499999999999  0.9692800000000003  1.0000
  O   O16       1.0  0.25377999999999995  0.6364200000000001  0.97318  1.0000
  O   O17       1.0  0.31534  0.46616999999999986  0.9248100000000002  1.0000
  O   O18       1.0  0.4574799999999997  0.50188  0.83101  1.0000
  O   O19       1.0  0.5827000000000001  0.7813999999999999  0.4625400000000001  1.0000
  O   O20       1.0  0.45626999999999995  0.81922  0.5363800000000001  1.0000
  O   O21       1.0  0.36065  0.05345999999999999  0.4729100000000001  1.0000
  O   O22       1.0  0.39674  0.10439  0.39081  1.0000
  O   O23       1.0  0.7626199999999997  0.02475  0.40082  1.0000
  O   O24       1.0  0.6472999999999998  0.8673599999999999  0.36617  1.0000
  O   O25       1.0  0.85086  0.15496  0.22437  1.0000
  O   O26       1.0  0.6510099999999999  0.9817199999999999  0.2906  1.0000
  O   O27       1.0  0.7169799999999998  0.18805  0.33671000000000006  1.0000
  O   O28       1.0  0.5580199999999998  0.38792  0.24732000000000004  1.0000
  O   O29       1.0  0.4918599999999999  0.19286000000000003  0.20115  1.0000
  O   O30       1.0  0.40366  0.35203  0.13513000000000003  1.0000
  O   O31       1.0  0.79412  0.26086  0.14549000000000004  1.0000
  O   O32       1.0  0.6477399999999999  0.15730999999999998  0.08338000000000002  1.0000
  O   O33       1.0  0.49279000000000006  0.3207  0.03151  1.0000
  O   O34       1.0  0.7495099999999999  0.36218  0.027430000000000003  1.0000
  O   O35       1.0  0.68489  0.53449  0.07485  1.0000
  O   O36       1.0  0.5426  0.49955  0.16917  1.0000
