data_image0
_chemical_formula_structural       Zn4H28C56N4O16
_chemical_formula_sum              "Zn4 H28 C56 N4 O16"
_cell_length_a       8.01894
_cell_length_b       10.961940000000002
_cell_length_c       20.63508
_cell_angle_alpha    90.26708
_cell_angle_beta     89.75698000000001
_cell_angle_gamma    105.71339

_space_group_name_H-M_alt    "P 1"
_space_group_IT_number       1

loop_
  _space_group_symop_operation_xyz
  'x, y, z'

loop_
  _atom_site_type_symbol
  _atom_site_label
  _atom_site_symmetry_multiplicity
  _atom_site_fract_x
  _atom_site_fract_y
  _atom_site_fract_z
  _atom_site_occupancy
  Zn  Zn1       1.0  0.30791  0.38316  0.17587  1.0000
  Zn  Zn2       1.0  0.1956  0.11861  0.67646  1.0000
  Zn  Zn3       1.0  0.69139  0.61675  0.82398  1.0000
  Zn  Zn4       1.0  0.8043899999999999  0.8813499999999999  0.32359  1.0000
  H   H1        1.0  0.18047  0.55702  0.34405  1.0000
  H   H2        1.0  0.86894  0.1722  0.46722  1.0000
  H   H3        1.0  0.15907000000000004  0.69227  0.43809999999999993  1.0000
  H   H4        1.0  0.10966  0.10541999999999999  0.18638  1.0000
  H   H5        1.0  0.9601300000000001  0.93667  0.11169999999999998  1.0000
  H   H6        1.0  0.16941  0.19138  0.9525  1.0000
  H   H7        1.0  0.31566  0.34799  0.03452  1.0000
  H   H8        1.0  0.3218  0.94078  0.84413  1.0000
  H   H9        1.0  0.63324  0.32719  0.96706  1.0000
  H   H10       1.0  0.33928000000000014  0.80734  0.93824  1.0000
  H   H11       1.0  0.39542  0.39681999999999995  0.68678  1.0000
  H   H12       1.0  0.5405  0.56541  0.61168  1.0000
  H   H13       1.0  0.3334200000000001  0.30661  0.45314  1.0000
  H   H14       1.0  0.19053999999999996  0.15064  0.5358099999999999  1.0000
  H   H15       1.0  0.81961  0.44304000000000004  0.65592  1.0000
  H   H16       1.0  0.13104  0.82777  0.53279  1.0000
  H   H17       1.0  0.8410300000000003  0.30777  0.5619  1.0000
  H   H18       1.0  0.8901900000000003  0.89451  0.8136299999999999  1.0000
  H   H19       1.0  0.03971  0.06327  0.8882999999999999  1.0000
  H   H20       1.0  0.8305500000000002  0.80856  0.047479999999999994  1.0000
  H   H21       1.0  0.6843200000000003  0.65198  0.96547  1.0000
  H   H22       1.0  0.67823  0.0593  0.15587  1.0000
  H   H23       1.0  0.36677  0.67271  0.03295  1.0000
  H   H24       1.0  0.66082  0.1927  0.06176  1.0000
  H   H25       1.0  0.60449  0.60313  0.3132599999999999  1.0000
  H   H26       1.0  0.45943999999999996  0.43454  0.38837  1.0000
  H   H27       1.0  0.66655  0.69338  0.54692  1.0000
  H   H28       1.0  0.80941  0.8494  0.46424  1.0000
  C   C1        1.0  0.16332000000000005  0.35174  0.27828  1.0000
  C   C2        1.0  0.08832000000000002  0.35506  0.34433  1.0000
  C   C3        1.0  0.11327  0.47346  0.37157999999999997  1.0000
  C   C4        1.0  0.05716999999999996  0.48908999999999997  0.43576999999999994  1.0000
  C   C5        1.0  0.9656400000000003  0.37764  0.47130999999999995  1.0000
  C   C6        1.0  0.9388  0.25683  0.4412  1.0000
  C   C7        1.0  0.9997700000000002  0.24373  0.37957  1.0000
  C   C8        1.0  0.08998  0.60867  0.46521  1.0000
  C   C9        1.0  0.96206  0.11565999999999999  0.34839  1.0000
  C   C10       1.0  0.12185000000000003  0.11944  0.13407  1.0000
  C   C11       1.0  0.03623000000000001  0.025530000000000004  0.09102  1.0000
  C   C12       1.0  0.04686  0.04799  0.023759999999999996  1.0000
  C   C13       1.0  0.15067  0.16662  0.0034699999999999996  1.0000
  C   C14       1.0  0.23469000000000007  0.25541  0.04896  1.0000
  C   C15       1.0  0.34118  0.14532  0.7783  1.0000
  C   C16       1.0  0.4159800000000002  0.14246  0.8441399999999999  1.0000
  C   C17       1.0  0.3895  0.02456  0.87158  1.0000
  C   C18       1.0  0.44446000000000013  0.009980000000000001  0.93578  1.0000
  C   C19       1.0  0.53664  0.1218  0.97118  1.0000
  C   C20       1.0  0.56433  0.24209  0.94099  1.0000
  C   C21       1.0  0.5044000000000002  0.25416  0.8793799999999999  1.0000
  C   C22       1.0  0.4092700000000001  0.8909100000000001  0.96537  1.0000
  C   C23       1.0  0.5432  0.3816399999999999  0.84818  1.0000
  C   C24       1.0  0.38243  0.38203000000000004  0.63453  1.0000
  C   C25       1.0  0.46568  0.47578999999999994  0.59118  1.0000
  C   C26       1.0  0.45433  0.45211  0.52397  1.0000
  C   C27       1.0  0.35233  0.33243  0.50403  1.0000
  C   C28       1.0  0.27035  0.24398  0.54983  1.0000
  C   C29       1.0  0.83663  0.64827  0.72172  1.0000
  C   C30       1.0  0.9117100000000002  0.64498  0.65565  1.0000
  C   C31       1.0  0.8867900000000001  0.52658  0.62839  1.0000
  C   C32       1.0  0.94287  0.51091  0.5642  1.0000
  C   C33       1.0  0.0344  0.62233  0.52866  1.0000
  C   C34       1.0  0.06118999999999999  0.74314  0.55881  1.0000
  C   C35       1.0  0.00026000000000000957  0.75632  0.62043  1.0000
  C   C36       1.0  0.91007  0.39132  0.53476  1.0000
  C   C37       1.0  0.038020000000000054  0.8844200000000001  0.65162  1.0000
  C   C38       1.0  0.8780200000000004  0.8804999999999998  0.86593  1.0000
  C   C39       1.0  0.9636400000000003  0.97441  0.9089799999999999  1.0000
  C   C40       1.0  0.9530500000000004  0.95198  0.9762399999999999  1.0000
  C   C41       1.0  0.8492600000000002  0.8333199999999998  0.9965199999999997  1.0000
  C   C42       1.0  0.76526  0.74456  0.95101  1.0000
  C   C43       1.0  0.6588400000000002  0.85469  0.22168  1.0000
  C   C44       1.0  0.5841200000000001  0.8575699999999999  0.15585  1.0000
  C   C45       1.0  0.61051  0.97546  0.12846  1.0000
  C   C46       1.0  0.5555200000000001  0.9900099999999998  0.06426  1.0000
  C   C47       1.0  0.46343  0.8781500000000001  0.02886  1.0000
  C   C48       1.0  0.4357400000000001  0.75783  0.05900999999999999  1.0000
  C   C49       1.0  0.4957000000000001  0.74585  0.12062  1.0000
  C   C50       1.0  0.59076  0.10907  0.03467  1.0000
  C   C51       1.0  0.45689000000000013  0.61842  0.15185  1.0000
  C   C52       1.0  0.6175  0.61793  0.36551  1.0000
  C   C53       1.0  0.53428  0.52417  0.40886  1.0000
  C   C54       1.0  0.54565  0.54789  0.47606999999999994  1.0000
  C   C55       1.0  0.64765  0.66756  0.49601999999999996  1.0000
  C   C56       1.0  0.72962  0.75603  0.45023  1.0000
  N   N1        1.0  0.22024  0.23331  0.11342  1.0000
  N   N2        1.0  0.2854  0.26733  0.61422  1.0000
  N   N3        1.0  0.7796099999999999  0.76662  0.88656  1.0000
  N   N4        1.0  0.71452  0.73265  0.38583  1.0000
  O   O1        1.0  0.09050999999999995  0.3882399999999999  0.23018  1.0000
  O   O2        1.0  0.3102200000000001  0.32675  0.27221  1.0000
  O   O3        1.0  0.9833  0.1037  0.28883999999999993  1.0000
  O   O4        1.0  0.89961  0.01822  0.38626  1.0000
  O   O5        1.0  0.40905  0.1031  0.7302299999999999  1.0000
  O   O6        1.0  0.1987900000000001  0.17678  0.7724199999999999  1.0000
  O   O7        1.0  0.53295  0.39231  0.7881  1.0000
  O   O8        1.0  0.59472  0.48011  0.88649  1.0000
  O   O9        1.0  0.90941  0.61179  0.76983  1.0000
  O   O10       1.0  0.68973  0.67322  0.72775  1.0000
  O   O11       1.0  0.01675000000000001  0.89636  0.71118  1.0000
  O   O12       1.0  0.10045999999999995  0.9818599999999998  0.61376  1.0000
  O   O13       1.0  0.59099  0.89694  0.26974  1.0000
  O   O14       1.0  0.8012300000000002  0.82316  0.22758999999999996  1.0000
  O   O15       1.0  0.46707  0.6078  0.21192  1.0000
  O   O16       1.0  0.40537  0.51994  0.11351999999999997  1.0000
