data_image0
_chemical_formula_structural       Zn10H24C52N28O32
_chemical_formula_sum              "Zn10 H24 C52 N28 O32"
_cell_length_a       11.35365
_cell_length_b       12.2082
_cell_length_c       18.1472
_cell_angle_alpha    89.9791
_cell_angle_beta     90.02526
_cell_angle_gamma    108.66453000000001

_symmetry_space_group_name_H-M    'P 1'
_symmetry_Int_Tables_number       1

loop_
  _symmetry_equiv_pos_as_xyz
  'x,y,z'

loop_
  _atom_site_type_symbol
  _atom_site_label
  _atom_site_symmetry_multiplicity
  _atom_site_fract_x
  _atom_site_fract_y
  _atom_site_fract_z
  _atom_site_occupancy
  Zn  Zn1       1.0  0.72349  0.09139999999999997  0.52357  1.0000
  Zn  Zn2       1.0  0.8949199999999998  0.5575099999999998  0.6682  1.0000
  Zn  Zn3       1.0  0.27663  0.40858  0.02338  1.0000
  Zn  Zn4       1.0  0.10573999999999995  0.9435299999999999  0.168  1.0000
  Zn  Zn5       1.0  0.2764999999999999  0.9085899999999998  0.47643  1.0000
  Zn  Zn6       1.0  0.10507999999999991  0.4424899999999999  0.33183  1.0000
  Zn  Zn7       1.0  0.7233899999999999  0.5914199999999998  0.9765899999999998  1.0000
  Zn  Zn8       1.0  0.89427  0.056469999999999985  0.83201  1.0000
  Zn  Zn9       1.0  3.9999999999999976e-05  3.9999999999999996e-05  0.50009  1.0000
  Zn  Zn10      1.0  0.99984  0.49984  0.00031  1.0000
  H   H1        1.0  0.18458999999999995  0.6839099999999999  0.5884600000000001  1.0000
  H   H2        1.0  0.85028  0.7651699999999998  0.59945  1.0000
  H   H3        1.0  0.06434  0.024489999999999998  0.68255  1.0000
  H   H4        1.0  0.72368  0.09243999999999998  0.706  1.0000
  H   H5        1.0  0.52343  0.57061  0.62075  1.0000
  H   H6        1.0  0.20529999999999998  0.29379  0.54591  1.0000
  H   H7        1.0  0.8153599999999999  0.81584  0.08863  1.0000
  H   H8        1.0  0.15081999999999998  0.73676  0.09929  1.0000
  H   H9        1.0  0.9364399999999998  0.47526999999999997  0.18233  1.0000
  H   H10       1.0  0.27635999999999994  0.40556  0.2058  1.0000
  H   H11       1.0  0.47603  0.9295899999999998  0.11896000000000001  1.0000
  H   H12       1.0  0.7958499999999997  0.20636999999999994  0.04613  1.0000
  H   H13       1.0  0.81542  0.31608  0.41155000000000014  1.0000
  H   H14       1.0  0.14972  0.23481999999999997  0.40056  1.0000
  H   H15       1.0  0.9356599999999998  0.9755099999999998  0.31746  1.0000
  H   H16       1.0  0.2763199999999999  0.9075499999999999  0.294  1.0000
  H   H17       1.0  0.4765699999999999  0.42937999999999993  0.37925  1.0000
  H   H18       1.0  0.7946999999999997  0.7062  0.45409  1.0000
  H   H19       1.0  0.18463999999999997  0.18417  0.91136  1.0000
  H   H20       1.0  0.84918  0.26325  0.9007199999999999  1.0000
  H   H21       1.0  0.06356999999999997  0.52472  0.81771  1.0000
  H   H22       1.0  0.7236699999999998  0.59443  0.79421  1.0000
  H   H23       1.0  0.52397  0.0704  0.88105  1.0000
  H   H24       1.0  0.2041399999999999  0.7936099999999998  0.95387  1.0000
  C   C1        1.0  0.11493999999999997  0.72689  0.58246  1.0000
  C   C2        1.0  0.9452499999999996  0.7694399999999999  0.58798  1.0000
  C   C3        1.0  0.9775699999999999  0.040409999999999995  0.67125  1.0000
  C   C4        1.0  0.80437  0.07481  0.68359  1.0000
  C   C5        1.0  0.6853799999999999  0.46177  0.62605  1.0000
  C   C6        1.0  0.5537799999999998  0.4073999999999999  0.60188  1.0000
  C   C7        1.0  0.48182999999999987  0.4815  0.60331  1.0000
  C   C8        1.0  0.35742  0.43966  0.58339  1.0000
  C   C9        1.0  0.30296  0.32585  0.56088  1.0000
  C   C10       1.0  0.37398  0.25118  0.55809  1.0000
  C   C11       1.0  0.5009199999999999  0.29042  0.57957  1.0000
  C   C12       1.0  0.57572  0.20748  0.58217  1.0000
  C   C13       1.0  0.30556  0.13021999999999997  0.53141  1.0000
  C   C14       1.0  0.8853899999999998  0.7733399999999999  0.08249  1.0000
  C   C15       1.0  0.05566999999999995  0.7318399999999999  0.08773  1.0000
  C   C16       1.0  0.023129999999999977  0.4591499999999999  0.17109  1.0000
  C   C17       1.0  0.19581999999999997  0.4236899999999999  0.18347  1.0000
  C   C18       1.0  0.31427  0.03915  0.12420000000000002  1.0000
  C   C19       1.0  0.4461899999999999  0.09319999999999998  0.10027  1.0000
  C   C20       1.0  0.5179699999999999  0.018849999999999995  0.10189  1.0000
  C   C21       1.0  0.64264  0.060429999999999984  0.08247000000000002  1.0000
  C   C22       1.0  0.6979299999999999  0.17443  0.060480000000000006  1.0000
  C   C23       1.0  0.6273599999999999  0.24940999999999994  0.05795000000000001  1.0000
  C   C24       1.0  0.50006  0.21033999999999997  0.07856  1.0000
  C   C25       1.0  0.42663999999999996  0.29442  0.08095  1.0000
  C   C26       1.0  0.6957599999999999  0.37101  0.03254  1.0000
  C   C27       1.0  0.8850699999999999  0.27308999999999994  0.41755  1.0000
  C   C28       1.0  0.05474999999999998  0.23053999999999994  0.41203  1.0000
  C   C29       1.0  0.022429999999999967  0.9595899999999999  0.32876  1.0000
  C   C30       1.0  0.19562999999999997  0.9251799999999998  0.31641  1.0000
  C   C31       1.0  0.31462999999999997  0.5382299999999999  0.37395  1.0000
  C   C32       1.0  0.44621999999999995  0.5926  0.39813  1.0000
  C   C33       1.0  0.51817  0.51849  0.39669  1.0000
  C   C34       1.0  0.64259  0.56033  0.41661000000000004  1.0000
  C   C35       1.0  0.69705  0.67414  0.43912  1.0000
  C   C36       1.0  0.62603  0.7488199999999999  0.4419100000000001  1.0000
  C   C37       1.0  0.49908999999999987  0.7095799999999999  0.42043  1.0000
  C   C38       1.0  0.42428  0.7925199999999998  0.41783  1.0000
  C   C39       1.0  0.6944599999999997  0.8697799999999998  0.4686  1.0000
  C   C40       1.0  0.11461  0.22667  0.91751  1.0000
  C   C41       1.0  0.9443299999999999  0.26816999999999996  0.9122900000000002  1.0000
  C   C42       1.0  0.9768799999999997  0.5408199999999999  0.82898  1.0000
  C   C43       1.0  0.8041999999999999  0.5762999999999999  0.81655  1.0000
  C   C44       1.0  0.68573  0.96083  0.8758100000000001  1.0000
  C   C45       1.0  0.5537999999999997  0.9067799999999999  0.8997300000000001  1.0000
  C   C46       1.0  0.48202999999999996  0.9811399999999999  0.8981100000000001  1.0000
  C   C47       1.0  0.35735999999999996  0.93956  0.91753  1.0000
  C   C48       1.0  0.3020599999999999  0.8255599999999997  0.93952  1.0000
  C   C49       1.0  0.37262  0.75057  0.94205  1.0000
  C   C50       1.0  0.4999299999999999  0.78964  0.9214400000000001  1.0000
  C   C51       1.0  0.57336  0.7055699999999999  0.91906  1.0000
  C   C52       1.0  0.30418999999999996  0.62897  0.96747  1.0000
  N   N1        1.0  0.1342699999999999  0.8265299999999998  0.54695  1.0000
  N   N2        1.0  0.025949999999999997  0.85367  0.55057  1.0000
  N   N3        1.0  0.9970399999999999  0.6878699999999999  0.60935  1.0000
  N   N4        1.0  0.93474  0.04577999999999999  0.60375  1.0000
  N   N5        1.0  0.82415  0.06811  0.61179  1.0000
  N   N6        1.0  0.89888  0.05750999999999999  0.72332  1.0000
  N   N7        1.0  0.2818399999999999  0.51639  0.58851  1.0000
  N   N8        1.0  0.86659  0.674  0.04676  1.0000
  N   N9        1.0  0.97537  0.6475299999999999  0.05018000000000001  1.0000
  N   N10       1.0  0.0033099999999999887  0.81285  0.10937  1.0000
  N   N11       1.0  0.0665  0.45483  0.10364  1.0000
  N   N12       1.0  0.17669999999999994  0.4318199999999999  0.11170000000000001  1.0000
  N   N13       1.0  0.10110999999999998  0.44061999999999996  0.22313  1.0000
  N   N14       1.0  0.7181099999999997  0.9837199999999998  0.08825  1.0000
  N   N15       1.0  0.86574  0.17346999999999999  0.45305999999999996  1.0000
  N   N16       1.0  0.9740599999999998  0.14632  0.44943999999999995  1.0000
  N   N17       1.0  0.002959999999999994  0.31211  0.39065  1.0000
  N   N18       1.0  0.06526  0.95422  0.39626  1.0000
  N   N19       1.0  0.17585999999999993  0.93189  0.38821  1.0000
  N   N20       1.0  0.10111999999999996  0.9424799999999999  0.27669  1.0000
  N   N21       1.0  0.7181599999999998  0.4835999999999999  0.41149  1.0000
  N   N22       1.0  0.13338  0.32599  0.95328  1.0000
  N   N23       1.0  0.024599999999999983  0.35246  0.9498800000000001  1.0000
  N   N24       1.0  0.9966899999999997  0.18718  0.8906200000000001  1.0000
  N   N25       1.0  0.9334999999999999  0.5451199999999999  0.89643  1.0000
  N   N26       1.0  0.82331  0.56815  0.88833  1.0000
  N   N27       1.0  0.89892  0.55936  0.7769100000000001  1.0000
  N   N28       1.0  0.28189  0.01628  0.91175  1.0000
  O   O1        1.0  0.63718  0.20546  0.52244  1.0000
  O   O2        1.0  0.5716999999999999  0.15017  0.63914  1.0000
  O   O3        1.0  0.36956999999999995  0.0645  0.5151  1.0000
  O   O4        1.0  0.18857  0.10429  0.52611  1.0000
  O   O5        1.0  0.1699  0.47728  0.5705200000000001  1.0000
  O   O6        1.0  0.3327899999999999  0.61644  0.6115  1.0000
  O   O7        1.0  0.71942  0.56911  0.64465  1.0000
  O   O8        1.0  0.7638499999999999  0.40614999999999996  0.62929  1.0000
  O   O9        1.0  0.36269  0.2944899999999999  0.02201  1.0000
  O   O10       1.0  0.4338799999999999  0.35442999999999997  0.137  1.0000
  O   O11       1.0  0.63075  0.43510999999999994  0.014640000000000002  1.0000
  O   O12       1.0  0.8132399999999999  0.39941  0.029910000000000003  1.0000
  O   O13       1.0  0.8300999999999998  0.022779999999999995  0.07049  1.0000
  O   O14       1.0  0.66712  0.88385  0.11156  1.0000
  O   O15       1.0  0.28091  0.9326  0.14465  1.0000
  O   O16       1.0  0.23490999999999995  0.09393999999999998  0.12573  1.0000
  O   O17       1.0  0.3628199999999998  0.7945299999999997  0.47756  1.0000
  O   O18       1.0  0.4283  0.8498199999999998  0.36086  1.0000
  O   O19       1.0  0.6304299999999999  0.9354899999999999  0.48491000000000006  1.0000
  O   O20       1.0  0.8114399999999999  0.8957099999999999  0.4739  1.0000
  O   O21       1.0  0.8300999999999998  0.52271  0.42948  1.0000
  O   O22       1.0  0.6672099999999999  0.38355  0.3885  1.0000
  O   O23       1.0  0.2805899999999999  0.43088999999999994  0.35535000000000005  1.0000
  O   O24       1.0  0.23615  0.59385  0.37072  1.0000
  O   O25       1.0  0.6373099999999998  0.7055  0.978  1.0000
  O   O26       1.0  0.5661299999999999  0.64556  0.863  1.0000
  O   O27       1.0  0.36925  0.56488  0.9853600000000001  1.0000
  O   O28       1.0  0.18673  0.60055  0.97012  1.0000
  O   O29       1.0  0.16989999999999994  0.9772199999999999  0.9295100000000001  1.0000
  O   O30       1.0  0.33288999999999996  0.11613999999999997  0.88845  1.0000
  O   O31       1.0  0.71909  0.06739  0.85536  1.0000
  O   O32       1.0  0.7651  0.90606  0.87427  1.0000
