data_image0
_chemical_formula_structural       Ag6H36C48N24
_chemical_formula_sum              "Ag6 H36 C48 N24"
_cell_length_a       8.14016
_cell_length_b       8.00901
_cell_length_c       22.26531
_cell_angle_alpha    89.99977
_cell_angle_beta     89.99955
_cell_angle_gamma    113.72328

_symmetry_space_group_name_H-M    'P 1'
_symmetry_Int_Tables_number       1

loop_
  _symmetry_equiv_pos_as_xyz
  'x,y,z'

loop_
  _atom_site_type_symbol
  _atom_site_label
  _atom_site_symmetry_multiplicity
  _atom_site_fract_x
  _atom_site_fract_y
  _atom_site_fract_z
  _atom_site_occupancy
  Ag  Ag1       1.0  0.6838  0.54817  0.19715  1.0000
  Ag  Ag2       1.0  0.74936  0.2441  0.29348  1.0000
  Ag  Ag3       1.0  0.82353  0.93665  0.19867999999999997  1.0000
  Ag  Ag4       1.0  0.31625  0.45186000000000004  0.69715  1.0000
  Ag  Ag5       1.0  0.25067  0.75595  0.79343  1.0000
  Ag  Ag6       1.0  0.17642  0.06338  0.6986699999999999  1.0000
  H   H1        1.0  0.66878  0.36044  0.41369999999999996  1.0000
  H   H2        1.0  0.38306  0.71208  0.38880999999999993  1.0000
  H   H3        1.0  0.47086000000000006  0.72522  0.28303  1.0000
  H   H4        1.0  0.26251  0.6097  0.47807  1.0000
  H   H5        1.0  0.64185  0.35887  0.50463  1.0000
  H   H6        1.0  0.54484  0.325  0.6102  1.0000
  H   H7        1.0  0.95771  0.4678000000000001  0.10093  1.0000
  H   H8        1.0  0.16656  0.31228  0.09212999999999999  1.0000
  H   H9        1.0  0.17979  0.3259200000000001  0.28697  1.0000
  H   H10       1.0  0.3163000000000001  0.15754000000000007  0.28701  1.0000
  H   H11       1.0  0.3421  0.18309000000000006  0.09234  1.0000
  H   H12       1.0  0.5457  0.02137  0.10159999999999998  1.0000
  H   H13       1.0  0.81775  0.12524  0.4139399999999999  1.0000
  H   H14       1.0  0.11556000000000013  0.7838500000000003  0.39361  1.0000
  H   H15       1.0  0.030710000000000078  0.7638700000000003  0.28728  1.0000
  H   H16       1.0  0.94935  0.18760000000000002  0.60973  1.0000
  H   H17       1.0  0.85282  0.14434  0.50423  1.0000
  H   H18       1.0  0.22969000000000006  0.8875300000000003  0.48305999999999993  1.0000
  H   H19       1.0  0.33113  0.6395  0.9136999999999998  1.0000
  H   H20       1.0  0.61694  0.28793  0.8888099999999998  1.0000
  H   H21       1.0  0.52917  0.2748  0.78303  1.0000
  H   H22       1.0  0.73745  0.39024  0.9780699999999999  1.0000
  H   H23       1.0  0.3581300000000001  0.6410900000000003  0.00463  1.0000
  H   H24       1.0  0.45518000000000003  0.6749900000000002  0.1102  1.0000
  H   H25       1.0  0.04241999999999999  0.53233  0.60094  1.0000
  H   H26       1.0  0.83348  0.68774  0.5921399999999999  1.0000
  H   H27       1.0  0.8202300000000001  0.6741100000000002  0.78699  1.0000
  H   H28       1.0  0.6837400000000001  0.8425100000000002  0.78702  1.0000
  H   H29       1.0  0.65784  0.8168500000000001  0.59235  1.0000
  H   H30       1.0  0.4542000000000001  0.9785200000000002  0.60161  1.0000
  H   H31       1.0  0.18237999999999993  0.87488  0.9139299999999999  1.0000
  H   H32       1.0  0.8844099999999998  0.21613  0.8936099999999999  1.0000
  H   H33       1.0  0.96925  0.23613000000000006  0.78728  1.0000
  H   H34       1.0  0.05060000000000004  0.8124  0.10972999999999998  1.0000
  H   H35       1.0  0.14717999999999995  0.8557  0.00423  1.0000
  H   H36       1.0  0.77032  0.11251  0.98305  1.0000
  C   C1        1.0  0.61605  0.44285  0.38768  1.0000
  C   C2        1.0  0.51113  0.52577  0.4153  1.0000
  C   C3        1.0  0.45715999999999996  0.6326400000000002  0.37427999999999995  1.0000
  C   C4        1.0  0.50456  0.64017  0.31468  1.0000
  C   C5        1.0  0.3369400000000001  0.5498900000000001  0.50495  1.0000
  C   C6        1.0  0.4672499999999999  0.49737  0.47767  1.0000
  C   C7        1.0  0.54225  0.40939  0.51853  1.0000
  C   C8        1.0  0.49076000000000003  0.3913000000000001  0.57783  1.0000
  C   C9        1.0  0.01872000000000003  0.4361500000000001  0.14049999999999999  1.0000
  C   C10       1.0  0.13373  0.34771  0.13628  1.0000
  C   C11       1.0  0.19643  0.29731  0.18960999999999997  1.0000
  C   C12       1.0  0.13818000000000005  0.3531900000000001  0.24288999999999994  1.0000
  C   C13       1.0  0.3596  0.13202  0.24297999999999997  1.0000
  C   C14       1.0  0.3055299999999999  0.19182  0.18965  1.0000
  C   C15       1.0  0.37128  0.14411000000000002  0.13647  1.0000
  C   C16       1.0  0.48344  0.05234  0.14099  1.0000
  C   C17       1.0  0.87494  0.04501  0.38882999999999995  1.0000
  C   C18       1.0  0.98251  0.9675  0.41771999999999987  1.0000
  C   C19       1.0  0.03968999999999999  0.86018  0.37791  1.0000
  C   C20       1.0  0.99422  0.849  0.31807  1.0000
  C   C21       1.0  0.00283  0.11757  0.57855  1.0000
  C   C22       1.0  0.95124  0.09362  0.51926  1.0000
  C   C23       1.0  0.02594  0.00139  0.4799199999999999  1.0000
  C   C24       1.0  0.15579  0.95101  0.50855  1.0000
  C   C25       1.0  0.3839  0.55712  0.88768  1.0000
  C   C26       1.0  0.48883  0.47421000000000013  0.9152999999999999  1.0000
  C   C27       1.0  0.54283  0.36737  0.87427  1.0000
  C   C28       1.0  0.49545000000000006  0.3598500000000001  0.8146899999999999  1.0000
  C   C29       1.0  0.66304  0.45007  0.00495  1.0000
  C   C30       1.0  0.53271  0.50259  0.9776599999999998  1.0000
  C   C31       1.0  0.45774  0.5905700000000003  0.018529999999999998  1.0000
  C   C32       1.0  0.50925  0.6086700000000003  0.07781999999999999  1.0000
  C   C33       1.0  0.9813500000000001  0.5639300000000003  0.64052  1.0000
  C   C34       1.0  0.8663  0.65233  0.63629  1.0000
  C   C35       1.0  0.8035900000000001  0.70271  0.68962  1.0000
  C   C36       1.0  0.86184  0.6468400000000002  0.7429099999999998  1.0000
  C   C37       1.0  0.64042  0.86801  0.7429899999999999  1.0000
  C   C38       1.0  0.69447  0.80819  0.68966  1.0000
  C   C39       1.0  0.62869  0.85585  0.63648  1.0000
  C   C40       1.0  0.5165200000000001  0.9476000000000002  0.6409999999999999  1.0000
  C   C41       1.0  0.1251400000000001  0.9550800000000003  0.88882  1.0000
  C   C42       1.0  0.01753  0.03255  0.9177199999999998  1.0000
  C   C43       1.0  0.96032  0.13984  0.8778899999999998  1.0000
  C   C44       1.0  0.005759999999999997  0.15102  0.81808  1.0000
  C   C45       1.0  0.99714  0.8824500000000001  0.07855  1.0000
  C   C46       1.0  0.04876000000000011  0.9064100000000003  0.01926  1.0000
  C   C47       1.0  0.9740699999999999  0.9986600000000001  0.9799199999999998  1.0000
  C   C48       1.0  0.84422  0.04902  0.00854  1.0000
  N   N1        1.0  0.59916  0.54889  0.29079  1.0000
  N   N2        1.0  0.65566  0.4505700000000001  0.32973  1.0000
  N   N3        1.0  0.3707499999999999  0.4534  0.60062  1.0000
  N   N4        1.0  0.2908999999999999  0.5302  0.56242  1.0000
  N   N5        1.0  0.96214  0.47942  0.19283  1.0000
  N   N6        1.0  0.025929999999999998  0.43722  0.24513  1.0000
  N   N7        1.0  0.47  0.04587  0.24545999999999998  1.0000
  N   N8        1.0  0.53547  0.00457  0.19338999999999995  1.0000
  N   N9        1.0  0.8374999999999999  0.03444  0.33066  1.0000
  N   N10       1.0  0.8990300000000001  0.93776  0.29279  1.0000
  N   N11       1.0  0.12253  0.05735000000000001  0.6027  1.0000
  N   N12       1.0  0.2016800000000001  0.9761600000000002  0.56596  1.0000
  N   N13       1.0  0.40085  0.45113  0.79078  1.0000
  N   N14       1.0  0.34432  0.54943  0.8297199999999998  1.0000
  N   N15       1.0  0.62927  0.5465900000000001  0.10061999999999999  1.0000
  N   N16       1.0  0.7090900000000001  0.4697800000000001  0.06240999999999999  1.0000
  N   N17       1.0  0.03791  0.52063  0.69285  1.0000
  N   N18       1.0  0.97409  0.56281  0.74515  1.0000
  N   N19       1.0  0.53002  0.95416  0.74547  1.0000
  N   N20       1.0  0.46452  0.99543  0.6934  1.0000
  N   N21       1.0  0.16254999999999994  0.96563  0.8306499999999999  1.0000
  N   N22       1.0  0.10098  0.06228  0.7927799999999998  1.0000
  N   N23       1.0  0.87743  0.94268  0.10269  1.0000
  N   N24       1.0  0.79831  0.02386  0.06595  1.0000
