data_image0
_chemical_formula_structural       Zn4H48C44N8O8
_chemical_formula_sum              "Zn4 H48 C44 N8 O8"
_cell_length_a       7.82361
_cell_length_b       12.247620000000001
_cell_length_c       18.979509999999998
_cell_angle_alpha    90.08768999999998
_cell_angle_beta     90.00759999999998
_cell_angle_gamma    89.85074

_space_group_name_H-M_alt    "P 1"
_space_group_IT_number       1

loop_
  _space_group_symop_operation_xyz
  'x, y, z'

loop_
  _atom_site_type_symbol
  _atom_site_label
  _atom_site_symmetry_multiplicity
  _atom_site_fract_x
  _atom_site_fract_y
  _atom_site_fract_z
  _atom_site_occupancy
  Zn  Zn1       1.0  0.07869  0.17287  0.08065  1.0000
  Zn  Zn2       1.0  0.4142999999999999  0.82702  0.58328  1.0000
  Zn  Zn3       1.0  0.9145099999999998  0.67486  0.4177800000000001  1.0000
  Zn  Zn4       1.0  0.57961  0.32681  0.91951  1.0000
  H   H1        1.0  0.81463  0.91011  0.96139  1.0000
  H   H2        1.0  0.6898199999999998  0.9419399999999999  0.88073  1.0000
  H   H3        1.0  0.7584499999999997  0.00034  0.06975  1.0000
  H   H4        1.0  0.53403  0.017039999999999996  0.08087000000000003  1.0000
  H   H5        1.0  0.6634399999999998  0.13227  0.06428  1.0000
  H   H6        1.0  0.70748  0.023519999999999996  0.7828700000000002  1.0000
  H   H7        1.0  0.6869199999999998  0.89289  0.68837  1.0000
  H   H8        1.0  0.24355  0.0362  0.6090000000000001  1.0000
  H   H9        1.0  0.24068999999999993  0.17388999999999996  0.70264  1.0000
  H   H10       1.0  0.67679  0.13858  0.86627  1.0000
  H   H11       1.0  0.39453  0.04208  0.91005  1.0000
  H   H12       1.0  0.34046  0.22996  0.82269  1.0000
  H   H13       1.0  0.6826799999999997  0.09134  0.46098  1.0000
  H   H14       1.0  0.8077  0.05926  0.3803000000000001  1.0000
  H   H15       1.0  0.73898  0.00233  0.5693100000000001  1.0000
  H   H16       1.0  0.9635299999999998  0.98613  0.58047  1.0000
  H   H17       1.0  0.8346499999999998  0.87052  0.5642300000000001  1.0000
  H   H18       1.0  0.7917099999999998  0.97826  0.28241  1.0000
  H   H19       1.0  0.8075399999999999  0.10602999999999999  0.18664000000000003  1.0000
  H   H20       1.0  0.25334  0.9647399999999998  0.10754000000000001  1.0000
  H   H21       1.0  0.2606199999999999  0.8299699999999999  0.20250000000000007  1.0000
  H   H22       1.0  0.8221099999999998  0.8637699999999999  0.36513  1.0000
  H   H23       1.0  0.10398999999999997  0.95967  0.41017  1.0000
  H   H24       1.0  0.15960999999999995  0.7729  0.32209  1.0000
  H   H25       1.0  0.18520999999999996  0.41097  0.5389200000000001  1.0000
  H   H26       1.0  0.3108099999999999  0.44194  0.6196  1.0000
  H   H27       1.0  0.23992999999999995  0.50118  0.43107000000000006  1.0000
  H   H28       1.0  0.46392  0.51824  0.4194700000000001  1.0000
  H   H29       1.0  0.3332699999999999  0.63324  0.43674  1.0000
  H   H30       1.0  0.29069  0.52206  0.71789  1.0000
  H   H31       1.0  0.30771  0.39373  0.81339  1.0000
  H   H32       1.0  0.75322  0.5339  0.89246  1.0000
  H   H33       1.0  0.7594499999999997  0.6692  0.79783  1.0000
  H   H34       1.0  0.32168  0.63746  0.63496  1.0000
  H   H35       1.0  0.6049999999999998  0.54203  0.59036  1.0000
  H   H36       1.0  0.6582099999999997  0.72773  0.67919  1.0000
  H   H37       1.0  0.31553  0.58921  0.03907000000000001  1.0000
  H   H38       1.0  0.19069999999999995  0.55816  0.11987  1.0000
  H   H39       1.0  0.25702999999999987  0.49912  0.93057  1.0000
  H   H40       1.0  0.03244  0.48278999999999994  0.9200200000000001  1.0000
  H   H41       1.0  0.1624  0.36736  0.93671  1.0000
  H   H42       1.0  0.20788999999999994  0.47665  0.21748000000000003  1.0000
  H   H43       1.0  0.18726  0.608  0.31163  1.0000
  H   H44       1.0  0.7440299999999997  0.46626  0.39141  1.0000
  H   H45       1.0  0.7416499999999998  0.32799  0.29811  1.0000
  H   H46       1.0  0.17753999999999995  0.3604399999999999  0.13424000000000003  1.0000
  H   H47       1.0  0.8958199999999997  0.45948999999999995  0.09153  1.0000
  H   H48       1.0  0.8420899999999997  0.27032  0.17864  1.0000
  C   C1        1.0  0.7133299999999998  0.9571799999999999  0.9364200000000001  1.0000
  C   C2        1.0  0.6214299999999998  0.02977  0.97361  1.0000
  C   C3        1.0  0.6461899999999998  0.04553  0.05130000000000001  1.0000
  C   C4        1.0  0.4850799999999999  0.09758999999999998  0.9358500000000001  1.0000
  C   C5        1.0  0.37984  0.16761  0.9867800000000001  1.0000
  C   C6        1.0  0.44918999999999987  0.17565  0.81702  1.0000
  C   C7        1.0  0.4625999999999999  0.10756  0.75983  1.0000
  C   C8        1.0  0.59624  0.02757  0.7486  1.0000
  C   C9        1.0  0.58685  0.9537499999999999  0.6946500000000001  1.0000
  C   C10       1.0  0.3393099999999999  0.03465  0.6505400000000001  1.0000
  C   C11       1.0  0.33893999999999996  0.11084999999999998  0.70295  1.0000
  C   C12       1.0  0.78401  0.04424999999999999  0.43596  1.0000
  C   C13       1.0  0.87632  0.97213  0.47326000000000007  1.0000
  C   C14       1.0  0.8514899999999997  0.95711  0.55099  1.0000
  C   C15       1.0  0.012859999999999996  0.9040999999999999  0.43554  1.0000
  C   C16       1.0  0.11594999999999997  0.83313  0.48663000000000006  1.0000
  C   C17       1.0  0.05037  0.8268  0.31635  1.0000
  C   C18       1.0  0.03652  0.8945199999999999  0.25907  1.0000
  C   C19       1.0  0.9019799999999998  0.9737299999999998  0.24766  1.0000
  C   C20       1.0  0.9090199999999998  0.046189999999999995  0.19299  1.0000
  C   C21       1.0  0.15753  0.96647  0.14904  1.0000
  C   C22       1.0  0.16034999999999994  0.8916999999999999  0.20224  1.0000
  C   C23       1.0  0.28659  0.45759  0.56403  1.0000
  C   C24       1.0  0.37794  0.53025  0.527  1.0000
  C   C25       1.0  0.3519099999999999  0.5465  0.44943000000000005  1.0000
  C   C26       1.0  0.51382  0.59793  0.5650100000000001  1.0000
  C   C27       1.0  0.6180899999999998  0.6689099999999999  0.51455  1.0000
  C   C28       1.0  0.5491199999999998  0.6739399999999999  0.68446  1.0000
  C   C29       1.0  0.5353499999999998  0.60544  0.7413300000000002  1.0000
  C   C30       1.0  0.4012799999999999  0.52625  0.75249  1.0000
  C   C31       1.0  0.40886  0.45347999999999994  0.8070200000000002  1.0000
  C   C32       1.0  0.6572699999999998  0.53259  0.85101  1.0000
  C   C33       1.0  0.65944  0.60767  0.79803  1.0000
  C   C34       1.0  0.21394999999999995  0.54276  0.06415  1.0000
  C   C35       1.0  0.12131999999999997  0.47061  0.02714  1.0000
  C   C36       1.0  0.14515  0.45427999999999996  0.94941  1.0000
  C   C37       1.0  0.9849799999999997  0.40339999999999987  0.06516  1.0000
  C   C38       1.0  0.8788599999999998  0.33427  0.01409  1.0000
  C   C39       1.0  0.95047  0.32464  0.1839  1.0000
  C   C40       1.0  0.9636099999999997  0.39325  0.24087000000000003  1.0000
  C   C41       1.0  0.09677999999999998  0.47317  0.25183  1.0000
  C   C42       1.0  0.08721999999999998  0.54739  0.30563  1.0000
  C   C43       1.0  0.8399599999999998  0.46736  0.34995  1.0000
  C   C44       1.0  0.8398699999999998  0.39073999999999987  0.29772  1.0000
  N   N1        1.0  0.45784999999999987  0.95088  0.6456000000000001  1.0000
  N   N2        1.0  0.55912  0.16984  0.8788000000000001  1.0000
  N   N3        1.0  0.03669  0.04884  0.14333  1.0000
  N   N4        1.0  0.9394399999999998  0.8322599999999999  0.37790000000000007  1.0000
  N   N5        1.0  0.5367  0.45048  0.85659  1.0000
  N   N6        1.0  0.43891  0.6692699999999998  0.62267  1.0000
  N   N7        1.0  0.9583499999999998  0.55092  0.35478  1.0000
  N   N8        1.0  0.059459999999999985  0.33003  0.12183000000000002  1.0000
  O   O1        1.0  0.26731  0.11547999999999999  0.02156  1.0000
  O   O2        1.0  0.4078699999999999  0.26937  0.9925200000000002  1.0000
  O   O3        1.0  0.22851  0.88435  0.5221  1.0000
  O   O4        1.0  0.08564999999999998  0.73161  0.49191000000000007  1.0000
  O   O5        1.0  0.7279  0.61685  0.47795  1.0000
  O   O6        1.0  0.59184  0.77116  0.5110200000000001  1.0000
  O   O7        1.0  0.7663  0.38665  0.9791600000000001  1.0000
  O   O8        1.0  0.90739  0.23251  0.00782  1.0000
