data_image0
_chemical_formula_structural       Ga6H28C48O30
_chemical_formula_sum              "Ga6 H28 C48 O30"
_cell_length_a       6.99335
_cell_length_b       21.419269999999997
_cell_length_c       21.33976
_cell_angle_alpha    120.1122
_cell_angle_beta     90.02148
_cell_angle_gamma    90.00401000000001

_symmetry_space_group_name_H-M    'P 1'
_symmetry_Int_Tables_number       1

loop_
  _symmetry_equiv_pos_as_xyz
  'x,y,z'

loop_
  _atom_site_type_symbol
  _atom_site_label
  _atom_site_symmetry_multiplicity
  _atom_site_fract_x
  _atom_site_fract_y
  _atom_site_fract_z
  _atom_site_occupancy
  Ga  Ga1       1.0  1.55033306281754e-20  0.5  0.5  1.0000
  Ga  Ga2       1.0  0.5  0.5  0.5  1.0000
  Ga  Ga3       1.0  0.5  0.0  0.5  1.0000
  Ga  Ga4       1.0  0.0  0.0  0.5  1.0000
  Ga  Ga5       1.0  0.99999  0.99997  0.0  1.0000
  Ga  Ga6       1.0  0.5  1e-05  0.0  1.0000
  H   H1        1.0  0.94383  0.32293  0.52811  1.0000
  H   H2        1.0  0.94422  0.67845  0.70412  1.0000
  H   H3        1.0  0.94389  0.7942099999999999  0.82456  1.0000
  H   H4        1.0  0.24919  0.49818  0.41257  1.0000
  H   H5        1.0  0.44392999999999994  0.67699  0.4719400000000001  1.0000
  H   H6        1.0  0.44405999999999995  0.32143  0.2958  1.0000
  H   H7        1.0  0.44374  0.20565999999999998  0.17532  1.0000
  H   H8        1.0  0.75081  0.50183  0.58743  1.0000
  H   H9        1.0  0.55636  0.20525  0.52742  1.0000
  H   H10       1.0  0.55602  0.025529999999999997  0.70431  1.0000
  H   H11       1.0  0.55589  0.03087000000000002  0.82507  1.0000
  H   H12       1.0  0.24913  0.91424  0.41283  1.0000
  H   H13       1.0  0.05606  0.79484  0.4726  1.0000
  H   H14       1.0  0.05611  0.97442  0.29579  1.0000
  H   H15       1.0  0.05588  0.9691200000000001  0.17503  1.0000
  H   H16       1.0  0.75086  0.08576  0.58717  1.0000
  H   H17       1.0  0.05616  0.67708  0.47190000000000004  1.0000
  H   H18       1.0  0.05578  0.32155  0.29588  1.0000
  H   H19       1.0  0.0561  0.20579  0.17544  1.0000
  H   H20       1.0  0.55606  0.3230199999999999  0.52807  1.0000
  H   H21       1.0  0.55594  0.67857  0.70421  1.0000
  H   H22       1.0  0.55626  0.79434  0.82469  1.0000
  H   H23       1.0  0.44363  0.79476  0.47258  1.0000
  H   H24       1.0  0.44397  0.97448  0.2957  1.0000
  H   H25       1.0  0.4441  0.96913  0.17494  1.0000
  H   H26       1.0  0.94393  0.20517  0.5274  1.0000
  H   H27       1.0  0.94388  0.02558000000000001  0.70421  1.0000
  H   H28       1.0  0.94411  0.03088000000000003  0.82497  1.0000
  C   C1        1.0  0.0764  0.29682  0.52833  1.0000
  C   C2        1.0  0.0764  0.70397  0.73153  1.0000
  C   C3        1.0  0.07604999999999999  0.76778  0.7979600000000001  1.0000
  C   C4        1.0  0.57637  0.70315  0.47167  1.0000
  C   C5        1.0  0.57614  0.29592  0.26838  1.0000
  C   C6        1.0  0.5759  0.23211999999999997  0.20195  1.0000
  C   C7        1.0  0.42372  0.23168  0.52794  1.0000
  C   C8        1.0  0.42372  0.027720000000000022  0.73174  1.0000
  C   C9        1.0  0.42390999999999995  0.030560000000000056  0.79828  1.0000
  C   C10       1.0  0.9235  0.7683599999999999  0.4721  1.0000
  C   C11       1.0  0.92372  0.9722299999999999  0.26835  1.0000
  C   C12       1.0  0.92394  0.96942  0.20181  1.0000
  C   C13       1.0  0.92359  0.7031799999999999  0.47167  1.0000
  C   C14       1.0  0.9236  0.29603  0.26847  1.0000
  C   C15       1.0  0.92395  0.23221999999999998  0.20204  1.0000
  C   C16       1.0  0.42362  0.29686  0.52833  1.0000
  C   C17       1.0  0.42386  0.70408  0.73163  1.0000
  C   C18       1.0  0.4241  0.7678799999999999  0.79805  1.0000
  C   C19       1.0  0.5762799999999998  0.76833  0.47206  1.0000
  C   C20       1.0  0.5762799999999998  0.97228  0.26826  1.0000
  C   C21       1.0  0.57608  0.96945  0.20172  1.0000
  C   C22       1.0  0.0765  0.23164  0.52791  1.0000
  C   C23       1.0  0.07627  0.027769999999999996  0.73165  1.0000
  C   C24       1.0  0.07604999999999999  0.030579999999999993  0.7982  1.0000
  C   C25       1.0  0.24994  0.39690999999999993  0.52302  1.0000
  C   C26       1.0  0.24998  0.32932  0.52764  1.0000
  C   C27       1.0  0.25038  0.60365  0.62617  1.0000
  C   C28       1.0  0.25019  0.6718599999999999  0.69812  1.0000
  C   C29       1.0  0.25005  0.7996399999999999  0.83148  1.0000
  C   C30       1.0  0.25013  0.87059  0.9014  1.0000
  C   C31       1.0  0.75005  0.6030900000000001  0.47698000000000007  1.0000
  C   C32       1.0  0.75001  0.6706900000000001  0.47237000000000007  1.0000
  C   C33       1.0  0.74961  0.3963500000000001  0.37383000000000005  1.0000
  C   C34       1.0  0.74981  0.32814  0.30188  1.0000
  C   C35       1.0  0.74995  0.20036  0.16852  1.0000
  C   C36       1.0  0.74986  0.12941  0.0986  1.0000
  C   C37       1.0  0.24974  0.12584999999999993  0.5218  1.0000
  C   C38       1.0  0.25014  0.19825000000000007  0.5267700000000001  1.0000
  C   C39       1.0  0.25063  0.023339999999999972  0.6265  1.0000
  C   C40       1.0  0.25006  0.026629999999999994  0.69828  1.0000
  C   C41       1.0  0.24995  0.03250999999999998  0.83184  1.0000
  C   C42       1.0  0.24982  0.03220000000000006  0.9021400000000002  1.0000
  C   C43       1.0  0.75025  0.8741599999999999  0.4782100000000001  1.0000
  C   C44       1.0  0.74986  0.80175  0.47323  1.0000
  C   C45       1.0  0.74936  0.9766699999999999  0.3735  1.0000
  C   C46       1.0  0.7499299999999999  0.9733799999999999  0.30172  1.0000
  C   C47       1.0  0.75004  0.9674899999999999  0.16816  1.0000
  C   C48       1.0  0.75018  0.9678  0.09787  1.0000
  O   O1        1.0  0.08594  0.42215  0.52101  1.0000
  O   O2        1.0  0.08618999999999999  0.57776  0.59939  1.0000
  O   O3        1.0  0.08609  0.89742  0.92649  1.0000
  O   O4        1.0  0.58611  0.57772  0.47879000000000005  1.0000
  O   O5        1.0  0.58547  0.42219  0.40063  1.0000
  O   O6        1.0  0.58576  0.10272  0.0734  1.0000
  O   O7        1.0  0.41327  0.09898  0.5212  1.0000
  O   O8        1.0  0.41508999999999996  0.02163000000000001  0.59951  1.0000
  O   O9        1.0  0.4138  0.030599999999999974  0.92736  1.0000
  O   O10       1.0  0.91456  0.9017199999999999  0.48151  1.0000
  O   O11       1.0  0.91319  0.9764400000000001  0.40001  1.0000
  O   O12       1.0  0.9142399999999998  0.96875  0.07241  1.0000
  O   O13       1.0  0.91406  0.57786  0.47899  1.0000
  O   O14       1.0  0.9138099999999998  0.42224999999999996  0.40061  1.0000
  O   O15       1.0  0.9138899999999999  0.10256999999999998  0.0735  1.0000
  O   O16       1.0  0.41389  0.42228  0.52121  1.0000
  O   O17       1.0  0.4145299999999999  0.57781  0.59937  1.0000
  O   O18       1.0  0.41422  0.89729  0.9266  1.0000
  O   O19       1.0  0.58672  0.90103  0.4788  1.0000
  O   O20       1.0  0.5849  0.97837  0.40049  1.0000
  O   O21       1.0  0.58621  0.96941  0.07265  1.0000
  O   O22       1.0  0.08544  0.09828  0.51849  1.0000
  O   O23       1.0  0.08681  0.023560000000000005  0.59999  1.0000
  O   O24       1.0  0.08577  0.031240000000000007  0.9276  1.0000
  O   O25       1.0  0.24934  0.50114  0.45949  1.0000
  O   O26       1.0  0.7506599999999999  0.49887  0.54052  1.0000
  O   O27       1.0  0.24924999999999997  0.95819  0.45974  1.0000
  O   O28       1.0  0.7507499999999998  0.04180999999999997  0.54026  1.0000
  O   O29       1.0  0.24945  0.01997  0.04159  1.0000
  O   O30       1.0  0.7505299999999999  0.98003  0.9584199999999999  1.0000
