data_image0
_chemical_formula_structural       Co4H42C50N8O18
_chemical_formula_sum              "Co4 H42 C50 N8 O18"
_cell_length_a       10.40237
_cell_length_b       11.358630000000002
_cell_length_c       12.60467
_cell_angle_alpha    87.85119
_cell_angle_beta     74.42385
_cell_angle_gamma    73.69752

_symmetry_space_group_name_H-M    'P 1'
_symmetry_Int_Tables_number       1

loop_
  _symmetry_equiv_pos_as_xyz
  'x,y,z'

loop_
  _atom_site_type_symbol
  _atom_site_label
  _atom_site_symmetry_multiplicity
  _atom_site_fract_x
  _atom_site_fract_y
  _atom_site_fract_z
  _atom_site_occupancy
  Co  Co1       1.0  0.05337999999999994  0.60738  0.98486  1.0000
  Co  Co2       1.0  0.16979999999999998  0.44406  0.78405  1.0000
  Co  Co3       1.0  0.9471500000000002  0.39539  0.012979999999999998  1.0000
  Co  Co4       1.0  0.8313000000000001  0.55897  0.21052  1.0000
  H   H1        1.0  0.14478000000000005  0.8052299999999999  0.09483  1.0000
  H   H2        1.0  0.7735600000000001  0.82159  0.01299  1.0000
  H   H3        1.0  0.73899  0.04082  0.12708  1.0000
  H   H4        1.0  0.95447  0.13007  0.15042  1.0000
  H   H5        1.0  0.09475999999999998  0.01621  0.17595  1.0000
  H   H6        1.0  0.8091200000000002  0.24687  0.30459  1.0000
  H   H7        1.0  0.68067  0.27304  0.50034  1.0000
  H   H8        1.0  0.8602800000000002  0.89027  0.54356  1.0000
  H   H9        1.0  0.98666  0.8624399999999999  0.3449  1.0000
  H   H10       1.0  0.5089500000000001  0.33433  0.74534  1.0000
  H   H11       1.0  0.22357999999999997  0.18061  0.66077  1.0000
  H   H12       1.0  0.4845000000000001  0.008470000000000004  0.60822  1.0000
  H   H13       1.0  0.70798  0.012609999999999998  0.69883  1.0000
  H   H14       1.0  0.7257100000000001  0.164  0.6973799999999999  1.0000
  H   H15       1.0  0.9989300000000001  0.65045  0.43817  1.0000
  H   H16       1.0  0.3595700000000001  0.42911  0.53205  1.0000
  H   H17       1.0  0.3581599999999999  0.4607  0.18765  1.0000
  H   H18       1.0  0.9025800000000002  0.62857  0.62059  1.0000
  H   H19       1.0  0.98464  0.75  0.59888  1.0000
  H   H20       1.0  0.5128700000000003  0.30764  0.17244  1.0000
  H   H21       1.0  0.6405500000000001  0.21324999999999997  0.23112000000000002  1.0000
  H   H22       1.0  0.8637  0.18964  0.90167  1.0000
  H   H23       1.0  0.23497999999999997  0.1675  0.9848200000000001  1.0000
  H   H24       1.0  0.26524000000000014  0.9483800000000001  0.87311  1.0000
  H   H25       1.0  0.04881000000000007  0.8632099999999999  0.84653  1.0000
  H   H26       1.0  0.9084600000000002  0.9791199999999999  0.8233  1.0000
  H   H27       1.0  0.19431000000000004  0.74877  0.6906900000000001  1.0000
  H   H28       1.0  0.32171  0.7262799999999999  0.49473  1.0000
  H   H29       1.0  0.13825  0.10974  0.45684  1.0000
  H   H30       1.0  0.013019999999999974  0.13377  0.6559  1.0000
  H   H31       1.0  0.49345000000000033  0.66906  0.2513  1.0000
  H   H32       1.0  0.7770600000000001  0.8220099999999999  0.33907  1.0000
  H   H33       1.0  0.51574  0.9935  0.39257  1.0000
  H   H34       1.0  0.2925800000000003  0.9901699999999999  0.30035  1.0000
  H   H35       1.0  0.27655000000000013  0.8382999999999999  0.29944  1.0000
  H   H36       1.0  0.9993400000000001  0.34729  0.56079  1.0000
  H   H37       1.0  0.63695  0.57415  0.47211  1.0000
  H   H38       1.0  0.64723  0.54251  0.81456  1.0000
  H   H39       1.0  0.09039  0.37695  0.37742  1.0000
  H   H40       1.0  0.014000000000000026  0.2518  0.39816  1.0000
  H   H41       1.0  0.48375999999999997  0.68504  0.83608  1.0000
  H   H42       1.0  0.36183000000000004  0.78881  0.7773000000000001  1.0000
  C   C1        1.0  0.039389999999999974  0.83893  0.08801  1.0000
  C   C2        1.0  0.843  0.8517599999999999  0.0489  1.0000
  C   C3        1.0  0.82605  0.9595099999999999  0.10388  1.0000
  C   C4        1.0  0.9817400000000001  0.04171  0.18887  1.0000
  C   C5        1.0  0.90607  0.05316  0.3102  1.0000
  C   C6        1.0  0.81899  0.16763999999999998  0.35596  1.0000
  C   C7        1.0  0.7480200000000002  0.18293999999999994  0.4675000000000001  1.0000
  C   C8        1.0  0.76352  0.08308  0.53592  1.0000
  C   C9        1.0  0.84926  0.9680899999999999  0.49043000000000003  1.0000
  C   C10       1.0  0.9206800000000002  0.95292  0.37864  1.0000
  C   C11       1.0  0.46455  0.26973  0.71742  1.0000
  C   C12       1.0  0.3216000000000001  0.18640999999999996  0.6704099999999998  1.0000
  C   C13       1.0  0.44921  0.1006  0.64473  1.0000
  C   C14       1.0  0.68901  0.10028999999999999  0.6575  1.0000
  C   C15       1.0  0.09284999999999999  0.59186  0.22282  1.0000
  C   C16       1.0  0.17524  0.56211  0.30645  1.0000
  C   C17       1.0  0.10665000000000005  0.59607  0.41732  1.0000
  C   C18       1.0  0.17527999999999996  0.54974  0.49779000000000007  1.0000
  C   C19       1.0  0.30905  0.4681  0.46851000000000004  1.0000
  C   C20       1.0  0.37521  0.43415  0.35722  1.0000
  C   C21       1.0  0.31139  0.48490999999999995  0.27476  1.0000
  C   C22       1.0  0.9812  0.66426  0.64111  1.0000
  C   C23       1.0  0.9396099999999998  0.69317  0.7650500000000001  1.0000
  C   C24       1.0  0.5784100000000001  0.3083  0.22764  1.0000
  C   C25       1.0  0.68047  0.38363  0.17995000000000003  1.0000
  C   C26       1.0  0.96907  0.15497000000000002  0.9084500000000001  1.0000
  C   C27       1.0  0.1645800000000001  0.13907  0.9486800000000001  1.0000
  C   C28       1.0  0.17981  0.03101  0.89497  1.0000
  C   C29       1.0  0.021679999999999956  0.9523599999999999  0.8093600000000001  1.0000
  C   C30       1.0  0.09586999999999996  0.94261  0.68784  1.0000
  C   C31       1.0  0.18355000000000002  0.8289799999999999  0.6406  1.0000
  C   C32       1.0  0.25388  0.81576  0.52895  1.0000
  C   C33       1.0  0.23725000000000004  0.91688  0.4620000000000001  1.0000
  C   C34       1.0  0.15053000000000002  0.031  0.50891  1.0000
  C   C35       1.0  0.07972000000000001  0.04403  0.62082  1.0000
  C   C36       1.0  0.5371799999999999  0.73349  0.28025  1.0000
  C   C37       1.0  0.6792799999999999  0.81623  0.32896  1.0000
  C   C38       1.0  0.55152  0.90192  0.35488  1.0000
  C   C39       1.0  0.3122400000000001  0.9018  0.34052  1.0000
  C   C40       1.0  0.9082200000000001  0.40779  0.7784200000000001  1.0000
  C   C41       1.0  0.82629  0.43862  0.69434  1.0000
  C   C42       1.0  0.89237  0.4038399999999999  0.583  1.0000
  C   C43       1.0  0.82172  0.4511899999999999  0.50358  1.0000
  C   C44       1.0  0.6887800000000001  0.53452  0.53476  1.0000
  C   C45       1.0  0.6251200000000002  0.56909  0.64633  1.0000
  C   C46       1.0  0.69105  0.5175699999999999  0.72734  1.0000
  C   C47       1.0  0.013280000000000002  0.33880999999999994  0.35717  1.0000
  C   C48       1.0  0.05528  0.31001  0.23299  1.0000
  C   C49       1.0  0.4203999999999999  0.69211  0.77781  1.0000
  C   C50       1.0  0.31399  0.61875  0.81709  1.0000
  N   N1        1.0  0.9763900000000001  0.77786  0.03972  1.0000
  N   N2        1.0  0.95087  0.94992  0.12839  1.0000
  N   N3        1.0  0.5386600000000002  0.15449  0.6759500000000002  1.0000
  N   N4        1.0  0.33193  0.2914  0.71584  1.0000
  N   N5        1.0  0.032640000000000044  0.21537  0.95651  1.0000
  N   N6        1.0  0.05482000000000003  0.04248  0.86991  1.0000
  N   N7        1.0  0.4626  0.84837  0.32243  1.0000
  N   N8        1.0  0.6695200000000001  0.71177  0.28241  1.0000
  O   O1        1.0  0.11706000000000003  0.44382999999999995  0.93694  1.0000
  O   O2        1.0  0.95985  0.63185  0.26354  1.0000
  O   O3        1.0  0.15605  0.5716  0.12191  1.0000
  O   O4        1.0  0.11670000000000003  0.57685  0.6085  1.0000
  O   O5        1.0  0.83554  0.78082  0.80307  1.0000
  O   O6        1.0  0.019700000000000013  0.62426  0.81938  1.0000
  O   O7        1.0  0.4997500000000001  0.34426  0.33856  1.0000
  O   O8        1.0  0.67502  0.47498  0.23787  1.0000
  O   O9        1.0  0.7644800000000002  0.3437199999999999  0.08716  1.0000
  O   O10       1.0  0.89  0.57735  0.06351  1.0000
  O   O11       1.0  0.04119000000000002  0.36496999999999996  0.73999  1.0000
  O   O12       1.0  0.8446  0.42915999999999993  0.8793  1.0000
  O   O13       1.0  0.8762100000000005  0.42331  0.39236  1.0000
  O   O14       1.0  0.15711  0.22012  0.19648  1.0000
  O   O15       1.0  0.9793500000000003  0.38112999999999997  0.17621  1.0000
  O   O16       1.0  0.5014600000000002  0.66087  0.66672  1.0000
  O   O17       1.0  0.3192400000000001  0.5342  0.7521099999999998  1.0000
  O   O18       1.0  0.22804000000000002  0.6548199999999998  0.9105300000000001  1.0000
