data_image0
_chemical_formula_structural       Zn8H24C48O26
_chemical_formula_sum              "Zn8 H24 C48 O26"
_cell_length_a       10.55594
_cell_length_b       10.695259999999998
_cell_length_c       19.98136
_cell_angle_alpha    105.19628999999999
_cell_angle_beta     90.11402
_cell_angle_gamma    119.58358

_symmetry_space_group_name_H-M    'P 1'
_symmetry_Int_Tables_number       1

loop_
  _symmetry_equiv_pos_as_xyz
  'x,y,z'

loop_
  _atom_site_type_symbol
  _atom_site_label
  _atom_site_symmetry_multiplicity
  _atom_site_fract_x
  _atom_site_fract_y
  _atom_site_fract_z
  _atom_site_occupancy
  Zn  Zn1       1.0  0.8745000000000002  0.14484999999999995  0.7706  1.0000
  Zn  Zn2       1.0  0.017780000000000008  0.4371300000000001  0.90398  1.0000
  Zn  Zn3       1.0  0.16234000000000004  0.43659  0.75956  1.0000
  Zn  Zn4       1.0  0.8630200000000002  0.4437100000000001  0.7694100000000003  1.0000
  Zn  Zn5       1.0  0.26823  0.14244  0.27106  1.0000
  Zn  Zn6       1.0  0.41878  0.43132  0.403  1.0000
  Zn  Zn7       1.0  0.2697000000000001  0.43243000000000004  0.25935  1.0000
  Zn  Zn8       1.0  0.57626  0.43848  0.26783  1.0000
  H   H1        1.0  0.20225  0.23834000000000002  0.54732  1.0000
  H   H2        1.0  0.90415  0.8802000000000001  0.3653  1.0000
  H   H3        1.0  0.7141799999999999  0.7777700000000001  0.44077000000000005  1.0000
  H   H4        1.0  0.7735300000000002  0.9003100000000002  0.5703100000000001  1.0000
  H   H5        1.0  0.5675800000000001  0.52248  0.85426  1.0000
  H   H6        1.0  0.77461  0.57128  0.05241  1.0000
  H   H7        1.0  0.57265  0.58888  0.10990000000000001  1.0000
  H   H8        1.0  0.36515000000000003  0.56959  0.03859  1.0000
  H   H9        1.0  0.41812000000000005  0.8535100000000001  0.7307400000000001  1.0000
  H   H10       1.0  0.42767  0.2681000000000001  0.74908  1.0000
  H   H11       1.0  0.16065000000000002  0.14233  0.75899  1.0000
  H   H12       1.0  0.019720000000000053  0.8699600000000001  0.74926  1.0000
  H   H13       1.0  0.035950000000000024  0.23966000000000004  0.04771  1.0000
  H   H14       1.0  0.9787999999999999  0.8849199999999999  0.86518  1.0000
  H   H15       1.0  0.06767999999999999  0.7826600000000001  0.94045  1.0000
  H   H16       1.0  0.12768000000000002  0.90206  0.07035000000000001  1.0000
  H   H17       1.0  0.95526  0.51833  0.35409  1.0000
  H   H18       1.0  0.7965000000000001  0.5700200000000001  0.5514500000000001  1.0000
  H   H19       1.0  0.01672000000000001  0.59092  0.61024  1.0000
  H   H20       1.0  0.20626  0.57232  0.54036  1.0000
  H   H21       1.0  0.43232  0.85086  0.23164  1.0000
  H   H22       1.0  0.8358200000000002  0.26541  0.24704  1.0000
  H   H23       1.0  0.97832  0.14145  0.25825  1.0000
  H   H24       1.0  0.8485400000000001  0.87028  0.25035  1.0000
  C   C1        1.0  0.01927000000000002  0.15204  0.64408  1.0000
  C   C2        1.0  0.17608  0.13333  0.40671  1.0000
  C   C3        1.0  0.99153  0.07590999999999998  0.56699  1.0000
  C   C4        1.0  0.09656000000000006  0.13617000000000007  0.52437  1.0000
  C   C5        1.0  0.06531000000000003  0.06462000000000004  0.45174000000000003  1.0000
  C   C6        1.0  0.9277000000000001  0.9343799999999999  0.42166  1.0000
  C   C7        1.0  0.82196  0.8765300000000001  0.46409  1.0000
  C   C8        1.0  0.85417  0.9451400000000001  0.53648  1.0000
  C   C9        1.0  0.32593000000000005  0.52416  0.8979  1.0000
  C   C10       1.0  0.8008300000000002  0.53138  0.91356  1.0000
  C   C11       1.0  0.4529599999999999  0.5443999999999999  0.9418300000000001  1.0000
  C   C12       1.0  0.56832  0.5372200000000001  0.9101600000000001  1.0000
  C   C13       1.0  0.6840600000000001  0.5470200000000001  0.9499400000000001  1.0000
  C   C14       1.0  0.6848500000000001  0.56513  0.02214  1.0000
  C   C15       1.0  0.57113  0.57489  0.054020000000000006  1.0000
  C   C16       1.0  0.45536  0.56454  0.01433  1.0000
  C   C17       1.0  0.12955000000000005  0.6831000000000002  0.73788  1.0000
  C   C18       1.0  0.6011100000000001  0.14382999999999999  0.7374  1.0000
  C   C19       1.0  0.20946000000000004  0.84355  0.73844  1.0000
  C   C20       1.0  0.36071  0.9154200000000001  0.73495  1.0000
  C   C21       1.0  0.43888000000000005  0.06754000000000006  0.73775  1.0000
  C   C22       1.0  0.366  0.1492300000000001  0.7456900000000002  1.0000
  C   C23       1.0  0.21610000000000001  0.07824999999999994  0.7508  1.0000
  C   C24       1.0  0.13696  0.92563  0.74615  1.0000
  C   C25       1.0  0.12933000000000006  0.15106000000000003  0.14427000000000004  1.0000
  C   C26       1.0  0.9593100000000002  0.13686000000000004  0.90625  1.0000
  C   C27       1.0  0.0834  0.07652  0.06704  1.0000
  C   C28       1.0  0.03955000000000001  0.13779  0.02446  1.0000
  C   C29       1.0  0.0006699999999999924  0.06782999999999999  0.95167  1.0000
  C   C30       1.0  0.00904000000000005  0.93832  0.92161  1.0000
  C   C31       1.0  0.05733000000000003  0.8803800000000002  0.96396  1.0000
  C   C32       1.0  0.09191000000000002  0.94714  0.03651  1.0000
  C   C33       1.0  0.19871  0.52087  0.39903  1.0000
  C   C34       1.0  0.73017  0.526  0.4119  1.0000
  C   C35       1.0  0.09262000000000001  0.54316  0.44257  1.0000
  C   C36       1.0  0.9698800000000002  0.5349400000000001  0.4101600000000001  1.0000
  C   C37       1.0  0.86359  0.54498  0.44928000000000007  1.0000
  C   C38       1.0  0.8807300000000001  0.56459  0.52164  1.0000
  C   C39       1.0  0.00466000000000006  0.5760700000000001  0.5542900000000001  1.0000
  C   C40       1.0  0.11052000000000009  0.56547  0.51527  1.0000
  C   C41       1.0  0.55053  0.68164  0.2392  1.0000
  C   C42       1.0  0.5371  0.13923  0.23584  1.0000
  C   C43       1.0  0.6313499999999999  0.8421600000000001  0.23951  1.0000
  C   C44       1.0  0.5515600000000002  0.9133  0.23548  1.0000
  C   C45       1.0  0.6245100000000001  0.06475  0.23705000000000004  1.0000
  C   C46       1.0  0.7791100000000001  0.147  0.24457  1.0000
  C   C47       1.0  0.85868  0.07700000000000003  0.25047  1.0000
  C   C48       1.0  0.7860499999999999  0.9248599999999999  0.24685000000000004  1.0000
  O   O1        1.0  0.9275300000000001  0.07612000000000015  0.6798200000000001  1.0000
  O   O2        1.0  0.1303600000000001  0.28637000000000007  0.6687300000000002  1.0000
  O   O3        1.0  0.29461  0.25697  0.43747  1.0000
  O   O4        1.0  0.14373999999999998  0.06472999999999995  0.34033  1.0000
  O   O5        1.0  0.23468000000000006  0.55479  0.92964  1.0000
  O   O6        1.0  0.31747000000000003  0.4759700000000001  0.8310800000000002  1.0000
  O   O7        1.0  0.88693  0.50661  0.94642  1.0000
  O   O8        1.0  0.80646  0.5438100000000001  0.8517500000000001  1.0000
  O   O9        1.0  0.20735000000000003  0.6219  0.73765  1.0000
  O   O10       1.0  0.9894  0.61871  0.73735  1.0000
  O   O11       1.0  0.9795900000000002  0.36728000000000016  0.8008700000000002  1.0000
  O   O12       1.0  0.66443  0.2730200000000001  0.7267500000000002  1.0000
  O   O13       1.0  0.6637799999999999  0.07351999999999989  0.74879  1.0000
  O   O14       1.0  0.14486  0.07546000000000003  0.18028  1.0000
  O   O15       1.0  0.15057  0.28461  0.1687  1.0000
  O   O16       1.0  0.9632  0.2598399999999999  0.93648  1.0000
  O   O17       1.0  0.9245300000000002  0.06862000000000007  0.8398300000000001  1.0000
  O   O18       1.0  0.31975  0.54938  0.4309  1.0000
  O   O19       1.0  0.15835000000000007  0.47257000000000005  0.33221  1.0000
  O   O20       1.0  0.6194  0.50104  0.44474  1.0000
  O   O21       1.0  0.7355999999999999  0.53525  0.34956  1.0000
  O   O22       1.0  0.41151  0.62045  0.23921  1.0000
  O   O23       1.0  0.6261500000000001  0.6171500000000002  0.23857000000000003  1.0000
  O   O24       1.0  0.38497  0.36367  0.29991  1.0000
  O   O25       1.0  0.59924  0.26544  0.22223000000000007  1.0000
  O   O26       1.0  0.40597  0.06986  0.24955000000000002  1.0000
