data_image0
_chemical_formula_structural       Zn8H32C40S4N32O16
_chemical_formula_sum              "Zn8 H32 C40 S4 N32 O16"
_cell_length_a       8.924
_cell_length_b       10.41802
_cell_length_c       26.60081
_cell_angle_alpha    90.0
_cell_angle_beta     90.0
_cell_angle_gamma    90.00671999999999

_space_group_name_H-M_alt    "P 1"
_space_group_IT_number       1

loop_
  _space_group_symop_operation_xyz
  'x, y, z'

loop_
  _atom_site_type_symbol
  _atom_site_label
  _atom_site_symmetry_multiplicity
  _atom_site_fract_x
  _atom_site_fract_y
  _atom_site_fract_z
  _atom_site_occupancy
  Zn  Zn1       1.0  0.58774  0.39932  0.54851  1.0000
  Zn  Zn2       1.0  0.08773  0.10057999999999999  0.45148  1.0000
  Zn  Zn3       1.0  0.41225  0.60068  0.048509999999999984  1.0000
  Zn  Zn4       1.0  0.9122699999999999  0.8994199999999999  0.95148  1.0000
  Zn  Zn5       1.0  0.41225  0.60068  0.45149  1.0000
  Zn  Zn6       1.0  0.9122699999999999  0.8994199999999999  0.54852  1.0000
  Zn  Zn7       1.0  0.58774  0.39932  0.95149  1.0000
  Zn  Zn8       1.0  0.08773  0.10057999999999999  0.04851999999999999  1.0000
  H   H1        1.0  0.186  0.37865  0.41837  1.0000
  H   H2        1.0  0.73396  0.54033  0.6999299999999999  1.0000
  H   H3        1.0  0.39044  0.18252  0.58701  1.0000
  H   H4        1.0  0.26394  0.08098  0.55441  1.0000
  H   H5        1.0  0.68598  0.12132  0.58163  1.0000
  H   H6        1.0  0.23391  0.9596999999999999  0.30007999999999996  1.0000
  H   H7        1.0  0.89048  0.31756  0.41299  1.0000
  H   H8        1.0  0.76388  0.41898999999999986  0.44556999999999997  1.0000
  H   H9        1.0  0.814  0.62134  0.91837  1.0000
  H   H10       1.0  0.26604  0.45967  0.19992999999999994  1.0000
  H   H11       1.0  0.60956  0.81748  0.08700999999999998  1.0000
  H   H12       1.0  0.73606  0.91902  0.054409999999999986  1.0000
  H   H13       1.0  0.31402  0.87868  0.08163  1.0000
  H   H14       1.0  0.76609  0.0403  0.80008  1.0000
  H   H15       1.0  0.10952  0.6824399999999999  0.91299  1.0000
  H   H16       1.0  0.23612  0.58101  0.94557  1.0000
  H   H17       1.0  0.81399  0.62134  0.58163  1.0000
  H   H18       1.0  0.26604  0.45967  0.30007  1.0000
  H   H19       1.0  0.60956  0.81748  0.41299  1.0000
  H   H20       1.0  0.73606  0.91902  0.4455899999999999  1.0000
  H   H21       1.0  0.31402  0.87868  0.41837  1.0000
  H   H22       1.0  0.76609  0.0403  0.69992  1.0000
  H   H23       1.0  0.10952  0.6824399999999999  0.58701  1.0000
  H   H24       1.0  0.23612  0.58101  0.55443  1.0000
  H   H25       1.0  0.186  0.37866  0.08163  1.0000
  H   H26       1.0  0.73396  0.54033  0.80007  1.0000
  H   H27       1.0  0.39044  0.18251  0.91299  1.0000
  H   H28       1.0  0.26394  0.08098  0.94559  1.0000
  H   H29       1.0  0.68598  0.12132  0.91837  1.0000
  H   H30       1.0  0.23391  0.9596999999999999  0.19992  1.0000
  H   H31       1.0  0.89048  0.31756  0.08700999999999998  1.0000
  H   H32       1.0  0.76388  0.41898999999999986  0.054429999999999985  1.0000
  C   C1        1.0  0.24142  0.35485  0.4534699999999999  1.0000
  C   C2        1.0  0.31062  0.25166  0.51982  1.0000
  C   C3        1.0  0.57663  0.33684  0.64997  1.0000
  C   C4        1.0  0.60356  0.36425  0.7036  1.0000
  C   C5        1.0  0.68086  0.46846  0.7235499999999998  1.0000
  C   C6        1.0  0.74141  0.14513  0.54653  1.0000
  C   C7        1.0  0.81062  0.24833  0.48015999999999986  1.0000
  C   C8        1.0  0.07657  0.16309  0.35002  1.0000
  C   C9        1.0  0.10355  0.13575  0.29639  1.0000
  C   C10       1.0  0.18085  0.03154  0.27645  1.0000
  C   C11       1.0  0.75857  0.64514  0.9534599999999998  1.0000
  C   C12       1.0  0.68937  0.7483399999999999  0.019819999999999997  1.0000
  C   C13       1.0  0.42336  0.66316  0.14997  1.0000
  C   C14       1.0  0.39643  0.63575  0.20359999999999995  1.0000
  C   C15       1.0  0.31913  0.53154  0.22355  1.0000
  C   C16       1.0  0.25859  0.85487  0.04653  1.0000
  C   C17       1.0  0.18938  0.75167  0.9801599999999998  1.0000
  C   C18       1.0  0.92342  0.8369  0.85002  1.0000
  C   C19       1.0  0.89645  0.86425  0.7963899999999999  1.0000
  C   C20       1.0  0.81915  0.96845  0.7764499999999998  1.0000
  C   C21       1.0  0.75857  0.64515  0.54653  1.0000
  C   C22       1.0  0.68937  0.7483399999999999  0.4801799999999999  1.0000
  C   C23       1.0  0.42336  0.66316  0.35003  1.0000
  C   C24       1.0  0.39643  0.63575  0.29639  1.0000
  C   C25       1.0  0.31913  0.53154  0.27645  1.0000
  C   C26       1.0  0.25859  0.85487  0.4534699999999999  1.0000
  C   C27       1.0  0.18938  0.75167  0.51983  1.0000
  C   C28       1.0  0.92342  0.8369099999999999  0.64998  1.0000
  C   C29       1.0  0.89645  0.86425  0.70361  1.0000
  C   C30       1.0  0.81915  0.96845  0.7235499999999998  1.0000
  C   C31       1.0  0.24142  0.35485  0.04653  1.0000
  C   C32       1.0  0.31062  0.25166  0.98018  1.0000
  C   C33       1.0  0.57663  0.33684  0.85003  1.0000
  C   C34       1.0  0.60356  0.36425  0.7963899999999999  1.0000
  C   C35       1.0  0.68086  0.46846  0.7764499999999998  1.0000
  C   C36       1.0  0.74141  0.14513  0.9534699999999998  1.0000
  C   C37       1.0  0.81062  0.24833  0.019839999999999993  1.0000
  C   C38       1.0  0.07658  0.16309  0.14998  1.0000
  C   C39       1.0  0.10355  0.13575  0.20361  1.0000
  C   C40       1.0  0.18085  0.03155  0.22355  1.0000
  S   S1        1.0  0.53232  0.26543  0.75  1.0000
  S   S2        1.0  0.0323  0.23456999999999995  0.24999999999999994  1.0000
  S   S3        1.0  0.4676699999999999  0.7345699999999998  0.24999999999999994  1.0000
  S   S4        1.0  0.96769  0.76543  0.75  1.0000
  N   N1        1.0  0.21918  0.24289999999999998  0.47863  1.0000
  N   N2        1.0  0.33923  0.42977999999999994  0.4766  1.0000
  N   N3        1.0  0.38426  0.3653  0.52005  1.0000
  N   N4        1.0  0.33017  0.15999  0.55496  1.0000
  N   N5        1.0  0.71915  0.25705  0.5213499999999999  1.0000
  N   N6        1.0  0.83925  0.07025  0.5234  1.0000
  N   N7        1.0  0.88428  0.13471  0.47993999999999987  1.0000
  N   N8        1.0  0.83014  0.34001  0.4450299999999999  1.0000
  N   N9        1.0  0.78082  0.7570999999999999  0.97863  1.0000
  N   N10       1.0  0.66077  0.57022  0.9766  1.0000
  N   N11       1.0  0.61573  0.6347  0.020059999999999995  1.0000
  N   N12       1.0  0.66982  0.84001  0.05496  1.0000
  N   N13       1.0  0.28085  0.74295  0.02135  1.0000
  N   N14       1.0  0.16075  0.9297499999999999  0.023399999999999997  1.0000
  N   N15       1.0  0.11572  0.86529  0.9799399999999999  1.0000
  N   N16       1.0  0.16986  0.65999  0.9450299999999998  1.0000
  N   N17       1.0  0.78082  0.7570999999999999  0.52136  1.0000
  N   N18       1.0  0.66077  0.57022  0.5234  1.0000
  N   N19       1.0  0.61573  0.6347  0.47993999999999987  1.0000
  N   N20       1.0  0.66982  0.8399999999999999  0.4450399999999999  1.0000
  N   N21       1.0  0.28085  0.7429399999999999  0.47865  1.0000
  N   N22       1.0  0.16075  0.9297499999999999  0.4766  1.0000
  N   N23       1.0  0.11572  0.86529  0.52006  1.0000
  N   N24       1.0  0.16986  0.65999  0.55497  1.0000
  N   N25       1.0  0.21918  0.24289999999999998  0.02136  1.0000
  N   N26       1.0  0.33923  0.42977999999999994  0.023399999999999997  1.0000
  N   N27       1.0  0.38426  0.3653  0.9799399999999999  1.0000
  N   N28       1.0  0.33017  0.15999  0.9450399999999998  1.0000
  N   N29       1.0  0.71915  0.25705  0.97865  1.0000
  N   N30       1.0  0.83925  0.07024  0.9766  1.0000
  N   N31       1.0  0.88428  0.13471  0.020059999999999995  1.0000
  N   N32       1.0  0.83014  0.34001  0.05497  1.0000
  O   O1        1.0  0.62114  0.42719999999999997  0.61954  1.0000
  O   O2        1.0  0.51512  0.23348999999999998  0.63639  1.0000
  O   O3        1.0  0.12114  0.07275  0.38044  1.0000
  O   O4        1.0  0.01517  0.26647  0.3636  1.0000
  O   O5        1.0  0.37885  0.5728099999999999  0.11954  1.0000
  O   O6        1.0  0.48486999999999997  0.76651  0.13639  1.0000
  O   O7        1.0  0.87885  0.92725  0.8804399999999998  1.0000
  O   O8        1.0  0.9848300000000001  0.73353  0.8636  1.0000
  O   O9        1.0  0.37885  0.5728  0.38046  1.0000
  O   O10       1.0  0.48486999999999997  0.7665  0.3636  1.0000
  O   O11       1.0  0.87885  0.92725  0.6195599999999999  1.0000
  O   O12       1.0  0.9848300000000001  0.73353  0.6364  1.0000
  O   O13       1.0  0.62115  0.42718999999999996  0.88046  1.0000
  O   O14       1.0  0.51512  0.23348999999999998  0.8636  1.0000
  O   O15       1.0  0.12114  0.07275  0.11956  1.0000
  O   O16       1.0  0.01516  0.26647  0.1364  1.0000
