data_image0
_chemical_formula_structural       Cu4H44C28O24
_chemical_formula_sum              "Cu4 H44 C28 O24"
_cell_length_a       9.54058
_cell_length_b       10.572820000000002
_cell_length_c       12.04401
_cell_angle_alpha    89.80349
_cell_angle_beta     89.98097
_cell_angle_gamma    90.41616

_symmetry_space_group_name_H-M    'P 1'
_symmetry_Int_Tables_number       1

loop_
  _symmetry_equiv_pos_as_xyz
  'x,y,z'

loop_
  _atom_site_type_symbol
  _atom_site_label
  _atom_site_symmetry_multiplicity
  _atom_site_fract_x
  _atom_site_fract_y
  _atom_site_fract_z
  _atom_site_occupancy
  Cu  Cu1       1.0  0.181  0.27689  0.9352  1.0000
  Cu  Cu2       1.0  0.68246  0.16596  0.05174000000000001  1.0000
  Cu  Cu3       1.0  0.3177  0.72275  0.4357  1.0000
  Cu  Cu4       1.0  0.81637  0.83495  0.54911  1.0000
  H   H1        1.0  0.30092  0.15875000000000003  0.10120999999999998  1.0000
  H   H2        1.0  0.35224  0.9504900000000001  0.06232  1.0000
  H   H3        1.0  0.42005  0.9357700000000001  0.29167  1.0000
  H   H4        1.0  0.32508  0.1498  0.47314  1.0000
  H   H5        1.0  0.9889699999999999  0.9960200000000001  0.16229  1.0000
  H   H6        1.0  0.08987  0.015060000000000002  0.03949  1.0000
  H   H7        1.0  0.19669  0.85461  0.17499  1.0000
  H   H8        1.0  0.13599  0.94534  0.35263  1.0000
  H   H9        1.0  0.3258  0.16984  0.29571  1.0000
  H   H10       1.0  0.004530000000000002  0.15962  0.31468  1.0000
  H   H11       1.0  0.11041999999999999  0.29729  0.29555  1.0000
  H   H12       1.0  0.79936  0.33706  0.91348  1.0000
  H   H13       1.0  0.8544  0.55365  0.94322  1.0000
  H   H14       1.0  0.94141  0.55634  0.71127  1.0000
  H   H15       1.0  0.8229  0.32481  0.52751  1.0000
  H   H16       1.0  0.50324  0.51305  0.8306299999999999  1.0000
  H   H17       1.0  0.59626  0.49621  0.9577500000000001  1.0000
  H   H18       1.0  0.71631  0.64644  0.8191  1.0000
  H   H19       1.0  0.66105  0.55265  0.64617  1.0000
  H   H20       1.0  0.83306  0.31999  0.70524  1.0000
  H   H21       1.0  0.51353  0.33975  0.68626  1.0000
  H   H22       1.0  0.61325  0.20122000000000004  0.71316  1.0000
  H   H23       1.0  0.19824  0.8414300000000001  0.60162  1.0000
  H   H24       1.0  0.14752  0.049870000000000005  0.56235  1.0000
  H   H25       1.0  0.08015  0.06394  0.79262  1.0000
  H   H26       1.0  0.18055  0.8487100000000001  0.9753  1.0000
  H   H27       1.0  0.51052  0.004029999999999999  0.66128  1.0000
  H   H28       1.0  0.40923  0.98546  0.53885  1.0000
  H   H29       1.0  0.30291  0.1456  0.67385  1.0000
  H   H30       1.0  0.36502  0.05481999999999999  0.85159  1.0000
  H   H31       1.0  0.175  0.8302200000000001  0.79794  1.0000
  H   H32       1.0  0.4963600000000001  0.8399200000000001  0.81365  1.0000
  H   H33       1.0  0.38981  0.70258  0.79571  1.0000
  H   H34       1.0  0.70088  0.6622600000000001  0.41272  1.0000
  H   H35       1.0  0.64642  0.44744000000000006  0.44304  1.0000
  H   H36       1.0  0.55834  0.44807  0.2115  1.0000
  H   H37       1.0  0.67627  0.67391  0.02685  1.0000
  H   H38       1.0  0.99623  0.48673000000000005  0.3302  1.0000
  H   H39       1.0  0.9029700000000002  0.50297  0.4571200000000001  1.0000
  H   H40       1.0  0.78279  0.35499  0.3173  1.0000
  H   H41       1.0  0.83781  0.45002  0.14491  1.0000
  H   H42       1.0  0.66889  0.68402  0.20607  1.0000
  H   H43       1.0  0.9879200000000001  0.66013  0.18645  1.0000
  H   H44       1.0  0.8910200000000001  0.80022  0.21238  1.0000
  C   C1        1.0  0.9765199999999999  0.23508000000000007  0.09425999999999998  1.0000
  C   C2        1.0  0.10156  0.17262000000000002  0.15276  1.0000
  C   C3        1.0  0.09073  0.02957  0.1298  1.0000
  C   C4        1.0  0.21126  0.95754  0.18354  1.0000
  C   C5        1.0  0.22519  0.9868100000000002  0.30737  1.0000
  C   C6        1.0  0.2288  0.1292  0.3303  1.0000
  C   C7        1.0  0.10293  0.1955  0.27859  1.0000
  C   C8        1.0  0.4696199999999999  0.27676  0.90345  1.0000
  C   C9        1.0  0.60269  0.33369  0.8508  1.0000
  C   C10       1.0  0.6004  0.47749  0.86812  1.0000
  C   C11       1.0  0.72746  0.5430100000000001  0.8155199999999999  1.0000
  C   C12       1.0  0.74619  0.5079900000000002  0.6931099999999999  1.0000
  C   C13       1.0  0.73811  0.36512  0.6728  1.0000
  C   C14       1.0  0.609  0.30394  0.72615  1.0000
  C   C15       1.0  0.52218  0.76568  0.59377  1.0000
  C   C16       1.0  0.39762  0.82772  0.65252  1.0000
  C   C17       1.0  0.40855  0.9708100000000001  0.62919  1.0000
  C   C18       1.0  0.28836  0.0427  0.6830299999999999  1.0000
  C   C19       1.0  0.27557  0.01327  0.80702  1.0000
  C   C20       1.0  0.27278  0.8709  0.83087  1.0000
  C   C21       1.0  0.39751  0.8044  0.77828  1.0000
  C   C22       1.0  0.030220000000000004  0.7233800000000001  0.40345  1.0000
  C   C23       1.0  0.89763  0.66679  0.35051  1.0000
  C   C24       1.0  0.89937  0.52277  0.36757000000000006  1.0000
  C   C25       1.0  0.77221  0.45847000000000004  0.31453  1.0000
  C   C26       1.0  0.75362  0.49533000000000005  0.19229  1.0000
  C   C27       1.0  0.76285  0.63844  0.17245  1.0000
  C   C28       1.0  0.8928099999999999  0.6974000000000001  0.2257  1.0000
  O   O1        1.0  0.9933900000000001  0.28076  0.99497  1.0000
  O   O2        1.0  0.85742  0.22478  0.1408  1.0000
  O   O3        1.0  0.22854  0.2257  0.10495  1.0000
  O   O4        1.0  0.34561  0.99382  0.1347  1.0000
  O   O5        1.0  0.34939  0.92696  0.35051  1.0000
  O   O6        1.0  0.22785  0.15201  0.44926  1.0000
  O   O7        1.0  0.47922000000000003  0.19954  0.98328  1.0000
  O   O8        1.0  0.3535  0.31359  0.86047  1.0000
  O   O9        1.0  0.72113  0.27543  0.90535  1.0000
  O   O10       1.0  0.8552000000000001  0.50652  0.87269  1.0000
  O   O11       1.0  0.8743600000000001  0.56089  0.65014  1.0000
  O   O12       1.0  0.72884  0.34173  0.55404  1.0000
  O   O13       1.0  0.50492  0.71935  0.49517000000000005  1.0000
  O   O14       1.0  0.64141  0.7763500000000001  0.63964  1.0000
  O   O15       1.0  0.27067  0.77459  0.60529  1.0000
  O   O16       1.0  0.1538  0.00632  0.63485  1.0000
  O   O17       1.0  0.15159  0.07286  0.85068  1.0000
  O   O18       1.0  0.2772  0.8483100000000002  0.94992  1.0000
  O   O19       1.0  0.02061  0.80045  0.48303000000000007  1.0000
  O   O20       1.0  0.14625  0.6866000000000001  0.36061999999999994  1.0000
  O   O21       1.0  0.77877  0.72442  0.40487  1.0000
  O   O22       1.0  0.64457  0.49417000000000005  0.37203  1.0000
  O   O23       1.0  0.62467  0.44423  0.14982  1.0000
  O   O24       1.0  0.77147  0.66412  0.05394  1.0000
