data_image0
_chemical_formula_structural       Sm4H20C56N8O32
_chemical_formula_sum              "Sm4 H20 C56 N8 O32"
_cell_length_a       12.157
_cell_length_b       12.86778
_cell_length_c       12.458710000000002
_cell_angle_alpha    89.93521000000001
_cell_angle_beta     90.01380000000002
_cell_angle_gamma    114.29605

_space_group_name_H-M_alt    "P 1"
_space_group_IT_number       1

loop_
  _space_group_symop_operation_xyz
  'x, y, z'

loop_
  _atom_site_type_symbol
  _atom_site_label
  _atom_site_symmetry_multiplicity
  _atom_site_fract_x
  _atom_site_fract_y
  _atom_site_fract_z
  _atom_site_occupancy
  Sm  Sm1       1.0  0.05088999999999999  0.36604  0.55499  1.0000
  Sm  Sm2       1.0  0.94942  0.13559  0.05353  1.0000
  Sm  Sm3       1.0  0.94934  0.63322  0.4480599999999999  1.0000
  Sm  Sm4       1.0  0.05090999999999992  0.8665099999999998  0.94745  1.0000
  H   H1        1.0  0.11939  0.18263  0.71526  1.0000
  H   H2        1.0  0.56015  0.25139  0.63326  1.0000
  H   H3        1.0  0.70698  0.07104  0.84656  1.0000
  H   H4        1.0  0.40631999999999996  0.17980999999999997  0.70398  1.0000
  H   H5        1.0  0.5268  0.94837  0.87396  1.0000
  H   H6        1.0  0.8812099999999999  0.31732  0.21683  1.0000
  H   H7        1.0  0.44087  0.2504  0.13326  1.0000
  H   H8        1.0  0.2932  0.42878999999999995  0.3473599999999999  1.0000
  H   H9        1.0  0.5944600000000001  0.32045  0.20576  1.0000
  H   H10       1.0  0.4739899999999999  0.5527499999999999  0.3732  1.0000
  H   H11       1.0  0.8799699999999998  0.81558  0.28039  1.0000
  H   H12       1.0  0.43933999999999995  0.7484399999999999  0.36663  1.0000
  H   H13       1.0  0.29258999999999996  0.9288699999999999  0.15336  1.0000
  H   H14       1.0  0.5940100000000001  0.82031  0.29513  1.0000
  H   H15       1.0  0.4728999999999999  0.05195  0.12642  1.0000
  H   H16       1.0  0.11915999999999999  0.6828  0.78426  1.0000
  H   H17       1.0  0.56037  0.75081  0.86691  1.0000
  H   H18       1.0  0.7081  0.5716399999999999  0.6537599999999998  1.0000
  H   H19       1.0  0.40663999999999995  0.6802199999999999  0.79535  1.0000
  H   H20       1.0  0.52705  0.44855  0.62622  1.0000
  C   C1        1.0  0.77764  0.39216999999999996  0.5538699999999999  1.0000
  C   C2        1.0  0.9394  0.18394  0.7690299999999999  1.0000
  C   C3        1.0  0.16967999999999994  0.06322  0.76501  1.0000
  C   C4        1.0  0.29659  0.81194  0.95252  1.0000
  C   C5        1.0  0.7475  0.29047  0.62578  1.0000
  C   C6        1.0  0.63151  0.23008  0.66569  1.0000
  C   C7        1.0  0.6113099999999999  0.14467  0.74324  1.0000
  C   C8        1.0  0.71286  0.13005  0.78188  1.0000
  C   C9        1.0  0.82487  0.19201  0.73463  1.0000
  C   C10       1.0  0.27664  0.037869999999999994  0.7871399999999998  1.0000
  C   C11       1.0  0.3928799999999999  0.10545999999999998  0.7528  1.0000
  C   C12       1.0  0.48737  0.0749  0.78219  1.0000
  C   C13       1.0  0.4586999999999999  0.9771199999999998  0.84669  1.0000
  C   C14       1.0  0.33888999999999997  0.91481  0.87829  1.0000
  C   C15       1.0  0.22305999999999998  0.10913999999999999  0.053829999999999996  1.0000
  C   C16       1.0  0.06047999999999998  0.31568  0.26837999999999995  1.0000
  C   C17       1.0  0.83089  0.43686  0.26663  1.0000
  C   C18       1.0  0.70276  0.68834  0.4524899999999999  1.0000
  C   C19       1.0  0.25338  0.21115999999999996  0.12525  1.0000
  C   C20       1.0  0.36927  0.27134  0.16556999999999997  1.0000
  C   C21       1.0  0.38925999999999994  0.3562899999999999  0.24332  1.0000
  C   C22       1.0  0.28759  0.37075  0.28198  1.0000
  C   C23       1.0  0.17579  0.3092  0.23412  1.0000
  C   C24       1.0  0.7241399999999999  0.46294999999999986  0.28784  1.0000
  C   C25       1.0  0.60788  0.39517999999999986  0.25370999999999994  1.0000
  C   C26       1.0  0.51325  0.42581999999999987  0.28229  1.0000
  C   C27       1.0  0.54191  0.52378  0.34618  1.0000
  C   C28       1.0  0.6614899999999999  0.58604  0.37803  1.0000
  C   C29       1.0  0.22227000000000005  0.60744  0.44606  1.0000
  C   C30       1.0  0.06005000000000003  0.8154899999999999  0.23017999999999997  1.0000
  C   C31       1.0  0.8301499999999999  0.9361999999999999  0.23315999999999998  1.0000
  C   C32       1.0  0.70256  0.18849999999999997  0.0477  1.0000
  C   C33       1.0  0.2518099999999998  0.7088799999999997  0.37377  1.0000
  C   C34       1.0  0.36795  0.7696  0.33403  1.0000
  C   C35       1.0  0.38833  0.8551  0.25654  1.0000
  C   C36       1.0  0.2866699999999999  0.8694599999999999  0.21771  1.0000
  C   C37       1.0  0.17439999999999994  0.8069899999999999  0.26452  1.0000
  C   C38       1.0  0.7234699999999998  0.9626199999999998  0.21233  1.0000
  C   C39       1.0  0.6072099999999998  0.8948999999999998  0.24675999999999995  1.0000
  C   C40       1.0  0.5124599999999999  0.9253399999999999  0.21793  1.0000
  C   C41       1.0  0.54108  0.02334  0.15375  1.0000
  C   C42       1.0  0.6608399999999999  0.08605  0.12233  1.0000
  C   C43       1.0  0.7772599999999998  0.8930599999999999  0.9447699999999998  1.0000
  C   C44       1.0  0.94043  0.6842099999999998  0.7320799999999998  1.0000
  C   C45       1.0  0.16987  0.56354  0.7356699999999999  1.0000
  C   C46       1.0  0.29796  0.31289  0.54816  1.0000
  C   C47       1.0  0.74808  0.7909  0.87398  1.0000
  C   C48       1.0  0.6320199999999999  0.7300199999999998  0.8343999999999998  1.0000
  C   C49       1.0  0.61199  0.64493  0.75689  1.0000
  C   C50       1.0  0.71372  0.6304999999999998  0.71834  1.0000
  C   C51       1.0  0.8257299999999999  0.6924999999999998  0.7655999999999998  1.0000
  C   C52       1.0  0.27654999999999996  0.5372099999999999  0.71423  1.0000
  C   C53       1.0  0.3931199999999999  0.60534  0.74753  1.0000
  C   C54       1.0  0.48786  0.57497  0.71844  1.0000
  C   C55       1.0  0.4591199999999998  0.47704999999999986  0.65446  1.0000
  C   C56       1.0  0.33925  0.41438  0.62355  1.0000
  N   N1        1.0  0.84139  0.2671  0.65431  1.0000
  N   N2        1.0  0.2503500000000001  0.94487  0.8479699999999998  1.0000
  N   N3        1.0  0.15961999999999998  0.23465  0.15353  1.0000
  N   N4        1.0  0.7502999999999997  0.55618  0.34813  1.0000
  N   N5        1.0  0.15769999999999987  0.7318099999999997  0.34491  1.0000
  N   N6        1.0  0.74971  0.0563  0.1524  1.0000
  N   N7        1.0  0.8421699999999998  0.7677799999999999  0.8456799999999999  1.0000
  N   N8        1.0  0.25024  0.44354  0.6544299999999997  1.0000
  O   O1        1.0  0.8831499999999998  0.42894  0.50828  1.0000
  O   O2        1.0  0.70634  0.43895  0.54588  1.0000
  O   O3        1.0  0.023889999999999988  0.21855  0.6975299999999999  1.0000
  O   O4        1.0  0.95028  0.14860999999999996  0.86044  1.0000
  O   O5        1.0  0.06634999999999996  0.9910099999999998  0.7878599999999999  1.0000
  O   O6        1.0  0.19586  0.16406999999999997  0.72463  1.0000
  O   O7        1.0  0.18538  0.77894  0.98421  1.0000
  O   O8        1.0  0.36673  0.76816  0.9786199999999998  1.0000
  O   O9        1.0  0.1184  0.07271999999999999  0.00677  1.0000
  O   O10       1.0  0.29420999999999997  0.06206999999999999  0.0479  1.0000
  O   O11       1.0  0.97666  0.28202  0.19601999999999994  1.0000
  O   O12       1.0  0.04820000000000001  0.34849  0.3603699999999999  1.0000
  O   O13       1.0  0.9342299999999998  0.50867  0.28966  1.0000
  O   O14       1.0  0.80455  0.3356799999999999  0.22718  1.0000
  O   O15       1.0  0.81287  0.71967  0.48640999999999995  1.0000
  O   O16       1.0  0.63285  0.7329399999999999  0.47680999999999996  1.0000
  O   O17       1.0  0.11659  0.57  0.49173  1.0000
  O   O18       1.0  0.29420999999999997  0.56158  0.45463  1.0000
  O   O19       1.0  0.97603  0.78178  0.30162  1.0000
  O   O20       1.0  0.04942999999999988  0.8509199999999998  0.13844  1.0000
  O   O21       1.0  0.9336  0.00895  0.21199999999999994  1.0000
  O   O22       1.0  0.8030999999999998  0.8338099999999999  0.27006  1.0000
  O   O23       1.0  0.8135  0.22135  0.015569999999999997  1.0000
  O   O24       1.0  0.63229  0.23204  0.021419999999999995  1.0000
  O   O25       1.0  0.8832599999999999  0.93198  0.9896899999999997  1.0000
  O   O26       1.0  0.7041299999999999  0.93766  0.9522899999999999  1.0000
  O   O27       1.0  0.022559999999999948  0.71514  0.8052199999999999  1.0000
  O   O28       1.0  0.95346  0.65201  0.63974  1.0000
  O   O29       1.0  0.06625  0.49100999999999995  0.71451  1.0000
  O   O30       1.0  0.19667999999999994  0.66558  0.77292  1.0000
  O   O31       1.0  0.18812999999999996  0.28155  0.5137199999999998  1.0000
  O   O32       1.0  0.36801  0.26861  0.52335  1.0000
