data_image0
_chemical_formula_structural       Cu4H44C68N8O16
_chemical_formula_sum              "Cu4 H44 C68 N8 O16"
_cell_length_a       7.08597
_cell_length_b       10.06096
_cell_length_c       33.2067
_cell_angle_alpha    90.19803
_cell_angle_beta     89.84045999999998
_cell_angle_gamma    123.42853999999998

_symmetry_space_group_name_H-M    'P 1'
_symmetry_Int_Tables_number       1

loop_
  _symmetry_equiv_pos_as_xyz
  'x,y,z'

loop_
  _atom_site_type_symbol
  _atom_site_label
  _atom_site_symmetry_multiplicity
  _atom_site_fract_x
  _atom_site_fract_y
  _atom_site_fract_z
  _atom_site_occupancy
  Cu  Cu1       1.0  0.50399  0.50041  2.9999999999999997e-05  1.0000
  Cu  Cu2       1.0  0.0006199999999999998  0.00018000000000000007  0.50002  1.0000
  Cu  Cu3       1.0  0.00026000000000002464  0.50009  4e-05  1.0000
  Cu  Cu4       1.0  0.5052199999999999  0.9998799999999999  0.49949999999999994  1.0000
  H   H1        1.0  0.8895  0.35409  0.24748999999999996  1.0000
  H   H2        1.0  0.17933  0.14602  0.24147  1.0000
  H   H3        1.0  0.29153  0.11305  0.31901  1.0000
  H   H4        1.0  0.32671  0.35806  0.18331  1.0000
  H   H5        1.0  0.38077  0.39461  0.10887  1.0000
  H   H6        1.0  0.86582  0.26704  0.11199999999999997  1.0000
  H   H7        1.0  0.79126  0.20603  0.18528999999999995  1.0000
  H   H8        1.0  0.5210000000000001  0.23142  0.37383  1.0000
  H   H9        1.0  0.7119  0.1926  0.42971  1.0000
  H   H10       1.0  0.21769  0.23621  0.35075  1.0000
  H   H11       1.0  0.011020000000000005  0.24668  0.29059  1.0000
  H   H12       1.0  0.61248  0.15368999999999997  0.7474799999999998  1.0000
  H   H13       1.0  0.31904  0.35356  0.74094  1.0000
  H   H14       1.0  0.21213  0.38345  0.8190099999999998  1.0000
  H   H15       1.0  0.17032  0.14539  0.6831  1.0000
  H   H16       1.0  0.12365  0.11114  0.6085499999999998  1.0000
  H   H17       1.0  0.62994  0.23282999999999995  0.61189  1.0000
  H   H18       1.0  0.69537  0.28847  0.68548  1.0000
  H   H19       1.0  0.98265  0.27153  0.87382  1.0000
  H   H20       1.0  0.78973  0.30983  0.93008  1.0000
  H   H21       1.0  0.2759599999999999  0.2564699999999999  0.85188  1.0000
  H   H22       1.0  0.4843  0.24869  0.7914199999999998  1.0000
  H   H23       1.0  0.11049  0.64594  0.75251  1.0000
  H   H24       1.0  0.82063  0.85401  0.75854  1.0000
  H   H25       1.0  0.7084499999999999  0.8869299999999999  0.68099  1.0000
  H   H26       1.0  0.6733199999999998  0.6418799999999998  0.8166499999999998  1.0000
  H   H27       1.0  0.61963  0.60533  0.89109  1.0000
  H   H28       1.0  0.13451999999999997  0.73282  0.88808  1.0000
  H   H29       1.0  0.20880000000000015  0.79391  0.8148  1.0000
  H   H30       1.0  0.47904  0.76867  0.62615  1.0000
  H   H31       1.0  0.28826  0.80794  0.57027  1.0000
  H   H32       1.0  0.78223  0.76372  0.6492499999999998  1.0000
  H   H33       1.0  0.9889899999999999  0.7533  0.70941  1.0000
  H   H34       1.0  0.38754000000000005  0.8463  0.25251999999999997  1.0000
  H   H35       1.0  0.68099  0.64643  0.25905  1.0000
  H   H36       1.0  0.78789  0.61651  0.18098  1.0000
  H   H37       1.0  0.82973  0.85459  0.31700999999999996  1.0000
  H   H38       1.0  0.87741  0.88905  0.39156  1.0000
  H   H39       1.0  0.3707  0.76718  0.38796999999999987  1.0000
  H   H40       1.0  0.30447  0.71114  0.31437  1.0000
  H   H41       1.0  0.01762000000000003  0.72843  0.12612  1.0000
  H   H42       1.0  0.21033999999999994  0.69003  0.06987  1.0000
  H   H43       1.0  0.72412  0.74348  0.1481  1.0000
  H   H44       1.0  0.51585  0.75132  0.20853  1.0000
  C   C1        1.0  0.71367  0.29102  0.25618  1.0000
  C   C2        1.0  0.34184  0.18726  0.2546099999999999  1.0000
  C   C3        1.0  0.3975699999999999  0.17281  0.2931  1.0000
  C   C4        1.0  0.55889  0.28077  0.18902999999999995  1.0000
  C   C5        1.0  0.43809  0.33187  0.16789999999999994  1.0000
  C   C6        1.0  0.47095  0.35596  0.12653  1.0000
  C   C7        1.0  0.62765  0.33606  0.10623  1.0000
  C   C8        1.0  0.74591  0.28397  0.12769999999999995  1.0000
  C   C9        1.0  0.70855  0.25341  0.16877  1.0000
  C   C10       1.0  0.66502  0.37422  0.062290000000000005  1.0000
  C   C11       1.0  0.75071  0.23732999999999996  0.32797  1.0000
  C   C12       1.0  0.66959  0.22783  0.36717  1.0000
  C   C13       1.0  0.78012  0.21026999999999996  0.39939999999999987  1.0000
  C   C14       1.0  0.9762399999999999  0.21032  0.39304  1.0000
  C   C15       1.0  0.062319999999999987  0.23220999999999997  0.3540199999999999  1.0000
  C   C16       1.0  0.9497599999999999  0.24144000000000002  0.32105  1.0000
  C   C17       1.0  0.08426999999999998  0.17098  0.42614  1.0000
  C   C18       1.0  0.78758  0.21531  0.75634  1.0000
  C   C19       1.0  0.15714  0.31324  0.75429  1.0000
  C   C20       1.0  0.10368999999999999  0.32714  0.7930799999999998  1.0000
  C   C21       1.0  0.9382199999999999  0.22234999999999996  0.6888499999999997  1.0000
  C   C22       1.0  0.06042000000000001  0.17211  0.66755  1.0000
  C   C23       1.0  0.03087000000000001  0.14898  0.6260799999999997  1.0000
  C   C24       1.0  0.87427  0.169  0.60589  1.0000
  C   C25       1.0  0.75117  0.21746  0.6275799999999998  1.0000
  C   C26       1.0  0.78499  0.24624  0.66881  1.0000
  C   C27       1.0  0.83961  0.13343  0.5617699999999998  1.0000
  C   C28       1.0  0.74926  0.26229  0.82844  1.0000
  C   C29       1.0  0.83225  0.27317  0.8674599999999998  1.0000
  C   C30       1.0  0.7208900000000003  0.2899  0.89977  1.0000
  C   C31       1.0  0.52302  0.28762  0.8935099999999998  1.0000
  C   C32       1.0  0.43345  0.26273  0.8548  1.0000
  C   C33       1.0  0.54707  0.25446  0.82172  1.0000
  C   C34       1.0  0.41885000000000006  0.32841  0.9269499999999998  1.0000
  C   C35       1.0  0.2863099999999999  0.7089499999999997  0.74382  1.0000
  C   C36       1.0  0.65814  0.81279  0.7454  1.0000
  C   C37       1.0  0.60241  0.82721  0.7069  1.0000
  C   C38       1.0  0.44111  0.71915  0.81099  1.0000
  C   C39       1.0  0.56199  0.66805  0.8320799999999998  1.0000
  C   C40       1.0  0.52936  0.64397  0.8734599999999998  1.0000
  C   C41       1.0  0.37287000000000003  0.66385  0.89384  1.0000
  C   C42       1.0  0.25446  0.7159  0.8723899999999998  1.0000
  C   C43       1.0  0.29157  0.74649  0.8313  1.0000
  C   C44       1.0  0.33597999999999995  0.62551  0.93783  1.0000
  C   C45       1.0  0.24925000000000008  0.76263  0.67202  1.0000
  C   C46       1.0  0.33045  0.77226  0.63282  1.0000
  C   C47       1.0  0.2199899999999999  0.78996  0.60059  1.0000
  C   C48       1.0  0.023709999999999988  0.78971  0.6069699999999998  1.0000
  C   C49       1.0  0.9376000000000001  0.76772  0.64599  1.0000
  C   C50       1.0  0.05020999999999997  0.75851  0.67896  1.0000
  C   C51       1.0  0.9156399999999998  0.8290199999999998  0.57387  1.0000
  C   C52       1.0  0.2124699999999999  0.78475  0.24364  1.0000
  C   C53       1.0  0.8428799999999997  0.68677  0.24569  1.0000
  C   C54       1.0  0.89636  0.67283  0.20691  1.0000
  C   C55       1.0  0.061829999999999975  0.7776  0.31113  1.0000
  C   C56       1.0  0.93982  0.82788  0.3325  1.0000
  C   C57       1.0  0.9700099999999997  0.8511999999999997  0.37397  1.0000
  C   C58       1.0  0.12731999999999988  0.8314599999999999  0.39402  1.0000
  C   C59       1.0  0.24950999999999993  0.78248  0.37225  1.0000
  C   C60       1.0  0.21509999999999999  0.7535  0.33107  1.0000
  C   C61       1.0  0.16448999999999994  0.8674499999999999  0.43814  1.0000
  C   C62       1.0  0.2508199999999999  0.73764  0.17152  1.0000
  C   C63       1.0  0.168  0.72673  0.13248  1.0000
  C   C64       1.0  0.27935  0.70989  0.10016  1.0000
  C   C65       1.0  0.47715999999999986  0.71203  0.1064  1.0000
  C   C66       1.0  0.56658  0.7371  0.14514999999999995  1.0000
  C   C67       1.0  0.4530100000000001  0.74548  0.17822  1.0000
  C   C68       1.0  0.58204  0.67119  0.07304  1.0000
  N   N1        1.0  0.53901  0.25888  0.23151999999999995  1.0000
  N   N2        1.0  0.6283499999999999  0.23793999999999998  0.29398  1.0000
  N   N3        1.0  0.96002  0.24472999999999998  0.73138  1.0000
  N   N4        1.0  0.8734699999999999  0.26484  0.79428  1.0000
  N   N5        1.0  0.4609599999999999  0.74113  0.7684799999999998  1.0000
  N   N6        1.0  0.3716100000000001  0.76202  0.70602  1.0000
  N   N7        1.0  0.04001000000000012  0.75537  0.26859  1.0000
  N   N8        1.0  0.12659999999999988  0.73515  0.20569999999999994  1.0000
  O   O1        1.0  0.49658  0.35199  0.04286  1.0000
  O   O2        1.0  0.8663199999999998  0.42465  0.05013999999999999  1.0000
  O   O3        1.0  0.9541799999999999  0.10895  0.4571599999999999  1.0000
  O   O4        1.0  0.27277  0.191  0.42022  1.0000
  O   O5        1.0  0.008370000000000023  0.15756000000000003  0.54196  1.0000
  O   O6        1.0  0.6382799999999997  0.08107  0.54944  1.0000
  O   O7        1.0  0.54826  0.38384  0.95824  1.0000
  O   O8        1.0  0.23491  0.31591  0.92118  1.0000
  O   O9        1.0  0.5043299999999998  0.6472899999999999  0.9571899999999998  1.0000
  O   O10       1.0  0.13483  0.57559  0.94999  1.0000
  O   O11       1.0  0.04574000000000005  0.89076  0.5428599999999998  1.0000
  O   O12       1.0  0.72723  0.8092  0.5798  1.0000
  O   O13       1.0  0.99722  0.84393  0.45822  1.0000
  O   O14       1.0  0.3661  0.91861  0.4501099999999999  1.0000
  O   O15       1.0  0.45313  0.61474  0.0417  1.0000
  O   O16       1.0  0.76657  0.68463  0.07891  1.0000
