data_image0
_chemical_formula_structural       Zn4H28C56N8O16
_chemical_formula_sum              "Zn4 H28 C56 N8 O16"
_cell_length_a       10.12663
_cell_length_b       9.51587
_cell_length_c       21.44687
_cell_angle_alpha    90.15785
_cell_angle_beta     90.02316000000002
_cell_angle_gamma    100.90664

_symmetry_space_group_name_H-M    'P 1'
_symmetry_Int_Tables_number       1

loop_
  _symmetry_equiv_pos_as_xyz
  'x,y,z'

loop_
  _atom_site_type_symbol
  _atom_site_label
  _atom_site_symmetry_multiplicity
  _atom_site_fract_x
  _atom_site_fract_y
  _atom_site_fract_z
  _atom_site_occupancy
  Zn  Zn1       1.0  0.87015  0.38532  0.20794000000000004  1.0000
  Zn  Zn2       1.0  0.62955  0.11578000000000001  0.70831  1.0000
  Zn  Zn3       1.0  0.12986  0.61469  0.79206  1.0000
  Zn  Zn4       1.0  0.37046  0.8842300000000001  0.29169000000000006  1.0000
  H   H1        1.0  0.94362  0.6286  0.02454  1.0000
  H   H2        1.0  0.21423000000000003  0.05487000000000001  0.13011  1.0000
  H   H3        1.0  0.8683000000000001  0.7848400000000002  0.9456400000000003  1.0000
  H   H4        1.0  0.885  0.30874  0.07513  1.0000
  H   H5        1.0  0.73097  0.1619  0.99677  1.0000
  H   H6        1.0  0.46175  0.01421  0.14937  1.0000
  H   H7        1.0  0.62352  0.16610000000000003  0.22105  1.0000
  H   H8        1.0  0.55458  0.8717  0.52498  1.0000
  H   H9        1.0  0.28656  0.44512  0.63004  1.0000
  H   H10       1.0  0.63077  0.7151400000000002  0.4458500000000001  1.0000
  H   H11       1.0  0.61511  0.19053  0.57479  1.0000
  H   H12       1.0  0.76805  0.33787  0.49678000000000005  1.0000
  H   H13       1.0  0.03841  0.48569000000000007  0.6493700000000001  1.0000
  H   H14       1.0  0.8782400000000001  0.33282  0.72068  1.0000
  H   H15       1.0  0.056389999999999996  0.37141  0.9754600000000002  1.0000
  H   H16       1.0  0.78578  0.9451400000000001  0.8698800000000001  1.0000
  H   H17       1.0  0.13171  0.21517  0.05436  1.0000
  H   H18       1.0  0.11501  0.69127  0.9248600000000002  1.0000
  H   H19       1.0  0.26904  0.83811  0.00323  1.0000
  H   H20       1.0  0.53826  0.9857900000000002  0.85062  1.0000
  H   H21       1.0  0.37649  0.83391  0.77895  1.0000
  H   H22       1.0  0.44543  0.12831000000000004  0.47502  1.0000
  H   H23       1.0  0.71345  0.55489  0.36996000000000007  1.0000
  H   H24       1.0  0.36923999999999996  0.28487  0.55415  1.0000
  H   H25       1.0  0.3849  0.80947  0.4252000000000001  1.0000
  H   H26       1.0  0.23196000000000003  0.66214  0.50322  1.0000
  H   H27       1.0  0.9616  0.51432  0.35062  1.0000
  H   H28       1.0  0.12177  0.66718  0.27931  1.0000
  C   C1        1.0  0.046380000000000025  0.55672  0.12786  1.0000
  C   C2        1.0  0.07518  0.70474  0.10047  1.0000
  C   C3        1.0  0.0026799999999999866  0.72206  0.04747  1.0000
  C   C4        1.0  0.000190000000000009  0.8601000000000001  0.02259  1.0000
  C   C5        1.0  0.07704000000000003  0.98402  0.05366  1.0000
  C   C6        1.0  0.15434  0.96248  0.10693  1.0000
  C   C7        1.0  0.15548000000000006  0.8274000000000002  0.13009  1.0000
  C   C8        1.0  0.9247400000000001  0.87862  0.96944  1.0000
  C   C9        1.0  0.24546  0.81212  0.18389  1.0000
  C   C10       1.0  0.7894  0.24284000000000003  0.08855000000000002  1.0000
  C   C11       1.0  0.70462  0.16155  0.04585  1.0000
  C   C12       1.0  0.5844  0.07794  0.06743  1.0000
  C   C13       1.0  0.55409  0.07817  0.13116  1.0000
  C   C14       1.0  0.643  0.1637  0.17118  1.0000
  C   C15       1.0  0.4495  0.9448400000000001  0.62784  1.0000
  C   C16       1.0  0.42344  0.79574  0.6008800000000001  1.0000
  C   C17       1.0  0.49636  0.77822  0.54797  1.0000
  C   C18       1.0  0.49968000000000007  0.64014  0.52291  1.0000
  C   C19       1.0  0.42336  0.51604  0.5537100000000001  1.0000
  C   C20       1.0  0.34628  0.53755  0.60705  1.0000
  C   C21       1.0  0.34429  0.67259  0.63036  1.0000
  C   C22       1.0  0.57475  0.62146  0.46962000000000004  1.0000
  C   C23       1.0  0.25336  0.68642  0.68394  1.0000
  C   C24       1.0  0.71086  0.25622  0.5883800000000001  1.0000
  C   C25       1.0  0.7951  0.33801  0.54578  1.0000
  C   C26       1.0  0.91547  0.42196  0.56731  1.0000
  C   C27       1.0  0.94624  0.42143  0.6310000000000001  1.0000
  C   C28       1.0  0.85809  0.33527  0.67089  1.0000
  C   C29       1.0  0.9536300000000001  0.44329  0.87213  1.0000
  C   C30       1.0  0.92483  0.29527  0.89952  1.0000
  C   C31       1.0  0.9973300000000002  0.27795  0.95253  1.0000
  C   C32       1.0  0.9998200000000002  0.1399  0.97741  1.0000
  C   C33       1.0  0.92297  0.015990000000000008  0.9463300000000002  1.0000
  C   C34       1.0  0.8456700000000001  0.03753  0.8930700000000001  1.0000
  C   C35       1.0  0.8445300000000001  0.17261  0.8699100000000001  1.0000
  C   C36       1.0  0.07527  0.12139  0.030560000000000004  1.0000
  C   C37       1.0  0.75455  0.18789  0.8161000000000002  1.0000
  C   C38       1.0  0.21061000000000002  0.7571700000000001  0.9114500000000001  1.0000
  C   C39       1.0  0.29539  0.83845  0.95415  1.0000
  C   C40       1.0  0.4156000000000001  0.92207  0.9325700000000001  1.0000
  C   C41       1.0  0.4459199999999999  0.92184  0.8688400000000001  1.0000
  C   C42       1.0  0.35700999999999994  0.8362999999999999  0.82881  1.0000
  C   C43       1.0  0.55051  0.05517  0.37216  1.0000
  C   C44       1.0  0.57657  0.20427  0.39911  1.0000
  C   C45       1.0  0.50365  0.22178  0.45202  1.0000
  C   C46       1.0  0.50033  0.3598700000000001  0.47709  1.0000
  C   C47       1.0  0.57665  0.48397000000000007  0.44629  1.0000
  C   C48       1.0  0.65373  0.46246000000000004  0.39294  1.0000
  C   C49       1.0  0.65572  0.32742  0.36964  1.0000
  C   C50       1.0  0.42526  0.37855  0.53038  1.0000
  C   C51       1.0  0.74665  0.31359  0.31606  1.0000
  C   C52       1.0  0.28915  0.74379  0.41162  1.0000
  C   C53       1.0  0.20491  0.662  0.45421  1.0000
  C   C54       1.0  0.08454000000000003  0.5780400000000001  0.4326900000000001  1.0000
  C   C55       1.0  0.053769999999999984  0.57858  0.36899  1.0000
  C   C56       1.0  0.14192  0.6647400000000001  0.32911  1.0000
  N   N1        1.0  0.75889  0.24516000000000002  0.15018  1.0000
  N   N2        1.0  0.49106  0.9868700000000001  0.02892  1.0000
  N   N3        1.0  0.742  0.25350000000000006  0.64996  1.0000
  N   N4        1.0  0.008310000000000001  0.51368  0.52894  1.0000
  N   N5        1.0  0.24112000000000006  0.7548500000000001  0.8498100000000001  1.0000
  N   N6        1.0  0.50895  0.013140000000000002  0.97108  1.0000
  N   N7        1.0  0.25801  0.74651  0.3500400000000001  1.0000
  N   N8        1.0  0.9917  0.48633000000000004  0.47105  1.0000
  O   O1        1.0  0.99444  0.55325  0.18427  1.0000
  O   O2        1.0  0.0556  0.45029  0.09572  1.0000
  O   O3        1.0  0.27981  0.69658  0.19689  1.0000
  O   O4        1.0  0.28655  0.93089  0.21586  1.0000
  O   O5        1.0  0.4994100000000001  0.9514400000000001  0.68486  1.0000
  O   O6        1.0  0.43976  0.04945  0.59484  1.0000
  O   O7        1.0  0.21313  0.79959  0.69556  1.0000
  O   O8        1.0  0.21780000000000002  0.56895  0.7170400000000001  1.0000
  O   O9        1.0  0.005569999999999996  0.44676  0.81573  1.0000
  O   O10       1.0  0.9444100000000001  0.54972  0.90427  1.0000
  O   O11       1.0  0.7202  0.30343  0.80311  1.0000
  O   O12       1.0  0.71346  0.06912  0.78414  1.0000
  O   O13       1.0  0.5006  0.04857  0.31514  1.0000
  O   O14       1.0  0.56025  0.95056  0.40515000000000007  1.0000
  O   O15       1.0  0.78688  0.20042  0.30444  1.0000
  O   O16       1.0  0.78221  0.43106000000000005  0.28296000000000004  1.0000
