data_image0
_chemical_formula_structural       Zn2H32C68N20
_chemical_formula_sum              "Zn2 H32 C68 N20"
_cell_length_a       11.53519
_cell_length_b       12.47751
_cell_length_c       14.7532
_cell_angle_alpha    90.0
_cell_angle_beta     90.0
_cell_angle_gamma    90.00091999999998

_space_group_name_H-M_alt    "P 1"
_space_group_IT_number       1

loop_
  _space_group_symop_operation_xyz
  'x, y, z'

loop_
  _atom_site_type_symbol
  _atom_site_label
  _atom_site_symmetry_multiplicity
  _atom_site_fract_x
  _atom_site_fract_y
  _atom_site_fract_z
  _atom_site_occupancy
  Zn  Zn1       1.0  0.4999999999999999  0.0  0.7501  1.0000
  Zn  Zn2       1.0  0.4999999999999999  0.99999  0.24993  1.0000
  H   H1        1.0  0.6868699999999999  0.7189399999999999  0.85367  1.0000
  H   H2        1.0  0.83251  0.57575  0.85337  1.0000
  H   H3        1.0  0.7002299999999999  0.84019  0.71348  1.0000
  H   H4        1.0  0.9152099999999999  0.83156  0.7135  1.0000
  H   H5        1.0  0.31312  0.28107  0.85367  1.0000
  H   H6        1.0  0.16748999999999997  0.42425  0.85337  1.0000
  H   H7        1.0  0.29977  0.15981  0.71348  1.0000
  H   H8        1.0  0.08479  0.16844  0.7135  1.0000
  H   H9        1.0  0.31313  0.7189399999999999  0.6463300000000001  1.0000
  H   H10       1.0  0.16748999999999997  0.57575  0.64663  1.0000
  H   H11       1.0  0.29976  0.84019  0.7865300000000001  1.0000
  H   H12       1.0  0.08478  0.83156  0.78649  1.0000
  H   H13       1.0  0.6868699999999999  0.28106  0.6463300000000001  1.0000
  H   H14       1.0  0.8325  0.42425  0.64663  1.0000
  H   H15       1.0  0.7002399999999998  0.15981  0.7865300000000001  1.0000
  H   H16       1.0  0.9152099999999999  0.16844  0.78649  1.0000
  H   H17       1.0  0.31312  0.28107  0.14633  1.0000
  H   H18       1.0  0.16748999999999997  0.42425  0.14663  1.0000
  H   H19       1.0  0.29977  0.15981  0.28652  1.0000
  H   H20       1.0  0.08479  0.16844  0.28650000000000003  1.0000
  H   H21       1.0  0.6868699999999999  0.7189399999999999  0.14633  1.0000
  H   H22       1.0  0.83251  0.57575  0.14663  1.0000
  H   H23       1.0  0.7002299999999999  0.84019  0.28652  1.0000
  H   H24       1.0  0.9152099999999999  0.83156  0.28650000000000003  1.0000
  H   H25       1.0  0.6868699999999999  0.28106  0.35367  1.0000
  H   H26       1.0  0.8325  0.42425  0.35337  1.0000
  H   H27       1.0  0.7002399999999998  0.15981  0.21347  1.0000
  H   H28       1.0  0.9152099999999999  0.16844  0.21351  1.0000
  H   H29       1.0  0.31313  0.7189399999999999  0.35367  1.0000
  H   H30       1.0  0.16748999999999997  0.57575  0.35337  1.0000
  H   H31       1.0  0.29976  0.84019  0.21347  1.0000
  H   H32       1.0  0.08478  0.83156  0.2135  1.0000
  C   C1        1.0  0.5353399999999999  0.8478500000000001  0.91981  1.0000
  C   C2        1.0  0.7185699999999998  0.68769  0.91788  1.0000
  C   C3        1.0  0.80085  0.60655  0.9178  1.0000
  C   C4        1.0  0.9210099999999999  0.40718  0.9195200000000002  1.0000
  C   C5        1.0  0.7518199999999998  0.91041  0.73053  1.0000
  C   C6        1.0  0.87238  0.90665  0.73043  1.0000
  C   C7        1.0  0.46465999999999996  0.15215  0.91981  1.0000
  C   C8        1.0  0.28143  0.31232  0.91788  1.0000
  C   C9        1.0  0.19914  0.39345  0.9178  1.0000
  C   C10       1.0  0.07898999999999999  0.59282  0.9195200000000002  1.0000
  C   C11       1.0  0.24816999999999997  0.0896  0.73053  1.0000
  C   C12       1.0  0.12762  0.09335  0.73043  1.0000
  C   C13       1.0  0.46465999999999996  0.84787  0.5802  1.0000
  C   C14       1.0  0.28143  0.68769  0.58212  1.0000
  C   C15       1.0  0.19915  0.60655  0.5822  1.0000
  C   C16       1.0  0.07898999999999999  0.40717000000000003  0.58049  1.0000
  C   C17       1.0  0.24816  0.91041  0.76948  1.0000
  C   C18       1.0  0.12761  0.90665  0.76956  1.0000
  C   C19       1.0  0.5353399999999999  0.15213  0.5802  1.0000
  C   C20       1.0  0.71856  0.31231  0.58212  1.0000
  C   C21       1.0  0.80085  0.39345  0.5822  1.0000
  C   C22       1.0  0.9210099999999999  0.59282  0.58048  1.0000
  C   C23       1.0  0.75183  0.08959  0.76948  1.0000
  C   C24       1.0  0.8723899999999999  0.09335  0.76956  1.0000
  C   C25       1.0  0.46465999999999996  0.15215  0.08019  1.0000
  C   C26       1.0  0.28143  0.31232  0.08212  1.0000
  C   C27       1.0  0.19914  0.39345  0.0822  1.0000
  C   C28       1.0  0.07898999999999999  0.59282  0.08048  1.0000
  C   C29       1.0  0.24816999999999997  0.0896  0.26947  1.0000
  C   C30       1.0  0.12762  0.09335  0.26957  1.0000
  C   C31       1.0  0.5353399999999999  0.8478500000000001  0.08019  1.0000
  C   C32       1.0  0.7185699999999998  0.68769  0.08212  1.0000
  C   C33       1.0  0.80085  0.60655  0.0822  1.0000
  C   C34       1.0  0.921  0.40718  0.08049  1.0000
  C   C35       1.0  0.7518199999999998  0.91041  0.26947  1.0000
  C   C36       1.0  0.87238  0.90665  0.26957  1.0000
  C   C37       1.0  0.5353399999999999  0.15213  0.4198  1.0000
  C   C38       1.0  0.71856  0.31231  0.4178800000000001  1.0000
  C   C39       1.0  0.80085  0.39345  0.4178000000000001  1.0000
  C   C40       1.0  0.921  0.59282  0.41952  1.0000
  C   C41       1.0  0.75183  0.08959  0.23052  1.0000
  C   C42       1.0  0.8723899999999999  0.09335  0.23043  1.0000
  C   C43       1.0  0.46465999999999996  0.84787  0.4198  1.0000
  C   C44       1.0  0.28143  0.68769  0.4178800000000001  1.0000
  C   C45       1.0  0.19915  0.60655  0.4178000000000001  1.0000
  C   C46       1.0  0.07898999999999999  0.40718  0.41951  1.0000
  C   C47       1.0  0.24816  0.91041  0.23052  1.0000
  C   C48       1.0  0.12761  0.90665  0.23043  1.0000
  C   C49       1.0  0.9357799999999998  0.0  0.75  1.0000
  C   C50       1.0  0.06422  0.0  0.75  1.0000
  C   C51       1.0  0.06422  0.0  0.25  1.0000
  C   C52       1.0  0.9357799999999998  0.0  0.25  1.0000
  C   C53       1.0  0.58259  0.80924  0.0  1.0000
  C   C54       1.0  0.67396  0.72857  0.0  1.0000
  C   C55       1.0  0.84176  0.56425  0.0  1.0000
  C   C56       1.0  0.93246  0.47564999999999996  0.0  1.0000
  C   C57       1.0  0.41741  0.19076000000000004  0.0  1.0000
  C   C58       1.0  0.32604  0.27143  0.0  1.0000
  C   C59       1.0  0.15822999999999998  0.43574999999999997  0.0  1.0000
  C   C60       1.0  0.06754  0.52435  0.0  1.0000
  C   C61       1.0  0.41742  0.80926  0.5  1.0000
  C   C62       1.0  0.32605  0.7285800000000001  0.5  1.0000
  C   C63       1.0  0.15824  0.56425  0.5  1.0000
  C   C64       1.0  0.06754  0.47564999999999996  0.5  1.0000
  C   C65       1.0  0.58258  0.19074  0.5  1.0000
  C   C66       1.0  0.6739499999999999  0.27142  0.5  1.0000
  C   C67       1.0  0.84176  0.43574999999999997  0.5  1.0000
  C   C68       1.0  0.93245  0.52435  0.5  1.0000
  N   N1        1.0  0.49499  0.87785  0.85107  1.0000
  N   N2        1.0  0.9098099999999999  0.35504  0.85455  1.0000
  N   N3        1.0  0.5050099999999998  0.12215  0.85107  1.0000
  N   N4        1.0  0.09019  0.64496  0.85455  1.0000
  N   N5        1.0  0.50497  0.87787  0.64896  1.0000
  N   N6        1.0  0.09019  0.35505  0.64544  1.0000
  N   N7        1.0  0.49502  0.12212  0.64896  1.0000
  N   N8        1.0  0.9098099999999999  0.64496  0.64545  1.0000
  N   N9        1.0  0.505  0.12214  0.14893  1.0000
  N   N10       1.0  0.09019  0.64496  0.14545  1.0000
  N   N11       1.0  0.49499  0.87785  0.14893  1.0000
  N   N12       1.0  0.9098099999999999  0.35504  0.14544  1.0000
  N   N13       1.0  0.49502  0.12212999999999999  0.3510500000000001  1.0000
  N   N14       1.0  0.9098099999999999  0.64496  0.35455  1.0000
  N   N15       1.0  0.5049799999999999  0.87787  0.3510500000000001  1.0000
  N   N16       1.0  0.09019  0.35505  0.35456  1.0000
  N   N17       1.0  0.6915099999999998  0.0  0.75001  1.0000
  N   N18       1.0  0.30849  0.0  0.75001  1.0000
  N   N19       1.0  0.30849  0.0  0.24999  1.0000
  N   N20       1.0  0.6915099999999998  0.0  0.24999  1.0000
