data_image0
_chemical_formula_structural       Cu4H64C64S8I4
_chemical_formula_sum              "Cu4 H64 C64 S8 I4"
_cell_length_a       7.04763
_cell_length_b       12.07327
_cell_length_c       21.02838
_cell_angle_alpha    90.00045
_cell_angle_beta     89.99137
_cell_angle_gamma    89.97695000000002

_space_group_name_H-M_alt    "P 1"
_space_group_IT_number       1

loop_
  _space_group_symop_operation_xyz
  'x, y, z'

loop_
  _atom_site_type_symbol
  _atom_site_label
  _atom_site_symmetry_multiplicity
  _atom_site_fract_x
  _atom_site_fract_y
  _atom_site_fract_z
  _atom_site_occupancy
  Cu  Cu1       1.0  0.25879  0.84722  0.75008  1.0000
  Cu  Cu2       1.0  0.24217999999999995  0.3451399999999999  0.24988999999999997  1.0000
  Cu  Cu3       1.0  0.74121  0.15278999999999998  0.24992  1.0000
  Cu  Cu4       1.0  0.75782  0.6548699999999998  0.75011  1.0000
  H   H1        1.0  0.36069  0.18258999999999997  0.8955  1.0000
  H   H2        1.0  0.52068  0.25895999999999997  0.99058  1.0000
  H   H3        1.0  0.29234  0.9952599999999999  0.1042  1.0000
  H   H4        1.0  0.14211  0.9154099999999997  0.008389999999999998  1.0000
  H   H5        1.0  0.0766  0.9152099999999999  0.8978899999999999  1.0000
  H   H6        1.0  0.09716  0.03892  0.8533399999999999  1.0000
  H   H7        1.0  0.36387  0.7660299999999999  0.9035799999999999  1.0000
  H   H8        1.0  0.56751  0.7800899999999998  0.8551499999999997  1.0000
  H   H9        1.0  0.1391  0.6824699999999998  0.10451  1.0000
  H   H10       1.0  0.9794099999999998  0.7589599999999997  0.009439999999999999  1.0000
  H   H11       1.0  0.20785  0.49523  0.8957899999999998  1.0000
  H   H12       1.0  0.35789  0.41527999999999987  0.99159  1.0000
  H   H13       1.0  0.4238  0.41499999999999987  0.10203  1.0000
  H   H14       1.0  0.40276  0.5385599999999999  0.14668  1.0000
  H   H15       1.0  0.13587  0.26553  0.0963  1.0000
  H   H16       1.0  0.93238  0.27984  0.14479  1.0000
  H   H17       1.0  0.63929  0.81745  0.3955  1.0000
  H   H18       1.0  0.4793099999999999  0.74107  0.49059  1.0000
  H   H19       1.0  0.7076999999999998  0.00472  0.60421  1.0000
  H   H20       1.0  0.85794  0.08456999999999998  0.50839  1.0000
  H   H21       1.0  0.92344  0.08483999999999998  0.39789999999999986  1.0000
  H   H22       1.0  0.90289  0.9611399999999998  0.35333999999999993  1.0000
  H   H23       1.0  0.63607  0.23404999999999995  0.4035799999999999  1.0000
  H   H24       1.0  0.43248999999999993  0.21996  0.35514  1.0000
  H   H25       1.0  0.86087  0.31754  0.60452  1.0000
  H   H26       1.0  0.02055999999999999  0.24106  0.50944  1.0000
  H   H27       1.0  0.79215  0.5047799999999999  0.39581  1.0000
  H   H28       1.0  0.64209  0.58472  0.4916199999999999  1.0000
  H   H29       1.0  0.57615  0.5850199999999999  0.60206  1.0000
  H   H30       1.0  0.59723  0.46145999999999987  0.64672  1.0000
  H   H31       1.0  0.86416  0.7345  0.5962899999999999  1.0000
  H   H32       1.0  0.06763  0.72023  0.64478  1.0000
  H   H33       1.0  0.63931  0.8174199999999999  0.10449999999999998  1.0000
  H   H34       1.0  0.47932  0.74105  0.00942  1.0000
  H   H35       1.0  0.7076599999999998  0.004749999999999999  0.8958  1.0000
  H   H36       1.0  0.85789  0.08459999999999998  0.99161  1.0000
  H   H37       1.0  0.9234  0.08479999999999997  0.10210999999999999  1.0000
  H   H38       1.0  0.90284  0.9610899999999998  0.14666  1.0000
  H   H39       1.0  0.63613  0.23397  0.09642  1.0000
  H   H40       1.0  0.43248999999999993  0.21992  0.14485  1.0000
  H   H41       1.0  0.8609  0.31754  0.8954799999999999  1.0000
  H   H42       1.0  0.02058  0.24105  0.9905599999999998  1.0000
  H   H43       1.0  0.79215  0.50477  0.10420999999999998  1.0000
  H   H44       1.0  0.6421099999999998  0.5847299999999999  0.00841  1.0000
  H   H45       1.0  0.5762  0.58501  0.8979699999999999  1.0000
  H   H46       1.0  0.59724  0.46144  0.85332  1.0000
  H   H47       1.0  0.8641299999999997  0.73448  0.9036999999999997  1.0000
  H   H48       1.0  0.06762  0.72017  0.8552  1.0000
  H   H49       1.0  0.36071  0.18256  0.6045  1.0000
  H   H50       1.0  0.52069  0.25893999999999995  0.50941  1.0000
  H   H51       1.0  0.2923  0.99529  0.39578999999999986  1.0000
  H   H52       1.0  0.14206  0.9154299999999997  0.49160999999999994  1.0000
  H   H53       1.0  0.07656  0.9151699999999998  0.6021  1.0000
  H   H54       1.0  0.09711  0.03885999999999999  0.6466599999999999  1.0000
  H   H55       1.0  0.36392999999999986  0.7659499999999998  0.5964199999999998  1.0000
  H   H56       1.0  0.5675100000000001  0.7800399999999997  0.64486  1.0000
  H   H57       1.0  0.13913  0.6824699999999998  0.3954799999999999  1.0000
  H   H58       1.0  0.97944  0.7589499999999998  0.4905599999999999  1.0000
  H   H59       1.0  0.20785  0.49523  0.6041899999999999  1.0000
  H   H60       1.0  0.35791  0.4152899999999999  0.50838  1.0000
  H   H61       1.0  0.42385  0.41499  0.39793999999999996  1.0000
  H   H62       1.0  0.4027699999999999  0.5385499999999999  0.35328  1.0000
  H   H63       1.0  0.13584  0.26549999999999996  0.40371  1.0000
  H   H64       1.0  0.93237  0.27978  0.35521  1.0000
  C   C1        1.0  0.34197  0.14236999999999997  0.94142  1.0000
  C   C2        1.0  0.4309  0.18593  0.9951599999999998  1.0000
  C   C3        1.0  0.41616  0.13286  0.05438  1.0000
  C   C4        1.0  0.30379  0.03767999999999999  0.05877  1.0000
  C   C5        1.0  0.22029  0.9925299999999999  0.00476  1.0000
  C   C6        1.0  0.24043999999999993  0.04271  0.94517  1.0000
  C   C7        1.0  0.17199  0.9839999999999998  0.88664  1.0000
  C   C8        1.0  0.4752399999999999  0.8241799999999999  0.88907  1.0000
  C   C9        1.0  0.15776  0.64214  0.058629999999999995  1.0000
  C   C10       1.0  0.069  0.68582  0.00487  1.0000
  C   C11       1.0  0.08378  0.6328599999999999  0.9456299999999999  1.0000
  C   C12       1.0  0.19609999999999997  0.5375999999999999  0.9412199999999998  1.0000
  C   C13       1.0  0.27948  0.49233999999999994  0.99526  1.0000
  C   C14       1.0  0.25925  0.54241  0.05488  1.0000
  C   C15       1.0  0.32804  0.48362  0.11338  1.0000
  C   C16       1.0  0.02474  0.32385  0.11089  1.0000
  C   C17       1.0  0.65801  0.8576699999999999  0.4414099999999999  1.0000
  C   C18       1.0  0.56908  0.8140899999999998  0.4951699999999999  1.0000
  C   C19       1.0  0.58384  0.8671399999999999  0.55439  1.0000
  C   C20       1.0  0.69621  0.9622999999999999  0.55879  1.0000
  C   C21       1.0  0.77972  0.00748  0.5047499999999999  1.0000
  C   C22       1.0  0.75953  0.9573299999999998  0.44515999999999994  1.0000
  C   C23       1.0  0.82803  0.01606  0.3866299999999999  1.0000
  C   C24       1.0  0.52476  0.17587  0.38905  1.0000
  C   C25       1.0  0.84223  0.3578799999999999  0.55864  1.0000
  C   C26       1.0  0.9309699999999999  0.3141999999999999  0.50487  1.0000
  C   C27       1.0  0.9162299999999998  0.3671599999999999  0.44561999999999996  1.0000
  C   C28       1.0  0.80388  0.4624  0.44124  1.0000
  C   C29       1.0  0.72051  0.50766  0.49529  1.0000
  C   C30       1.0  0.74077  0.45761999999999997  0.55492  1.0000
  C   C31       1.0  0.67194  0.51642  0.61342  1.0000
  C   C32       1.0  0.97524  0.67619  0.61091  1.0000
  C   C33       1.0  0.6580299999999999  0.8576299999999998  0.05858  1.0000
  C   C34       1.0  0.5691  0.8140799999999998  0.004839999999999999  1.0000
  C   C35       1.0  0.58384  0.86715  0.9456199999999999  1.0000
  C   C36       1.0  0.69621  0.96232  0.9412299999999998  1.0000
  C   C37       1.0  0.7797  0.00748  0.99524  1.0000
  C   C38       1.0  0.7595499999999997  0.9572999999999998  0.05482999999999999  1.0000
  C   C39       1.0  0.828  0.016  0.11335999999999999  1.0000
  C   C40       1.0  0.52476  0.17581999999999995  0.11092999999999999  1.0000
  C   C41       1.0  0.84224  0.3578699999999999  0.9413699999999999  1.0000
  C   C42       1.0  0.931  0.31419  0.9951299999999998  1.0000
  C   C43       1.0  0.91622  0.36714999999999987  0.054369999999999995  1.0000
  C   C44       1.0  0.8039  0.4624  0.058779999999999985  1.0000
  C   C45       1.0  0.7205199999999998  0.50766  0.00474  1.0000
  C   C46       1.0  0.74075  0.4575899999999999  0.9451199999999997  1.0000
  C   C47       1.0  0.67196  0.5163799999999998  0.88662  1.0000
  C   C48       1.0  0.97526  0.67616  0.88911  1.0000
  C   C49       1.0  0.34198  0.14233999999999997  0.55859  1.0000
  C   C50       1.0  0.43092  0.18591  0.50483  1.0000
  C   C51       1.0  0.4161499999999999  0.13287  0.44561  1.0000
  C   C52       1.0  0.30377999999999994  0.0377  0.44120999999999994  1.0000
  C   C53       1.0  0.22028  0.9925299999999999  0.49524999999999997  1.0000
  C   C54       1.0  0.24047  0.04268  0.55484  1.0000
  C   C55       1.0  0.17195999999999995  0.98395  0.61337  1.0000
  C   C56       1.0  0.4752399999999999  0.8241299999999998  0.61095  1.0000
  C   C57       1.0  0.15777  0.64213  0.44136  1.0000
  C   C58       1.0  0.06902  0.6858  0.49512999999999996  1.0000
  C   C59       1.0  0.08377  0.63285  0.55438  1.0000
  C   C60       1.0  0.19612  0.5376099999999999  0.55876  1.0000
  C   C61       1.0  0.27948  0.49234999999999995  0.50471  1.0000
  C   C62       1.0  0.25922  0.54238  0.4450799999999999  1.0000
  C   C63       1.0  0.3280499999999999  0.48358999999999996  0.38658  1.0000
  C   C64       1.0  0.02475  0.32382  0.38909  1.0000
  S   S1        1.0  0.37195  0.93207  0.8382499999999999  1.0000
  S   S2        1.0  0.12859  0.43126999999999993  0.16187  1.0000
  S   S3        1.0  0.62818  0.06802  0.3382299999999999  1.0000
  S   S4        1.0  0.87126  0.5688599999999999  0.66193  1.0000
  S   S5        1.0  0.62805  0.06792999999999999  0.16175  1.0000
  S   S6        1.0  0.87141  0.56874  0.8381299999999998  1.0000
  S   S7        1.0  0.37181999999999993  0.9319899999999999  0.66177  1.0000
  S   S8        1.0  0.12874  0.43113999999999997  0.33807  1.0000
  I   I1        1.0  0.8635899999999997  0.8675599999999998  0.75007  1.0000
  I   I2        1.0  0.63717  0.36581999999999987  0.24993999999999997  1.0000
  I   I3        1.0  0.13641  0.13243999999999997  0.24992999999999999  1.0000
  I   I4        1.0  0.36283  0.63419  0.7500599999999998  1.0000
