data_image0
_chemical_formula_structural       Mn8H16C64N8O48
_chemical_formula_sum              "Mn8 H16 C64 N8 O48"
_cell_length_a       13.5173
_cell_length_b       14.99736
_cell_length_c       15.275449999999998
_cell_angle_alpha    61.98611
_cell_angle_beta     81.60892
_cell_angle_gamma    81.31778

_space_group_name_H-M_alt    "P 1"
_space_group_IT_number       1

loop_
  _space_group_symop_operation_xyz
  'x, y, z'

loop_
  _atom_site_type_symbol
  _atom_site_label
  _atom_site_symmetry_multiplicity
  _atom_site_fract_x
  _atom_site_fract_y
  _atom_site_fract_z
  _atom_site_occupancy
  Mn  Mn1       1.0  0.14008  0.7123800000000002  0.55107  1.0000
  Mn  Mn2       1.0  0.38157  0.6643  0.6422  1.0000
  Mn  Mn3       1.0  0.3684299999999999  0.4436400000000002  0.28733  1.0000
  Mn  Mn4       1.0  0.11903000000000001  0.35777  0.32395  1.0000
  Mn  Mn5       1.0  0.8605  0.28808999999999996  0.44888000000000006  1.0000
  Mn  Mn6       1.0  0.61877  0.33595  0.35751  1.0000
  Mn  Mn7       1.0  0.63187  0.55689  0.71236  1.0000
  Mn  Mn8       1.0  0.8815999999999999  0.6421600000000004  0.67616  1.0000
  H   H1        1.0  0.9818400000000003  0.34792000000000023  0.74113  1.0000
  H   H2        1.0  0.17973999999999996  0.47512000000000015  0.47243  1.0000
  H   H3        1.0  0.33901999999999993  0.9175800000000003  0.69582  1.0000
  H   H4        1.0  0.09103000000000004  0.9985800000000001  0.51636  1.0000
  H   H5        1.0  0.51714  0.25072  0.65686  1.0000
  H   H6        1.0  0.31699000000000005  0.52305  0.53026  1.0000
  H   H7        1.0  0.15677  0.3030900000000001  0.07639  1.0000
  H   H8        1.0  0.4141299999999999  0.4710000000000001  0.00075  1.0000
  H   H9        1.0  0.01909000000000002  0.6523  0.25917  1.0000
  H   H10       1.0  0.8206900000000003  0.5253  0.52715  1.0000
  H   H11       1.0  0.6627  0.0841  0.30247  1.0000
  H   H12       1.0  0.9093799999999999  0.0014799999999999779  0.4835900000000001  1.0000
  H   H13       1.0  0.48319  0.7494100000000002  0.34308  1.0000
  H   H14       1.0  0.68338  0.47725000000000006  0.46975  1.0000
  H   H15       1.0  0.84361  0.69684  0.92371  1.0000
  H   H16       1.0  0.58574  0.52973  0.99896  1.0000
  C   C1        1.0  0.04892999999999998  0.5257500000000003  0.6007  1.0000
  C   C2        1.0  0.07777000000000008  0.42438  0.60561  1.0000
  C   C3        1.0  0.03697999999999998  0.3397  0.68546  1.0000
  C   C4        1.0  0.06854999999999999  0.24320000000000003  0.69538  1.0000
  C   C5        1.0  0.1416  0.22597000000000003  0.62808  1.0000
  C   C6        1.0  0.1805  0.31225  0.54659  1.0000
  C   C7        1.0  0.1486  0.40995000000000004  0.53552  1.0000
  C   C8        1.0  0.16738999999999998  0.12577000000000005  0.6280700000000001  1.0000
  C   C9        1.0  0.25024  0.05676999999999999  0.67048  1.0000
  C   C10       1.0  0.27376  0.9677500000000004  0.66206  1.0000
  C   C11       1.0  0.21393  0.94425  0.60947  1.0000
  C   C12       1.0  0.13440000000000002  0.014279999999999977  0.56133  1.0000
  C   C13       1.0  0.11231999999999999  0.10403000000000003  0.56986  1.0000
  C   C14       1.0  0.031639999999999995  0.17985000000000007  0.51151  1.0000
  C   C15       1.0  0.23731999999999998  0.8483700000000001  0.60208  1.0000
  C   C16       1.0  0.26323  0.3000399999999999  0.4750400000000001  1.0000
  C   C17       1.0  0.45341  0.39835000000000015  0.4799  1.0000
  C   C18       1.0  0.41991  0.3880300000000002  0.58138  1.0000
  C   C19       1.0  0.46028  0.30655  0.66467  1.0000
  C   C20       1.0  0.42716000000000004  0.29581  0.7593  1.0000
  C   C21       1.0  0.35267000000000004  0.36393000000000003  0.77553  1.0000
  C   C22       1.0  0.3137400000000001  0.4471800000000001  0.69037  1.0000
  C   C23       1.0  0.34732  0.4585  0.5948  1.0000
  C   C24       1.0  0.32813  0.36508000000000007  0.87343  1.0000
  C   C25       1.0  0.24415000000000006  0.3259400000000001  0.93999  1.0000
  C   C26       1.0  0.22286000000000009  0.33447  0.02748  1.0000
  C   C27       1.0  0.28635  0.3841900000000001  0.05104000000000001  1.0000
  C   C28       1.0  0.36742  0.42916999999999994  0.98358  1.0000
  C   C29       1.0  0.38717  0.42085  0.89518  1.0000
  C   C30       1.0  0.47311000000000003  0.4718900000000001  0.8234200000000002  1.0000
  C   C31       1.0  0.26550000000000007  0.3917000000000001  0.14603  1.0000
  C   C32       1.0  0.23223000000000002  0.52193  0.70079  1.0000
  C   C33       1.0  0.9517400000000003  0.47469000000000006  0.399  1.0000
  C   C34       1.0  0.9227599999999998  0.5759700000000002  0.39415000000000006  1.0000
  C   C35       1.0  0.9636399999999999  0.6606100000000003  0.31455  1.0000
  C   C36       1.0  0.9319  0.7570200000000002  0.30469  1.0000
  C   C37       1.0  0.85843  0.7744  0.37159  1.0000
  C   C38       1.0  0.8195500000000002  0.6880699999999998  0.45298  1.0000
  C   C39       1.0  0.85178  0.59044  0.46411  1.0000
  C   C40       1.0  0.8328400000000001  0.8746600000000002  0.37152  1.0000
  C   C41       1.0  0.7503699999999998  0.9441100000000003  0.32872  1.0000
  C   C42       1.0  0.7275800000000001  0.033469999999999986  0.33662000000000003  1.0000
  C   C43       1.0  0.7875500000000002  0.056620000000000004  0.38933  1.0000
  C   C44       1.0  0.8663600000000002  0.98598  0.43822  1.0000
  C   C45       1.0  0.8878900000000002  0.8960300000000004  0.43007  1.0000
  C   C46       1.0  0.9683400000000004  0.8201800000000002  0.48881  1.0000
  C   C47       1.0  0.76436  0.15253000000000003  0.3967  1.0000
  C   C48       1.0  0.7369500000000003  0.69996  0.52473  1.0000
  C   C49       1.0  0.5468  0.60183  0.51998  1.0000
  C   C50       1.0  0.5804900000000001  0.61217  0.41854  1.0000
  C   C51       1.0  0.54013  0.6936600000000002  0.33526  1.0000
  C   C52       1.0  0.57317  0.7043900000000002  0.24063  1.0000
  C   C53       1.0  0.64761  0.63626  0.22438  1.0000
  C   C54       1.0  0.6865  0.5529500000000003  0.30953  1.0000
  C   C55       1.0  0.6530000000000002  0.5416500000000002  0.40513  1.0000
  C   C56       1.0  0.67208  0.6352900000000002  0.12641  1.0000
  C   C57       1.0  0.75602  0.67447  0.05988  1.0000
  C   C58       1.0  0.7774500000000002  0.6656800000000002  0.9725500000000001  1.0000
  C   C59       1.0  0.71422  0.61567  0.94911  1.0000
  C   C60       1.0  0.6327100000000001  0.57129  0.01621  1.0000
  C   C61       1.0  0.6128400000000002  0.5798000000000001  0.10452000000000002  1.0000
  C   C62       1.0  0.52685  0.52893  0.17629  1.0000
  C   C63       1.0  0.7360400000000001  0.60714  0.85467  1.0000
  C   C64       1.0  0.76798  0.47822000000000003  0.29908  1.0000
  N   N1        1.0  0.022459999999999994  0.15751999999999997  0.78175  1.0000
  N   N2        1.0  0.31845  0.07982000000000011  0.72263  1.0000
  N   N3        1.0  0.47439  0.20819999999999997  0.84374  1.0000
  N   N4        1.0  0.17269  0.27715  0.91596  1.0000
  N   N5        1.0  0.9793999999999999  0.8424900000000002  0.21958  1.0000
  N   N6        1.0  0.6817199999999999  0.9215500000000002  0.27649  1.0000
  N   N7        1.0  0.52575  0.79191  0.1562  1.0000
  N   N8        1.0  0.8274100000000001  0.72328  0.08388  1.0000
  O   O1        1.0  0.10446999999999995  0.5976000000000002  0.54232  1.0000
  O   O2        1.0  0.9729  0.5350000000000001  0.65717  1.0000
  O   O3        1.0  0.29028  0.15158000000000005  0.7423000000000001  1.0000
  O   O4        1.0  0.39989  0.027159999999999976  0.74237  1.0000
  O   O5        1.0  0.9494500000000005  0.17831000000000005  0.83028  1.0000
  O   O6        1.0  0.060249999999999984  0.07052999999999998  0.79973  1.0000
  O   O7        1.0  0.32061999999999996  0.7959200000000004  0.63264  1.0000
  O   O8        1.0  0.17258  0.8252700000000001  0.56379  1.0000
  O   O9        1.0  0.04941000000000003  0.23065  0.41625  1.0000
  O   O10       1.0  0.94611  0.19182  0.55437  1.0000
  O   O11       1.0  0.24927000000000002  0.3620600000000001  0.37862  1.0000
  O   O12       1.0  0.3393000000000001  0.24156  0.50205  1.0000
  O   O13       1.0  0.40068000000000004  0.4593400000000001  0.4084  1.0000
  O   O14       1.0  0.5339099999999999  0.34439  0.47174000000000005  1.0000
  O   O15       1.0  0.20000999999999997  0.2546  0.8471200000000001  1.0000
  O   O16       1.0  0.08985000000000001  0.26317000000000007  0.96474  1.0000
  O   O17       1.0  0.55007  0.16138999999999995  0.82343  1.0000
  O   O18       1.0  0.43484000000000006  0.18789  0.92873  1.0000
  O   O19       1.0  0.1829  0.3599800000000001  0.19742  1.0000
  O   O20       1.0  0.33003999999999994  0.42930000000000007  0.16889  1.0000
  O   O21       1.0  0.46020000000000005  0.5694699999999999  0.7636400000000001  1.0000
  O   O22       1.0  0.55718  0.42348  0.82261  1.0000
  O   O23       1.0  0.24587  0.61945  0.63201  1.0000
  O   O24       1.0  0.16030000000000005  0.49989999999999996  0.7631900000000001  1.0000
  O   O25       1.0  0.8957100000000001  0.4031600000000002  0.45702000000000004  1.0000
  O   O26       1.0  0.028320000000000043  0.46512  0.3431  1.0000
  O   O27       1.0  0.7101300000000001  0.85127  0.25473  1.0000
  O   O28       1.0  0.5997100000000001  0.9733500000000004  0.25845  1.0000
  O   O29       1.0  0.05056999999999997  0.8216300000000002  0.16939  1.0000
  O   O30       1.0  0.9448000000000002  0.9295600000000003  0.20452  1.0000
  O   O31       1.0  0.68107  0.20503  0.36586  1.0000
  O   O32       1.0  0.8292000000000003  0.17509000000000002  0.43541  1.0000
  O   O33       1.0  0.95041  0.7699700000000002  0.5841  1.0000
  O   O34       1.0  0.05398000000000002  0.80812  0.44614  1.0000
  O   O35       1.0  0.75118  0.6380600000000002  0.6211500000000001  1.0000
  O   O36       1.0  0.6607099999999999  0.7582200000000002  0.49781  1.0000
  O   O37       1.0  0.59936  0.54086  0.59162  1.0000
  O   O38       1.0  0.4661800000000002  0.6557100000000001  0.52799  1.0000
  O   O39       1.0  0.8000900000000002  0.7456000000000002  0.15288  1.0000
  O   O40       1.0  0.91015  0.7375  0.03491  1.0000
  O   O41       1.0  0.45009  0.8387700000000003  0.17650000000000002  1.0000
  O   O42       1.0  0.5651700000000002  0.81209  0.07121  1.0000
  O   O43       1.0  0.82019  0.63603  0.80501  1.0000
  O   O44       1.0  0.6705600000000003  0.57152  0.83067  1.0000
  O   O45       1.0  0.53985  0.4313600000000001  0.2361  1.0000
  O   O46       1.0  0.44274  0.57725  0.17718  1.0000
  O   O47       1.0  0.75444  0.38072999999999996  0.368  1.0000
  O   O48       1.0  0.8397900000000003  0.50025  0.2365  1.0000
