data_image0
_chemical_formula_structural       Cd4H44C68N16O16
_chemical_formula_sum              "Cd4 H44 C68 N16 O16"
_cell_length_a       9.20783
_cell_length_b       10.84933
_cell_length_c       18.73208
_cell_angle_alpha    89.94254
_cell_angle_beta     89.93746000000002
_cell_angle_gamma    104.9288

_symmetry_space_group_name_H-M    'P 1'
_symmetry_Int_Tables_number       1

loop_
  _symmetry_equiv_pos_as_xyz
  'x,y,z'

loop_
  _atom_site_type_symbol
  _atom_site_label
  _atom_site_symmetry_multiplicity
  _atom_site_fract_x
  _atom_site_fract_y
  _atom_site_fract_z
  _atom_site_occupancy
  Cd  Cd1       1.0  0.50395  0.83931  0.37748  1.0000
  Cd  Cd2       1.0  0.49573  0.66144  0.8779  1.0000
  Cd  Cd3       1.0  0.49604  0.16068  0.62252  1.0000
  Cd  Cd4       1.0  0.50426  0.33855  0.12209999999999999  1.0000
  H   H1        1.0  0.62292  0.35132  0.37725  1.0000
  H   H2        1.0  0.06627999999999998  0.53566  0.29503  1.0000
  H   H3        1.0  0.93457  0.12985  0.33121  1.0000
  H   H4        1.0  0.03335999999999999  0.69977  0.35476  1.0000
  H   H5        1.0  0.8773100000000001  0.88673  0.36296  1.0000
  H   H6        1.0  0.56472  0.53235  0.33208  1.0000
  H   H7        1.0  0.19477999999999998  0.18446  0.36937  1.0000
  H   H8        1.0  0.44842  0.19706000000000004  0.28904  1.0000
  H   H9        1.0  0.21212  0.44556000000000007  0.19861  1.0000
  H   H10       1.0  0.20800999999999997  0.41597000000000006  0.45295  1.0000
  H   H11       1.0  0.029919999999999954  0.73426  0.50073  1.0000
  H   H12       1.0  0.37714  0.14881  0.8772900000000001  1.0000
  H   H13       1.0  0.93434  0.9646  0.79533  1.0000
  H   H14       1.0  0.0658  0.37048  0.83116  1.0000
  H   H15       1.0  0.9666799999999999  0.8000799999999999  0.8547199999999999  1.0000
  H   H16       1.0  0.12275999999999998  0.61328  0.86314  1.0000
  H   H17       1.0  0.4358099999999999  0.9677900000000002  0.8328999999999999  1.0000
  H   H18       1.0  0.80502  0.3152  0.8694100000000001  1.0000
  H   H19       1.0  0.55154  0.30248  0.78921  1.0000
  H   H20       1.0  0.78848  0.05451  0.69882  1.0000
  H   H21       1.0  0.7948699999999997  0.08813  0.95314  1.0000
  H   H22       1.0  0.96519  0.7651500000000001  0.99955  1.0000
  H   H23       1.0  0.37707  0.64868  0.62275  1.0000
  H   H24       1.0  0.9337099999999999  0.46433  0.70496  1.0000
  H   H25       1.0  0.06542  0.87015  0.66878  1.0000
  H   H26       1.0  0.96663  0.30023  0.64523  1.0000
  H   H27       1.0  0.12268  0.11327  0.63704  1.0000
  H   H28       1.0  0.43526999999999993  0.46765  0.66792  1.0000
  H   H29       1.0  0.80521  0.81554  0.63063  1.0000
  H   H30       1.0  0.5515699999999998  0.8029299999999999  0.71095  1.0000
  H   H31       1.0  0.7878699999999998  0.55444  0.80139  1.0000
  H   H32       1.0  0.7919799999999999  0.58403  0.54705  1.0000
  H   H33       1.0  0.97007  0.26574  0.49927000000000005  1.0000
  H   H34       1.0  0.62285  0.85119  0.12271000000000001  1.0000
  H   H35       1.0  0.06566  0.03539  0.20467  1.0000
  H   H36       1.0  0.9341899999999999  0.62952  0.16884  1.0000
  H   H37       1.0  0.03331000000000001  0.19991  0.14528  1.0000
  H   H38       1.0  0.8772299999999998  0.38671  0.13686  1.0000
  H   H39       1.0  0.56418  0.03221  0.1671  1.0000
  H   H40       1.0  0.19496999999999995  0.68479  0.13059  1.0000
  H   H41       1.0  0.44845  0.69752  0.21078  1.0000
  H   H42       1.0  0.21150999999999998  0.9454900000000002  0.30118  1.0000
  H   H43       1.0  0.20512  0.91186  0.04686  1.0000
  H   H44       1.0  0.0348  0.23485  0.00044  1.0000
  C   C1        1.0  0.76707  0.22895  0.35453  1.0000
  C   C2        1.0  0.7318  0.34688  0.35656  1.0000
  C   C3        1.0  0.83923  0.4567  0.33443  1.0000
  C   C4        1.0  0.9817899999999999  0.45039  0.31118  1.0000
  C   C5        1.0  0.01616  0.33251  0.31175  1.0000
  C   C6        1.0  0.90975  0.22232  0.33263  1.0000
  C   C7        1.0  0.6522099999999998  0.10662  0.37332  1.0000
  C   C8        1.0  0.91523  0.69404  0.34873  1.0000
  C   C9        1.0  0.83733  0.78528  0.35371  1.0000
  C   C10       1.0  0.66976  0.60424  0.33855  1.0000
  C   C11       1.0  0.23532  0.23769  0.32135  1.0000
  C   C12       1.0  0.36178  0.24664  0.28088  1.0000
  C   C13       1.0  0.24480000000000002  0.37802  0.23362  1.0000
  C   C14       1.0  0.13224000000000002  0.58346  0.4740599999999999  1.0000
  C   C15       1.0  0.11607  0.45124  0.47382  1.0000
  C   C16       1.0  0.015269999999999985  0.63163  0.50067  1.0000
  C   C17       1.0  0.27033  0.6714  0.44268  1.0000
  C   C18       1.0  0.23298000000000002  0.27114  0.85451  1.0000
  C   C19       1.0  0.26833999999999997  0.15323  0.8566099999999999  1.0000
  C   C20       1.0  0.1611  0.04348  0.83453  1.0000
  C   C21       1.0  0.018769999999999995  0.049929999999999995  0.8112  1.0000
  C   C22       1.0  0.98425  0.16776  0.81168  1.0000
  C   C23       1.0  0.09048  0.27792  0.83255  1.0000
  C   C24       1.0  0.34779  0.39338  0.87331  1.0000
  C   C25       1.0  0.08492  0.80602  0.84888  1.0000
  C   C26       1.0  0.16277  0.7148  0.85404  1.0000
  C   C27       1.0  0.33053  0.8960099999999999  0.83918  1.0000
  C   C28       1.0  0.7647799999999999  0.26215  0.82141  1.0000
  C   C29       1.0  0.6383299999999998  0.25306  0.78106  1.0000
  C   C30       1.0  0.75567  0.12194000000000002  0.73382  1.0000
  C   C31       1.0  0.8673499999999998  0.9188299999999999  0.9736200000000002  1.0000
  C   C32       1.0  0.88567  0.051250000000000004  0.97392  1.0000
  C   C33       1.0  0.98229  0.86805  8e-05  1.0000
  C   C34       1.0  0.72857  0.8330100000000001  0.9421  1.0000
  C   C35       1.0  0.23292  0.77105  0.64546  1.0000
  C   C36       1.0  0.26819  0.65311  0.64343  1.0000
  C   C37       1.0  0.16076  0.54329  0.66557  1.0000
  C   C38       1.0  0.0182  0.54961  0.68882  1.0000
  C   C39       1.0  0.9838299999999999  0.66748  0.68825  1.0000
  C   C40       1.0  0.09024000000000001  0.77768  0.66736  1.0000
  C   C41       1.0  0.34778  0.89338  0.62668  1.0000
  C   C42       1.0  0.08477  0.30595  0.65126  1.0000
  C   C43       1.0  0.16266  0.21472  0.64628  1.0000
  C   C44       1.0  0.33023  0.39575  0.66145  1.0000
  C   C45       1.0  0.76467  0.76231  0.67865  1.0000
  C   C46       1.0  0.6382099999999999  0.75336  0.71911  1.0000
  C   C47       1.0  0.75519  0.62198  0.76638  1.0000
  C   C48       1.0  0.86775  0.41654  0.52593  1.0000
  C   C49       1.0  0.88392  0.54875  0.52617  1.0000
  C   C50       1.0  0.98472  0.36836  0.49932  1.0000
  C   C51       1.0  0.72966  0.32859  0.55731  1.0000
  C   C52       1.0  0.76701  0.72886  0.14549  1.0000
  C   C53       1.0  0.73165  0.8467699999999999  0.14338  1.0000
  C   C54       1.0  0.83889  0.95652  0.16547  1.0000
  C   C55       1.0  0.98122  0.9500699999999999  0.18879  1.0000
  C   C56       1.0  0.01574000000000004  0.8322400000000001  0.18831  1.0000
  C   C57       1.0  0.9095199999999999  0.72208  0.16745  1.0000
  C   C58       1.0  0.6522099999999998  0.60661  0.12669  1.0000
  C   C59       1.0  0.9150700000000002  0.19398  0.15112  1.0000
  C   C60       1.0  0.83722  0.2852  0.14596  1.0000
  C   C61       1.0  0.6694599999999999  0.10399  0.16081  1.0000
  C   C62       1.0  0.23521  0.73785  0.17859  1.0000
  C   C63       1.0  0.36166  0.74693  0.21894  1.0000
  C   C64       1.0  0.24432000000000004  0.8780500000000001  0.26617  1.0000
  C   C65       1.0  0.13265  0.08116  0.02638  1.0000
  C   C66       1.0  0.11432000000000006  0.94875  0.02607  1.0000
  C   C67       1.0  0.017700000000000007  0.13195  0.99991  1.0000
  C   C68       1.0  0.27142  0.16698  0.05790000000000001  1.0000
  N   N1        1.0  0.68484  0.72858  0.34711  1.0000
  N   N2        1.0  0.8081799999999999  0.57852  0.33887  1.0000
  N   N3        1.0  0.3664799999999999  0.33433  0.22653  1.0000
  N   N4        1.0  0.16105  0.32148  0.29094  1.0000
  N   N5        1.0  0.31531999999999993  0.77162  0.84778  1.0000
  N   N6        1.0  0.19206999999999996  0.9216300000000001  0.83918  1.0000
  N   N7        1.0  0.63386  0.16544  0.72681  1.0000
  N   N8        1.0  0.8393099999999998  0.17857  0.791  1.0000
  N   N9        1.0  0.31515  0.27141  0.65289  1.0000
  N   N10       1.0  0.19181  0.42147  0.66113  1.0000
  N   N11       1.0  0.63351  0.66567  0.77346  1.0000
  N   N12       1.0  0.83894  0.67852  0.70905  1.0000
  N   N13       1.0  0.6846699999999999  0.22837  0.15222  1.0000
  N   N14       1.0  0.80792  0.07837  0.16082  1.0000
  N   N15       1.0  0.36613  0.83456  0.27319  1.0000
  N   N16       1.0  0.16068000000000002  0.82142  0.209  1.0000
  O   O1        1.0  0.51718  0.10613000000000002  0.38188  1.0000
  O   O2        1.0  0.70391  0.006509999999999999  0.37552  1.0000
  O   O3        1.0  0.28123  0.792  0.44301999999999997  1.0000
  O   O4        1.0  0.36982  0.62418  0.41446  1.0000
  O   O5        1.0  0.48265  0.39375  0.88217  1.0000
  O   O6        1.0  0.29614  0.49355000000000004  0.87532  1.0000
  O   O7        1.0  0.7167  0.7121  0.9427799999999998  1.0000
  O   O8        1.0  0.63051  0.88148  0.9139299999999999  1.0000
  O   O9        1.0  0.48281  0.8938699999999999  0.61811  1.0000
  O   O10       1.0  0.29608000000000007  0.9934900000000001  0.62448  1.0000
  O   O11       1.0  0.71876  0.208  0.55698  1.0000
  O   O12       1.0  0.63017  0.37582  0.58554  1.0000
  O   O13       1.0  0.51734  0.60624  0.11783  1.0000
  O   O14       1.0  0.70385  0.50645  0.12468  1.0000
  O   O15       1.0  0.28329  0.28789  0.05722  1.0000
  O   O16       1.0  0.36948  0.11852  0.08607  1.0000
