data_image0
_chemical_formula_structural       Gd8H24C56N8O32
_chemical_formula_sum              "Gd8 H24 C56 N8 O32"
_cell_length_a       12.19977
_cell_length_b       17.20932
_cell_length_c       15.44182
_cell_angle_alpha    80.43402
_cell_angle_beta     61.35722
_cell_angle_gamma    66.95953

_symmetry_space_group_name_H-M    'P 1'
_symmetry_Int_Tables_number       1

loop_
  _symmetry_equiv_pos_as_xyz
  'x,y,z'

loop_
  _atom_site_type_symbol
  _atom_site_label
  _atom_site_symmetry_multiplicity
  _atom_site_fract_x
  _atom_site_fract_y
  _atom_site_fract_z
  _atom_site_occupancy
  Gd  Gd1       1.0  0.8087699999999999  0.22545000000000007  0.95012  1.0000
  Gd  Gd2       1.0  0.3215700000000001  0.52767  0.2598  1.0000
  Gd  Gd3       1.0  0.011169999999999996  0.26233  0.51936  1.0000
  Gd  Gd4       1.0  0.10794000000000013  0.9916  0.20793  1.0000
  Gd  Gd5       1.0  0.18665999999999996  0.78253  0.01704  1.0000
  Gd  Gd6       1.0  0.70128  0.4452700000000001  0.75251  1.0000
  Gd  Gd7       1.0  0.99433  0.71871  0.48936000000000013  1.0000
  Gd  Gd8       1.0  0.9017000000000001  0.03607000000000001  0.7424500000000002  1.0000
  H   H1        1.0  0.2811499999999999  0.41310000000000013  0.11511  1.0000
  H   H2        1.0  0.21002000000000004  0.317  0.062370000000000016  1.0000
  H   H3        1.0  0.3836699999999999  0.19347  0.9492100000000002  1.0000
  H   H4        1.0  0.71741  0.03847000000000001  0.11352  1.0000
  H   H5        1.0  0.6667999999999998  0.90792  0.19595  1.0000
  H   H6        1.0  0.7843599999999994  0.82165  0.29775000000000007  1.0000
  H   H7        1.0  0.80135  0.1163  0.38229  1.0000
  H   H8        1.0  0.55869  0.19473  0.49565  1.0000
  H   H9        1.0  0.4975400000000002  0.3  0.6181  1.0000
  H   H10       1.0  0.86668  0.46028  0.43329  1.0000
  H   H11       1.0  0.7395400000000002  0.58001  0.3593  1.0000
  H   H12       1.0  0.85413  0.6770800000000002  0.24397  1.0000
  H   H13       1.0  0.7166299999999999  0.6042  0.85061  1.0000
  H   H14       1.0  0.78413  0.71125  0.88814  1.0000
  H   H15       1.0  0.6045299999999992  0.8413700000000002  0.9905600000000002  1.0000
  H   H16       1.0  0.24086000000000005  0.95116  0.9054400000000001  1.0000
  H   H17       1.0  0.3537499999999999  0.05601  0.8150500000000003  1.0000
  H   H18       1.0  0.2809599999999999  0.1529800000000001  0.6944400000000002  1.0000
  H   H19       1.0  0.19759999999999991  0.86794  0.62736  1.0000
  H   H20       1.0  0.43800999999999973  0.7691300000000002  0.5408800000000001  1.0000
  H   H21       1.0  0.49894  0.6554  0.4259800000000001  1.0000
  H   H22       1.0  0.12651  0.55056  0.57691  1.0000
  H   H23       1.0  0.24452999999999991  0.46213  0.67591  1.0000
  H   H24       1.0  0.15548  0.35476  0.79143  1.0000
  C   C1        1.0  0.48768999999999996  0.3337900000000001  0.04033  1.0000
  C   C2        1.0  0.35379000000000005  0.35674  0.0687  1.0000
  C   C3        1.0  0.31489  0.30368  0.0367  1.0000
  C   C4        1.0  0.41147999999999996  0.23491000000000006  0.9738  1.0000
  C   C5        1.0  0.54832  0.21583  0.9438100000000003  1.0000
  C   C6        1.0  0.5438900000000001  0.37896  0.07409  1.0000
  C   C7        1.0  0.66062  0.14931000000000005  0.87879  1.0000
  C   C8        1.0  0.8566500000000001  0.02063  0.16801000000000002  1.0000
  C   C9        1.0  0.76418  0.99996  0.15866  1.0000
  C   C10       1.0  0.7351899999999997  0.9271800000000002  0.20565  1.0000
  C   C11       1.0  0.7996499999999997  0.8792400000000001  0.26152000000000003  1.0000
  C   C12       1.0  0.8891199999999998  0.90435  0.27141  1.0000
  C   C13       1.0  0.90716  0.08883000000000002  0.11418000000000002  1.0000
  C   C14       1.0  0.9660799999999999  0.86  0.3240800000000001  1.0000
  C   C15       1.0  0.8666700000000002  0.18362  0.44247  1.0000
  C   C16       1.0  0.77184  0.16374  0.43597  1.0000
  C   C17       1.0  0.6354999999999998  0.20773  0.50032  1.0000
  C   C18       1.0  0.6016099999999999  0.26695  0.56839  1.0000
  C   C19       1.0  0.70258  0.28388  0.57309  1.0000
  C   C20       1.0  0.013949999999999923  0.14421000000000006  0.3792900000000001  1.0000
  C   C21       1.0  0.6861499999999999  0.34149  0.63877  1.0000
  C   C22       1.0  0.04367999999999994  0.49085000000000006  0.35622  1.0000
  C   C23       1.0  0.9130900000000004  0.50278  0.3823  1.0000
  C   C24       1.0  0.84126  0.57027  0.3416400000000001  1.0000
  C   C25       1.0  0.9039399999999999  0.62409  0.27758  1.0000
  C   C26       1.0  0.03475  0.61073  0.25538  1.0000
  C   C27       1.0  0.1317799999999999  0.42179  0.3900000000000001  1.0000
  C   C28       1.0  0.11144000000000005  0.6611  0.19020000000000006  1.0000
  C   C29       1.0  0.5100499999999998  0.68203  0.9181400000000001  1.0000
  C   C30       1.0  0.6430500000000001  0.66341  0.88987  1.0000
  C   C31       1.0  0.6795399999999998  0.72319  0.9132900000000003  1.0000
  C   C32       1.0  0.5811299999999999  0.79541  0.9686200000000003  1.0000
  C   C33       1.0  0.44616999999999996  0.8109000000000001  0.9978800000000001  1.0000
  C   C34       1.0  0.45595000000000024  0.62612  0.89831  1.0000
  C   C35       1.0  0.33416999999999997  0.8796300000000002  0.05986  1.0000
  C   C36       1.0  0.12135999999999997  0.98606  0.8293700000000002  1.0000
  C   C37       1.0  0.21641999999999978  0.9914500000000003  0.85007  1.0000
  C   C38       1.0  0.27809000000000006  0.05161  0.80024  1.0000
  C   C39       1.0  0.23895999999999992  0.10477000000000003  0.73395  1.0000
  C   C40       1.0  0.14031999999999992  0.09731000000000004  0.7167300000000001  1.0000
  C   C41       1.0  0.04870999999999993  0.9266  0.87545  1.0000
  C   C42       1.0  0.09169999999999998  0.1495  0.65107  1.0000
  C   C43       1.0  0.13229000000000005  0.80231  0.56555  1.0000
  C   C44       1.0  0.2267399999999999  0.81626  0.5792  1.0000
  C   C45       1.0  0.3618899999999998  0.76099  0.5299700000000002  1.0000
  C   C46       1.0  0.39609999999999984  0.69733  0.4668  1.0000
  C   C47       1.0  0.29600999999999994  0.68619  0.45499000000000006  1.0000
  C   C48       1.0  0.9875000000000002  0.85494  0.61019  1.0000
  C   C49       1.0  0.3151399999999999  0.62577  0.39098  1.0000
  C   C50       1.0  0.9658899999999999  0.50272  0.6511800000000001  1.0000
  C   C51       1.0  0.08549999999999985  0.5077300000000002  0.63224  1.0000
  C   C52       1.0  0.15505999999999998  0.4552600000000001  0.68494  1.0000
  C   C53       1.0  0.10634999999999979  0.39599000000000006  0.7486900000000002  1.0000
  C   C54       1.0  0.9880099999999998  0.39052  0.7613000000000001  1.0000
  C   C55       1.0  0.8763699999999999  0.55763  0.60879  1.0000
  C   C56       1.0  0.9320799999999998  0.32981  0.8204  1.0000
  N   N1        1.0  0.58303  0.265  0.9818400000000002  1.0000
  N   N2        1.0  0.91724  0.9751000000000002  0.22495000000000007  1.0000
  N   N3        1.0  0.83541  0.24211000000000005  0.50806  1.0000
  N   N4        1.0  0.10562999999999997  0.54376  0.29343  1.0000
  N   N5        1.0  0.41282000000000013  0.75506  0.96819  1.0000
  N   N6        1.0  0.08303999999999982  0.03698  0.7627200000000002  1.0000
  N   N7        1.0  0.16320999999999994  0.7370800000000002  0.50815  1.0000
  N   N8        1.0  0.9148499999999998  0.44592000000000004  0.7154600000000002  1.0000
  O   O1        1.0  0.66626  0.34446  0.053870000000000015  1.0000
  O   O2        1.0  0.46830999999999984  0.44942  0.12154000000000002  1.0000
  O   O3        1.0  0.78081  0.14096  0.87009  1.0000
  O   O4        1.0  0.6658999999999999  0.09753000000000003  0.8234800000000001  1.0000
  O   O5        1.0  0.002679999999999983  0.09402  0.12348000000000003  1.0000
  O   O6        1.0  0.8545700000000002  0.13825  0.06139  1.0000
  O   O7        1.0  0.05259999999999995  0.8888500000000003  0.31886  1.0000
  O   O8        1.0  0.9458099999999998  0.7941  0.3749200000000001  1.0000
  O   O9        1.0  0.0887  0.17225  0.39060000000000006  1.0000
  O   O10       1.0  0.060929999999999936  0.08499  0.3171700000000001  1.0000
  O   O11       1.0  0.8028600000000001  0.34492  0.62442  1.0000
  O   O12       1.0  0.5794800000000001  0.38968000000000014  0.70878  1.0000
  O   O13       1.0  0.25027000000000005  0.42066  0.35886  1.0000
  O   O14       1.0  0.08893999999999998  0.36567  0.44708  1.0000
  O   O15       1.0  0.23448999999999992  0.63869  0.17415  1.0000
  O   O16       1.0  0.058410000000000004  0.72591  0.1479  1.0000
  O   O17       1.0  0.3315199999999999  0.65785  0.92184  1.0000
  O   O18       1.0  0.5320299999999999  0.55184  0.86144  1.0000
  O   O19       1.0  0.2126299999999998  0.8826300000000002  0.07826  1.0000
  O   O20       1.0  0.3356999999999999  0.9369200000000002  0.10337000000000003  1.0000
  O   O21       1.0  0.9571699999999999  0.9348799999999999  0.85295  1.0000
  O   O22       1.0  0.07928999999999986  0.86917  0.9338300000000002  1.0000
  O   O23       1.0  0.9996399999999999  0.13643  0.6378700000000003  1.0000
  O   O24       1.0  0.13337999999999997  0.20955000000000004  0.60419  1.0000
  O   O25       1.0  0.9117299999999997  0.8273  0.5990800000000001  1.0000
  O   O26       1.0  0.9464699999999997  0.9247100000000003  0.65407  1.0000
  O   O27       1.0  0.2014599999999998  0.6250900000000003  0.39702000000000004  1.0000
  O   O28       1.0  0.4253500000000001  0.57441  0.32728  1.0000
  O   O29       1.0  0.7712799999999997  0.54213  0.63382  1.0000
  O   O30       1.0  0.90313  0.619  0.55281  1.0000
  O   O31       1.0  0.8130600000000001  0.33719  0.8300900000000002  1.0000
  O   O32       1.0  0.9877099999999999  0.26904  0.86445  1.0000
