data_image0
_chemical_formula_structural       Mg4H32C48N8O16
_chemical_formula_sum              "Mg4 H32 C48 N8 O16"
_cell_length_a       9.97645
_cell_length_b       10.68165
_cell_length_c       13.179700000000002
_cell_angle_alpha    89.97482000000001
_cell_angle_beta     89.98998
_cell_angle_gamma    103.30383999999998

_symmetry_space_group_name_H-M    'P 1'
_symmetry_Int_Tables_number       1

loop_
  _symmetry_equiv_pos_as_xyz
  'x,y,z'

loop_
  _atom_site_type_symbol
  _atom_site_label
  _atom_site_symmetry_multiplicity
  _atom_site_fract_x
  _atom_site_fract_y
  _atom_site_fract_z
  _atom_site_occupancy
  Mg  Mg1       1.0  0.12013000000000008  0.7532700000000002  0.056839999999999995  1.0000
  Mg  Mg2       1.0  0.37439  0.2533500000000001  0.55684  1.0000
  Mg  Mg3       1.0  0.62612  0.74851  0.057739999999999986  1.0000
  Mg  Mg4       1.0  0.88069  0.2506  0.5576  1.0000
  H   H1        1.0  0.1136  0.99439  0.29492  1.0000
  H   H2        1.0  0.6552700000000001  0.47395000000000004  0.10966999999999998  1.0000
  H   H3        1.0  0.6224  0.7773200000000002  0.2946  1.0000
  H   H4        1.0  0.38631  0.14635  0.16194999999999996  1.0000
  H   H5        1.0  0.31767  0.6663900000000001  0.75837  1.0000
  H   H6        1.0  0.05494999999999996  0.5117  0.894  1.0000
  H   H7        1.0  0.37931  0.27831000000000006  0.31848  1.0000
  H   H8        1.0  0.62156  0.03375  0.005879999999999999  1.0000
  H   H9        1.0  0.09319000000000001  0.12968000000000002  0.44842  1.0000
  H   H10       1.0  0.6345  0.50294  0.81505  1.0000
  H   H11       1.0  0.37562  0.22432000000000002  0.79426  1.0000
  H   H12       1.0  0.6146400000000002  0.85433  0.66262  1.0000
  H   H13       1.0  0.36754  0.3543700000000001  0.9518  1.0000
  H   H14       1.0  0.91006  0.87567  0.94854  1.0000
  H   H15       1.0  0.31535  0.87784  0.88055  1.0000
  H   H16       1.0  0.88905  0.010070000000000003  0.7943899999999999  1.0000
  H   H17       1.0  0.6308600000000002  0.6473300000000001  0.45251  1.0000
  H   H18       1.0  0.62259  0.72311  0.81951  1.0000
  H   H19       1.0  0.30884  0.00964  0.72227  1.0000
  H   H20       1.0  0.69306  0.99307  0.22393  1.0000
  H   H21       1.0  0.68747  0.12648  0.38097  1.0000
  H   H22       1.0  0.9444900000000002  0.49266  0.39412  1.0000
  H   H23       1.0  0.36337  0.49687000000000003  0.31335  1.0000
  H   H24       1.0  0.66323  0.37167  0.66236  1.0000
  H   H25       1.0  0.93423  0.63013  0.23991  1.0000
  H   H26       1.0  0.06537  0.37356  0.7403499999999998  1.0000
  H   H27       1.0  0.3969400000000001  0.8251400000000002  0.35779  1.0000
  H   H28       1.0  0.68169  0.3356  0.25943  1.0000
  H   H29       1.0  0.38227  0.96887  0.5058  1.0000
  H   H30       1.0  0.33533  0.62842  0.1609  1.0000
  H   H31       1.0  0.34253000000000006  0.52758  0.60888  1.0000
  H   H32       1.0  0.60575  0.17658000000000001  0.85755  1.0000
  C   C1        1.0  0.9839200000000001  0.9805000000000003  0.8109999999999999  1.0000
  C   C2        1.0  0.9719900000000001  0.40447  0.75979  1.0000
  C   C3        1.0  0.78387  0.02392  0.27137  1.0000
  C   C4        1.0  0.25185  0.5983  0.21514  1.0000
  C   C5        1.0  0.34373000000000004  0.5217700000000001  0.86732  1.0000
  C   C6        1.0  0.6325000000000001  0.6782100000000001  0.29065  1.0000
  C   C7        1.0  0.91277  0.90272  0.15549  1.0000
  C   C8        1.0  0.39387999999999995  0.9253  0.34585999999999995  1.0000
  C   C9        1.0  0.6518  0.50841  0.18709  1.0000
  C   C10       1.0  0.16692  0.4023  0.45756  1.0000
  C   C11       1.0  0.38455  0.17784000000000005  0.32353  1.0000
  C   C12       1.0  0.61251  0.8969000000000001  0.73744  1.0000
  C   C13       1.0  0.38899  0.10423000000000002  0.23692  1.0000
  C   C14       1.0  0.60858  0.07634  0.84593  1.0000
  C   C15       1.0  0.38629  0.00485  0.42832  1.0000
  C   C16       1.0  0.33419  0.57006  0.76943  1.0000
  C   C17       1.0  0.39615  0.9754500000000002  0.24740999999999994  1.0000
  C   C18       1.0  0.34619  0.49304  0.6863  1.0000
  C   C19       1.0  0.61697  0.99724  0.92856  1.0000
  C   C20       1.0  0.61772  0.82371  0.82423  1.0000
  C   C21       1.0  0.35969  0.39553000000000005  0.8770999999999999  1.0000
  C   C22       1.0  0.22218000000000004  0.9067900000000002  0.85735  1.0000
  C   C23       1.0  0.63824  0.60618  0.37777999999999995  1.0000
  C   C24       1.0  0.00762  0.0988  0.39606  1.0000
  C   C25       1.0  0.08993000000000001  0.10043  0.65441  1.0000
  C   C26       1.0  0.9656900000000002  0.4798100000000001  0.8451499999999997  1.0000
  C   C27       1.0  0.9052000000000001  0.9856500000000002  0.24733  1.0000
  C   C28       1.0  0.99537  0.90607  0.8958199999999997  1.0000
  C   C29       1.0  0.66428  0.43164  0.27027  1.0000
  C   C30       1.0  0.73171  0.47672  0.80039  1.0000
  C   C31       1.0  0.78062  0.09733  0.35807  1.0000
  C   C32       1.0  0.26641000000000004  0.5238900000000001  0.29925  1.0000
  C   C33       1.0  0.03335000000000002  0.5235700000000001  0.34471999999999997  1.0000
  C   C34       1.0  0.027359999999999995  0.59857  0.25904  1.0000
  C   C35       1.0  0.59129  0.10598  0.65533  1.0000
  C   C36       1.0  0.60527  0.025710000000000007  0.74765  1.0000
  C   C37       1.0  0.09726  0.01797  0.74651  1.0000
  C   C38       1.0  0.0187  0.02389  0.3114799999999999  1.0000
  C   C39       1.0  0.21846  0.9793900000000001  0.77025  1.0000
  C   C40       1.0  0.3653600000000001  0.32338  0.7900499999999999  1.0000
  C   C41       1.0  0.15518000000000004  0.48474000000000006  0.36576999999999993  1.0000
  C   C42       1.0  0.8312800000000001  0.6005  0.95748  1.0000
  C   C43       1.0  0.66319  0.39974  0.46058  1.0000
  C   C44       1.0  0.74678  0.40242000000000006  0.71638  1.0000
  C   C45       1.0  0.4095500000000001  0.8951300000000001  0.15508  1.0000
  C   C46       1.0  0.8431  0.5173  0.86635  1.0000
  C   C47       1.0  0.65458  0.48012  0.36799  1.0000
  C   C48       1.0  0.33658  0.60262  0.9601299999999999  1.0000
  N   N1        1.0  0.13419  0.6358  0.19443999999999997  1.0000
  N   N2        1.0  0.11254999999999996  0.86951  0.91936  1.0000
  N   N3        1.0  0.89045  0.13534000000000002  0.41975  1.0000
  N   N4        1.0  0.8649900000000001  0.36607  0.69557  1.0000
  N   N5        1.0  0.38396  0.13027  0.4186  1.0000
  N   N6        1.0  0.36123  0.37109  0.69542  1.0000
  N   N7        1.0  0.63661  0.63029  0.19615  1.0000
  N   N8        1.0  0.6191400000000001  0.8717600000000001  0.91917  1.0000
  O   O1        1.0  0.52101  0.8566400000000002  0.15093  1.0000
  O   O2        1.0  0.9336000000000001  0.63085  0.01626  1.0000
  O   O3        1.0  0.7736  0.36188  0.46996  1.0000
  O   O4        1.0  0.19434  0.12499  0.59614  1.0000
  O   O5        1.0  0.80685  0.87495  0.09898999999999998  1.0000
  O   O6        1.0  0.06727000000000001  0.37639000000000006  0.51931  1.0000
  O   O7        1.0  0.02538000000000004  0.8692900000000001  0.14245  1.0000
  O   O8        1.0  0.56087  0.38058  0.52029  1.0000
  O   O9        1.0  0.71601  0.63136  0.96782  1.0000
  O   O10       1.0  0.9790800000000001  0.13709  0.64263  1.0000
  O   O11       1.0  0.31418000000000007  0.8764300000000003  0.09041  1.0000
  O   O12       1.0  0.43873000000000006  0.6199300000000001  0.019819999999999997  1.0000
  O   O13       1.0  0.47952  0.14406000000000002  0.65108  1.0000
  O   O14       1.0  0.22736  0.64262  0.9697  1.0000
  O   O15       1.0  0.28049  0.36756  0.46514  1.0000
  O   O16       1.0  0.68679  0.12496000000000003  0.59073  1.0000
