data_image0
_chemical_formula_structural       Ni2H48C52N14
_chemical_formula_sum              "Ni2 H48 C52 N14"
_cell_length_a       8.30114
_cell_length_b       14.088570000000002
_cell_length_c       13.369959999999999
_cell_angle_alpha    106.53403
_cell_angle_beta     94.77359
_cell_angle_gamma    81.24635

_symmetry_space_group_name_H-M    'P 1'
_symmetry_Int_Tables_number       1

loop_
  _symmetry_equiv_pos_as_xyz
  'x,y,z'

loop_
  _atom_site_type_symbol
  _atom_site_label
  _atom_site_symmetry_multiplicity
  _atom_site_fract_x
  _atom_site_fract_y
  _atom_site_fract_z
  _atom_site_occupancy
  Ni  Ni1       1.0  0.81314  0.6542200000000002  0.36151  1.0000
  Ni  Ni2       1.0  0.20288000000000003  0.34559  0.64408  1.0000
  H   H1        1.0  0.62743  0.55466  0.16897  1.0000
  H   H2        1.0  0.64976  0.51804  0.9753899999999999  1.0000
  H   H3        1.0  0.03166000000000002  0.70552  0.0383  1.0000
  H   H4        1.0  0.99185  0.7367700000000003  0.22696  1.0000
  H   H5        1.0  0.9737300000000001  0.55234  0.84853  1.0000
  H   H6        1.0  0.76172  0.54908  0.83024  1.0000
  H   H7        1.0  0.043280000000000006  0.58244  0.51298  1.0000
  H   H8        1.0  0.05064  0.58099  0.69777  1.0000
  H   H9        1.0  0.6076  0.79052  0.73283  1.0000
  H   H10       1.0  0.61378  0.77825  0.5432  1.0000
  H   H11       1.0  0.9297700000000001  0.73879  0.88841  1.0000
  H   H12       1.0  0.71676  0.73953  0.8805  1.0000
  H   H13       1.0  0.41379999999999995  0.88514  0.38663  1.0000
  H   H14       1.0  0.2924  0.038540000000000005  0.3346  1.0000
  H   H15       1.0  0.8181499999999999  0.9658000000000001  0.37091999999999997  1.0000
  H   H16       1.0  0.95788  0.81807  0.42296  1.0000
  H   H17       1.0  0.03182  0.17223  0.36767  1.0000
  H   H18       1.0  0.0007500000000000003  0.10311999999999999  0.23858999999999997  1.0000
  H   H19       1.0  0.59507  0.4814800000000001  0.39457  1.0000
  H   H20       1.0  0.68893  0.32891  0.45556  1.0000
  H   H21       1.0  0.7499900000000003  0.16352000000000005  0.13304  1.0000
  H   H22       1.0  0.6535  0.32234  0.08543  1.0000
  H   H23       1.0  0.75661  0.14988  0.41262  1.0000
  H   H24       1.0  0.72085  0.07793  0.28201  1.0000
  H   H25       1.0  0.38639000000000007  0.44525  0.83786  1.0000
  H   H26       1.0  0.36402999999999996  0.4803600000000001  0.03153  1.0000
  H   H27       1.0  0.98465  0.29085999999999995  0.9665999999999998  1.0000
  H   H28       1.0  0.02461999999999998  0.26119000000000003  0.7782699999999999  1.0000
  H   H29       1.0  0.04212999999999996  0.4440000000000001  0.15758  1.0000
  H   H30       1.0  0.25393  0.44813  0.17538999999999996  1.0000
  H   H31       1.0  0.97256  0.41528  0.4919899999999999  1.0000
  H   H32       1.0  0.96625  0.41571  0.30652  1.0000
  H   H33       1.0  0.4084  0.20604  0.27335  1.0000
  H   H34       1.0  0.4019  0.21928  0.46326  1.0000
  H   H35       1.0  0.08769  0.25799  0.11746999999999999  1.0000
  H   H36       1.0  0.30086  0.25748  0.12521  1.0000
  H   H37       1.0  0.60436  0.11210000000000003  0.61626  1.0000
  H   H38       1.0  0.7256800000000001  0.9576300000000002  0.66634  1.0000
  H   H39       1.0  0.19985999999999998  0.030830000000000003  0.6305899999999999  1.0000
  H   H40       1.0  0.06016  0.17950000000000005  0.58029  1.0000
  H   H41       1.0  0.98788  0.82385  0.63102  1.0000
  H   H42       1.0  0.014249999999999973  0.8915900000000001  0.7610799999999998  1.0000
  H   H43       1.0  0.42347  0.51597  0.60863  1.0000
  H   H44       1.0  0.33011  0.66851  0.54763  1.0000
  H   H45       1.0  0.26755000000000007  0.83394  0.8700599999999998  1.0000
  H   H46       1.0  0.3637700000000001  0.6751200000000003  0.91768  1.0000
  H   H47       1.0  0.26446999999999987  0.8483500000000004  0.59121  1.0000
  H   H48       1.0  0.29496000000000006  0.92006  0.72262  1.0000
  C   C1        1.0  0.71281  0.58819  0.13629  1.0000
  C   C2        1.0  0.7278600000000002  0.56716  0.02885  1.0000
  C   C3        1.0  0.84166  0.60957  0.98922  1.0000
  C   C4        1.0  0.9394200000000001  0.67078  0.06311  1.0000
  C   C5        1.0  0.91781  0.6890400000000002  0.16899  1.0000
  C   C6        1.0  0.85441  0.5943500000000002  0.87405  1.0000
  C   C7        1.0  0.9481799999999999  0.62656  0.56434  1.0000
  C   C8        1.0  0.95174  0.62747  0.66854  1.0000
  C   C9        1.0  0.8298699999999999  0.68791  0.73356  1.0000
  C   C10       1.0  0.70655  0.7429500000000002  0.68677  1.0000
  C   C11       1.0  0.70892  0.7370600000000002  0.58142  1.0000
  C   C12       1.0  0.8312700000000001  0.69598  0.84816  1.0000
  C   C13       1.0  0.45409000000000005  0.6437  0.3404899999999999  1.0000
  C   C14       1.0  0.28175000000000006  0.90618  0.38313  1.0000
  C   C15       1.0  0.21393000000000006  0.99112  0.35316  1.0000
  C   C16       1.0  0.04349  0.016140000000000005  0.34806  1.0000
  C   C17       1.0  0.95073  0.95152  0.37247  1.0000
  C   C18       1.0  0.029400000000000016  0.86868  0.40297  1.0000
  C   C19       1.0  0.9702400000000001  0.11001  0.31918  1.0000
  C   C20       1.0  0.6297  0.4093800000000001  0.33858999999999995  1.0000
  C   C21       1.0  0.68282  0.32441  0.37265  1.0000
  C   C22       1.0  0.72686  0.23291  0.29902  1.0000
  C   C23       1.0  0.7167200000000002  0.23256000000000002  0.19372  1.0000
  C   C24       1.0  0.6627800000000001  0.32127  0.16704  1.0000
  C   C25       1.0  0.78518  0.13881  0.3309  1.0000
  C   C26       1.0  0.17513000000000004  0.62141  0.33899  1.0000
  C   C27       1.0  0.30166  0.41097  0.87016  1.0000
  C   C28       1.0  0.28648999999999997  0.4312600000000001  0.97749  1.0000
  C   C29       1.0  0.17354  0.3877800000000001  0.01656  1.0000
  C   C30       1.0  0.07648999999999999  0.32635000000000003  0.9423  1.0000
  C   C31       1.0  0.09837000000000001  0.30888  0.83651  1.0000
  C   C32       1.0  0.16159999999999997  0.40249  0.13169  1.0000
  C   C33       1.0  0.06801999999999998  0.37117  0.44084  1.0000
  C   C34       1.0  0.06516000000000001  0.36985  0.33655  1.0000
  C   C35       1.0  0.18737  0.30918  0.27206  1.0000
  C   C36       1.0  0.3100000000000001  0.25417  0.31929  1.0000
  C   C37       1.0  0.30726  0.26047  0.42468  1.0000
  C   C38       1.0  0.18619999999999998  0.3008300000000001  0.15749999999999997  1.0000
  C   C39       1.0  0.5629  0.35472  0.66621  1.0000
  C   C40       1.0  0.7363400000000003  0.09098999999999997  0.6195  1.0000
  C   C41       1.0  0.8040400000000002  0.005520000000000001  0.64849  1.0000
  C   C42       1.0  0.9744900000000001  0.98047  0.6534  1.0000
  C   C43       1.0  0.06729  0.04538999999999999  0.62953  1.0000
  C   C44       1.0  0.98862  0.12874000000000005  0.59995  1.0000
  C   C45       1.0  0.04752000000000002  0.8861  0.68139  1.0000
  C   C46       1.0  0.38862  0.58805  0.66461  1.0000
  C   C47       1.0  0.3356099999999999  0.6730300000000002  0.63053  1.0000
  C   C48       1.0  0.2913200000000001  0.7645499999999998  0.7040799999999998  1.0000
  C   C49       1.0  0.3010900000000001  0.7649  0.80937  1.0000
  C   C50       1.0  0.3549800000000002  0.67618  0.83607  1.0000
  C   C51       1.0  0.23319  0.8586900000000001  0.67228  1.0000
  C   C52       1.0  0.8417999999999999  0.37675  0.66808  1.0000
  N   N1        1.0  0.80491  0.6496800000000001  0.20671  1.0000
  N   N2        1.0  0.82964  0.68076  0.51953  1.0000
  N   N3        1.0  0.58918  0.66458  0.35867999999999994  1.0000
  N   N4        1.0  0.19242  0.8451000000000001  0.40906999999999993  1.0000
  N   N5        1.0  0.61862  0.40919999999999995  0.23747999999999997  1.0000
  N   N6        1.0  0.03543999999999999  0.62321  0.35449  1.0000
  N   N7        1.0  0.32028  0.60842  0.30788  1.0000
  N   N8        1.0  0.21058  0.3492  0.79928  1.0000
  N   N9        1.0  0.18655  0.31742  0.48618  1.0000
  N   N10       1.0  0.42709000000000025  0.33524000000000004  0.64735  1.0000
  N   N11       1.0  0.8255900000000004  0.15249  0.59424  1.0000
  N   N12       1.0  0.39946000000000004  0.58824  0.7657299999999999  1.0000
  N   N13       1.0  0.9808400000000003  0.37569  0.65171  1.0000
  N   N14       1.0  0.6977499999999999  0.38805000000000006  0.70042  1.0000
