data_image0
_chemical_formula_structural       Cd4H40C40N8O16
_chemical_formula_sum              "Cd4 H40 C40 N8 O16"
_cell_length_a       8.64288
_cell_length_b       8.5723
_cell_length_c       16.98033
_cell_angle_alpha    90.0
_cell_angle_beta     90.0
_cell_angle_gamma    90.05524

_space_group_name_H-M_alt    "P 1"
_space_group_IT_number       1

loop_
  _space_group_symop_operation_xyz
  'x, y, z'

loop_
  _atom_site_type_symbol
  _atom_site_label
  _atom_site_symmetry_multiplicity
  _atom_site_fract_x
  _atom_site_fract_y
  _atom_site_fract_z
  _atom_site_occupancy
  Cd  Cd1       1.0  0.6393099999999998  0.1127  0.93286  1.0000
  Cd  Cd2       1.0  0.36069  0.8873  0.43287  1.0000
  Cd  Cd3       1.0  0.13891  0.38687  0.93251  1.0000
  Cd  Cd4       1.0  0.86109  0.61313  0.43251  1.0000
  H   H1        1.0  0.6464899999999999  0.23447  0.53348  1.0000
  H   H2        1.0  0.58338  0.36792999999999987  0.46003  1.0000
  H   H3        1.0  0.53555  0.4921  0.60713  1.0000
  H   H4        1.0  0.67647  0.64026  0.61719  1.0000
  H   H5        1.0  0.94543  0.34289  0.56792  1.0000
  H   H6        1.0  0.92562  0.5279599999999999  0.61368  1.0000
  H   H7        1.0  0.6798  0.43815  0.85663  1.0000
  H   H8        1.0  0.7923099999999998  0.56018  0.73856  1.0000
  H   H9        1.0  0.7952199999999998  0.10622  0.62712  1.0000
  H   H10       1.0  0.69076  0.99741  0.75338  1.0000
  H   H11       1.0  0.35350999999999994  0.76553  0.03348  1.0000
  H   H12       1.0  0.41663  0.63207  0.96003  1.0000
  H   H13       1.0  0.46446000000000004  0.5079  0.10713  1.0000
  H   H14       1.0  0.32354  0.35974  0.1172  1.0000
  H   H15       1.0  0.05458  0.65711  0.06792  1.0000
  H   H16       1.0  0.07439  0.47204  0.11368  1.0000
  H   H17       1.0  0.32021  0.56185  0.35663  1.0000
  H   H18       1.0  0.2077  0.43982  0.23856000000000002  1.0000
  H   H19       1.0  0.20478999999999994  0.8937799999999998  0.12712  1.0000
  H   H20       1.0  0.30924  0.00259  0.25338  1.0000
  H   H21       1.0  0.14532  0.2659399999999999  0.53479  1.0000
  H   H22       1.0  0.08263  0.13325  0.46091  1.0000
  H   H23       1.0  0.03456  0.00711  0.60737  1.0000
  H   H24       1.0  0.17601  0.85978  0.61754  1.0000
  H   H25       1.0  0.4457  0.15686  0.56826  1.0000
  H   H26       1.0  0.425  0.9716  0.61377  1.0000
  H   H27       1.0  0.18011  0.06105  0.85694  1.0000
  H   H28       1.0  0.29243999999999987  0.93919  0.73882  1.0000
  H   H29       1.0  0.29568  0.3932299999999999  0.62743  1.0000
  H   H30       1.0  0.19079  0.50179  0.7537  1.0000
  H   H31       1.0  0.85468  0.7340599999999998  0.03479  1.0000
  H   H32       1.0  0.9173699999999999  0.86675  0.9609  1.0000
  H   H33       1.0  0.96544  0.99289  0.10737  1.0000
  H   H34       1.0  0.8239899999999998  0.14021999999999996  0.11754  1.0000
  H   H35       1.0  0.5543  0.84314  0.06826  1.0000
  H   H36       1.0  0.57501  0.028399999999999995  0.11378  1.0000
  H   H37       1.0  0.8198999999999997  0.9389499999999998  0.35695  1.0000
  H   H38       1.0  0.70756  0.060809999999999996  0.23883  1.0000
  H   H39       1.0  0.70432  0.60677  0.12743  1.0000
  H   H40       1.0  0.80921  0.49820999999999993  0.2537  1.0000
  C   C1        1.0  0.68416  0.32964  0.49467000000000005  1.0000
  C   C2        1.0  0.80528  0.26277  0.43734  1.0000
  C   C3        1.0  0.62188  0.56094  0.57456  1.0000
  C   C4        1.0  0.53787  0.66741  0.51715  1.0000
  C   C5        1.0  0.86382  0.4205299999999999  0.59794  1.0000
  C   C6        1.0  0.70652  0.36693  0.80509  1.0000
  C   C7        1.0  0.7685499999999998  0.43533999999999995  0.73793  1.0000
  C   C8        1.0  0.80147  0.3442899999999999  0.6716  1.0000
  C   C9        1.0  0.77125  0.18356  0.67657  1.0000
  C   C10       1.0  0.71218  0.12198  0.74631  1.0000
  C   C11       1.0  0.31585  0.67036  0.9946700000000002  1.0000
  C   C12       1.0  0.19472  0.73723  0.93734  1.0000
  C   C13       1.0  0.37812999999999997  0.43906  0.07456  1.0000
  C   C14       1.0  0.46213  0.33259  0.01716  1.0000
  C   C15       1.0  0.13617999999999997  0.5794699999999998  0.09794  1.0000
  C   C16       1.0  0.29347999999999996  0.63307  0.30509  1.0000
  C   C17       1.0  0.23146  0.56466  0.23793  1.0000
  C   C18       1.0  0.19854  0.6557099999999999  0.1716  1.0000
  C   C19       1.0  0.22874999999999998  0.81644  0.17657  1.0000
  C   C20       1.0  0.28783  0.8780199999999999  0.24631000000000003  1.0000
  C   C21       1.0  0.18330999999999995  0.17131999999999994  0.49573  1.0000
  C   C22       1.0  0.3048599999999999  0.23822999999999997  0.43875  1.0000
  C   C23       1.0  0.12141  0.9389299999999999  0.5749  1.0000
  C   C24       1.0  0.03806  0.8321  0.51735  1.0000
  C   C25       1.0  0.36378  0.07935  0.59827  1.0000
  C   C26       1.0  0.20676999999999995  0.13227  0.80537  1.0000
  C   C27       1.0  0.26885999999999993  0.06400999999999997  0.73824  1.0000
  C   C28       1.0  0.30193  0.15528  0.67199  1.0000
  C   C29       1.0  0.27165  0.31592  0.6769  1.0000
  C   C30       1.0  0.21231  0.37732  0.74656  1.0000
  C   C31       1.0  0.81669  0.82868  0.99573  1.0000
  C   C32       1.0  0.69514  0.7617699999999997  0.93875  1.0000
  C   C33       1.0  0.8785999999999998  0.06107  0.0749  1.0000
  C   C34       1.0  0.96195  0.1679  0.01735  1.0000
  C   C35       1.0  0.63622  0.9206499999999997  0.09827  1.0000
  C   C36       1.0  0.7932299999999998  0.86773  0.30537  1.0000
  C   C37       1.0  0.7311399999999999  0.9359899999999999  0.23824000000000004  1.0000
  C   C38       1.0  0.69807  0.8447199999999998  0.172  1.0000
  C   C39       1.0  0.72836  0.6840799999999999  0.1769  1.0000
  C   C40       1.0  0.78769  0.62268  0.24656  1.0000
  N   N1        1.0  0.7435  0.46430999999999994  0.53927  1.0000
  N   N2        1.0  0.6794499999999998  0.21189  0.80935  1.0000
  N   N3        1.0  0.25651  0.53569  0.03927  1.0000
  N   N4        1.0  0.32055  0.78811  0.30935  1.0000
  N   N5        1.0  0.24274999999999997  0.03626  0.53983  1.0000
  N   N6        1.0  0.17959  0.28722  0.80953  1.0000
  N   N7        1.0  0.75725  0.9637399999999999  0.03983  1.0000
  N   N8        1.0  0.82041  0.71278  0.30954  1.0000
  O   O1        1.0  0.8892399999999999  0.36024  0.39752  1.0000
  O   O2        1.0  0.81369  0.11749  0.43277  1.0000
  O   O3        1.0  0.59283  0.69578  0.44899  1.0000
  O   O4        1.0  0.41553  0.73123  0.54332  1.0000
  O   O5        1.0  0.11075999999999997  0.63976  0.89752  1.0000
  O   O6        1.0  0.18631  0.8825099999999998  0.93277  1.0000
  O   O7        1.0  0.40716999999999987  0.30421999999999993  0.94899  1.0000
  O   O8        1.0  0.58447  0.26877  0.04333  1.0000
  O   O9        1.0  0.39067  0.14023  0.40051  1.0000
  O   O10       1.0  0.31284  0.3833099999999999  0.43298  1.0000
  O   O11       1.0  0.09308  0.8041499999999998  0.44914  1.0000
  O   O12       1.0  0.91577  0.76775  0.54336  1.0000
  O   O13       1.0  0.60934  0.85977  0.90051  1.0000
  O   O14       1.0  0.68716  0.6166899999999998  0.93298  1.0000
  O   O15       1.0  0.9069199999999997  0.19584999999999994  0.9491400000000001  1.0000
  O   O16       1.0  0.08424  0.23225  0.04336  1.0000
