data_image0
_chemical_formula_structural       Zn4P4H58C54N12O16
_chemical_formula_sum              "Zn4 P4 H58 C54 N12 O16"
_cell_length_a       10.02868
_cell_length_b       12.46826
_cell_length_c       16.52293
_cell_angle_alpha    98.75864
_cell_angle_beta     109.73073
_cell_angle_gamma    97.36513

_symmetry_space_group_name_H-M    'P 1'
_symmetry_Int_Tables_number       1

loop_
  _symmetry_equiv_pos_as_xyz
  'x,y,z'

loop_
  _atom_site_type_symbol
  _atom_site_label
  _atom_site_symmetry_multiplicity
  _atom_site_fract_x
  _atom_site_fract_y
  _atom_site_fract_z
  _atom_site_occupancy
  Zn  Zn1       1.0  0.70935  0.24492  0.24339  1.0000
  Zn  Zn2       1.0  0.5188199999999998  0.18223999999999999  0.9125399999999998  1.0000
  Zn  Zn3       1.0  0.29065  0.75508  0.75661  1.0000
  Zn  Zn4       1.0  0.48120000000000007  0.81777  0.08746  1.0000
  P   P1        1.0  0.4762  0.28179000000000004  0.07668  1.0000
  P   P2        1.0  0.66518  0.01646  0.15956  1.0000
  P   P3        1.0  0.5238199999999996  0.71821  0.9233299999999998  1.0000
  P   P4        1.0  0.33488000000000007  0.9835300000000001  0.84044  1.0000
  H   H1        1.0  0.36124  0.3961500000000001  0.00794  1.0000
  H   H2        1.0  0.45401  0.061940000000000016  0.07334  1.0000
  H   H3        1.0  0.7966  0.43514  0.15682  1.0000
  H   H4        1.0  0.16421  0.54404  0.15159  1.0000
  H   H5        1.0  0.99546  0.58053  0.13854  1.0000
  H   H6        1.0  0.87989  0.4160700000000001  0.007199999999999998  1.0000
  H   H7        1.0  0.05488  0.39344  0.01839  1.0000
  H   H8        1.0  0.007439999999999953  0.13678  0.2936699999999999  1.0000
  H   H9        1.0  0.26142  0.11866  0.30971  1.0000
  H   H10       1.0  0.40914999999999985  0.24951  0.26067  1.0000
  H   H11       1.0  0.31409  0.40329  0.19582999999999995  1.0000
  H   H12       1.0  0.7979200000000001  0.17401000000000003  0.03995  1.0000
  H   H13       1.0  0.055960000000000024  0.17419000000000004  0.09849  1.0000
  H   H14       1.0  0.16849  0.21099  0.0398  1.0000
  H   H15       1.0  0.10458  0.022080000000000013  0.95075  1.0000
  H   H16       1.0  0.1598  0.018230000000000003  0.06236  1.0000
  H   H17       1.0  0.13318000000000008  0.17853  0.87017  1.0000
  H   H18       1.0  0.03951000000000004  0.20363000000000006  0.71626  1.0000
  H   H19       1.0  0.7907600000000001  0.23267  0.6466  1.0000
  H   H20       1.0  0.6200900000000001  0.23150000000000007  0.72827  1.0000
  H   H21       1.0  0.5936600000000001  0.44710000000000016  0.32153  1.0000
  H   H22       1.0  0.6325600000000001  0.6197100000000001  0.44037  1.0000
  H   H23       1.0  0.7717200000000001  0.63675  0.5440599999999999  1.0000
  H   H24       1.0  0.61856  0.50235  0.58938  1.0000
  H   H25       1.0  0.53716  0.61498  0.56166  1.0000
  H   H26       1.0  0.9312400000000001  0.5319  0.64025  1.0000
  H   H27       1.0  0.1053800000000001  0.40746  0.68794  1.0000
  H   H28       1.0  0.10885  0.24348000000000003  0.58422  1.0000
  H   H29       1.0  0.9378700000000001  0.19786999999999996  0.4269699999999999  1.0000
  H   H30       1.0  0.63877  0.6038400000000002  0.99207  1.0000
  H   H31       1.0  0.5460400000000001  0.9380300000000005  0.92666  1.0000
  H   H32       1.0  0.20339999999999997  0.56486  0.84318  1.0000
  H   H33       1.0  0.83579  0.4559600000000001  0.84841  1.0000
  H   H34       1.0  0.0045299999999999715  0.4194700000000001  0.86146  1.0000
  H   H35       1.0  0.12009999999999998  0.58393  0.9928  1.0000
  H   H36       1.0  0.94511  0.60656  0.98161  1.0000
  H   H37       1.0  0.99256  0.8632200000000001  0.7063299999999998  1.0000
  H   H38       1.0  0.73857  0.8813400000000002  0.69029  1.0000
  H   H39       1.0  0.59085  0.7505  0.73933  1.0000
  H   H40       1.0  0.68591  0.59671  0.8041699999999998  1.0000
  H   H41       1.0  0.2021  0.826  0.9600599999999998  1.0000
  H   H42       1.0  0.94405  0.8258100000000003  0.9015099999999999  1.0000
  H   H43       1.0  0.83152  0.78901  0.96019  1.0000
  H   H44       1.0  0.89543  0.9779200000000001  0.04923999999999999  1.0000
  H   H45       1.0  0.8402099999999998  0.98177  0.9376399999999998  1.0000
  H   H46       1.0  0.8668299999999999  0.8214700000000001  0.12983  1.0000
  H   H47       1.0  0.96049  0.7963700000000001  0.28374  1.0000
  H   H48       1.0  0.20924000000000004  0.76733  0.3534  1.0000
  H   H49       1.0  0.37991  0.76851  0.27174  1.0000
  H   H50       1.0  0.40634000000000003  0.5528999999999998  0.67847  1.0000
  H   H51       1.0  0.36743  0.38029  0.55962  1.0000
  H   H52       1.0  0.22827000000000008  0.36325000000000013  0.45594  1.0000
  H   H53       1.0  0.38143  0.49765000000000004  0.41062  1.0000
  H   H54       1.0  0.46283  0.3850200000000001  0.43834  1.0000
  H   H55       1.0  0.06876000000000002  0.46810000000000007  0.35975  1.0000
  H   H56       1.0  0.89462  0.59255  0.31206  1.0000
  H   H57       1.0  0.89115  0.75652  0.41578  1.0000
  H   H58       1.0  0.06211999999999988  0.80213  0.5730299999999998  1.0000
  C   C1        1.0  0.8897600000000001  0.3980800000000001  0.18351  1.0000
  C   C2        1.0  0.04786000000000001  0.51105  0.1259  1.0000
  C   C3        1.0  0.9932000000000001  0.4576700000000001  0.02791  1.0000
  C   C4        1.0  0.10975999999999997  0.35991  0.21422  1.0000
  C   C5        1.0  0.02420999999999998  0.28538  0.2423  1.0000
  C   C6        1.0  0.07725000000000003  0.19747  0.27766  1.0000
  C   C7        1.0  0.21757  0.18773000000000006  0.285  1.0000
  C   C8        1.0  0.30254  0.26281000000000004  0.25751  1.0000
  C   C9        1.0  0.2508  0.3504800000000001  0.22179999999999994  1.0000
  C   C10       1.0  0.81733  0.19039000000000003  0.98129  1.0000
  C   C11       1.0  0.06947  0.15787  0.03511  1.0000
  C   C12       1.0  0.0723  0.03656  0.00819  1.0000
  C   C13       1.0  0.92885  0.19743  0.88641  1.0000
  C   C14       1.0  0.02418999999999985  0.19411  0.8411899999999998  1.0000
  C   C15       1.0  0.9698199999999999  0.20710999999999996  0.7543499999999999  1.0000
  C   C16       1.0  0.8268  0.22224999999999995  0.7143799999999998  1.0000
  C   C17       1.0  0.7314399999999999  0.22282999999999994  0.7594399999999998  1.0000
  C   C18       1.0  0.78376  0.2098  0.84669  1.0000
  C   C19       1.0  0.6772200000000003  0.42539000000000005  0.37445  1.0000
  C   C20       1.0  0.67882  0.5779400000000001  0.49433  1.0000
  C   C21       1.0  0.56699  0.54011  0.53359  1.0000
  C   C22       1.0  0.8385300000000001  0.43328  0.50698  1.0000
  C   C23       1.0  0.93261  0.45983  0.59465  1.0000
  C   C24       1.0  0.02980000000000004  0.38981000000000005  0.62026  1.0000
  C   C25       1.0  0.03199000000000001  0.29633  0.56085  1.0000
  C   C26       1.0  0.9380100000000001  0.27008  0.4732899999999999  1.0000
  C   C27       1.0  0.84103  0.34060000000000007  0.4465399999999999  1.0000
  C   C28       1.0  0.11023999999999982  0.60192  0.81649  1.0000
  C   C29       1.0  0.9521300000000001  0.48895  0.8741  1.0000
  C   C30       1.0  0.006799999999999955  0.5423400000000002  0.9721  1.0000
  C   C31       1.0  0.89024  0.6400900000000002  0.7857799999999998  1.0000
  C   C32       1.0  0.97579  0.71462  0.7577  1.0000
  C   C33       1.0  0.9227499999999996  0.80254  0.72234  1.0000
  C   C34       1.0  0.78242  0.81228  0.715  1.0000
  C   C35       1.0  0.69746  0.73719  0.74249  1.0000
  C   C36       1.0  0.7492  0.64952  0.7782  1.0000
  C   C37       1.0  0.18268  0.80961  0.01872  1.0000
  C   C38       1.0  0.93054  0.8421200000000002  0.96489  1.0000
  C   C39       1.0  0.92771  0.96344  0.9918099999999999  1.0000
  C   C40       1.0  0.07116  0.80257  0.11359  1.0000
  C   C41       1.0  0.97582  0.80589  0.15881  1.0000
  C   C42       1.0  0.030179999999999988  0.7928900000000001  0.24566  1.0000
  C   C43       1.0  0.1731999999999999  0.77775  0.2856199999999999  1.0000
  C   C44       1.0  0.26857  0.77718  0.24055999999999994  1.0000
  C   C45       1.0  0.21625  0.79021  0.15331  1.0000
  C   C46       1.0  0.32278000000000007  0.5746100000000001  0.62555  1.0000
  C   C47       1.0  0.32117  0.42206  0.50567  1.0000
  C   C48       1.0  0.43300000000000016  0.45989000000000013  0.46641  1.0000
  C   C49       1.0  0.16146000000000002  0.56672  0.49302  1.0000
  C   C50       1.0  0.06739  0.54017  0.40535  1.0000
  C   C51       1.0  0.97019  0.6102  0.37974  1.0000
  C   C52       1.0  0.96801  0.7036700000000001  0.4391599999999999  1.0000
  C   C53       1.0  0.06199000000000002  0.72992  0.52671  1.0000
  C   C54       1.0  0.15895999999999988  0.6594  0.5534599999999997  1.0000
  N   N1        1.0  0.88828  0.3129  0.22304  1.0000
  N   N2        1.0  0.020360000000000017  0.4307200000000001  0.1773  1.0000
  N   N3        1.0  0.71744  0.20546000000000003  0.90819  1.0000
  N   N4        1.0  0.9456299999999997  0.18770999999999996  0.9717499999999998  1.0000
  N   N5        1.0  0.7388  0.33849  0.36444  1.0000
  N   N6        1.0  0.73265  0.48512  0.4588399999999999  1.0000
  N   N7        1.0  0.11171999999999999  0.6871  0.77697  1.0000
  N   N8        1.0  0.9796300000000001  0.5692900000000001  0.8227  1.0000
  N   N9        1.0  0.28258  0.79455  0.09181999999999997  1.0000
  N   N10       1.0  0.05439000000000002  0.81229  0.02825  1.0000
  N   N11       1.0  0.2612  0.66151  0.63556  1.0000
  N   N12       1.0  0.26734999999999987  0.51488  0.5411599999999998  1.0000
  O   O1        1.0  0.35855  0.36545  0.0581  1.0000
  O   O2        1.0  0.57306  0.32802000000000003  0.17446999999999993  1.0000
  O   O3        1.0  0.39331000000000005  0.16479  0.05656  1.0000
  O   O4        1.0  0.55963  0.30174  0.014259999999999997  1.0000
  O   O5        1.0  0.76816  0.06876  0.12196  1.0000
  O   O6        1.0  0.49675  0.9940300000000001  0.09119  1.0000
  O   O7        1.0  0.6698199999999999  0.89378  0.17123  1.0000
  O   O8        1.0  0.67325  0.0912  0.24721  1.0000
  O   O9        1.0  0.64149  0.63458  0.94193  1.0000
  O   O10       1.0  0.42695000000000005  0.67198  0.82554  1.0000
  O   O11       1.0  0.60671  0.8352100000000002  0.9434499999999998  1.0000
  O   O12       1.0  0.44037999999999994  0.6982600000000002  0.98575  1.0000
  O   O13       1.0  0.23190000000000002  0.9312399999999998  0.87805  1.0000
  O   O14       1.0  0.5033299999999999  0.005959999999999925  0.9087899999999998  1.0000
  O   O15       1.0  0.3302399999999998  0.10621999999999997  0.8287799999999997  1.0000
  O   O16       1.0  0.32676999999999995  0.9087900000000001  0.75277  1.0000
