data_image0
_chemical_formula_structural       Cd4Ni4H56C36N24
_chemical_formula_sum              "Cd4 Ni4 H56 C36 N24"
_cell_length_a       5.77541
_cell_length_b       15.14481
_cell_length_c       21.68374
_cell_angle_alpha    89.99865999999999
_cell_angle_beta     89.98165000000002
_cell_angle_gamma    92.81152

_space_group_name_H-M_alt    "P 1"
_space_group_IT_number       1

loop_
  _space_group_symop_operation_xyz
  'x, y, z'

loop_
  _atom_site_type_symbol
  _atom_site_label
  _atom_site_symmetry_multiplicity
  _atom_site_fract_x
  _atom_site_fract_y
  _atom_site_fract_z
  _atom_site_occupancy
  Cd  Cd1       1.0  0.95134  0.8099499999999997  0.79068  1.0000
  Cd  Cd2       1.0  0.0491  0.68996  0.29066  1.0000
  Cd  Cd3       1.0  0.049300000000000004  0.19009999999999994  0.20933999999999997  1.0000
  Cd  Cd4       1.0  0.9514900000000002  0.3100199999999999  0.70932  1.0000
  Ni  Ni1       1.0  0.40311  0.54555  0.7947  1.0000
  Ni  Ni2       1.0  0.5966899999999999  0.9542999999999998  0.29492  1.0000
  Ni  Ni3       1.0  0.59825  0.45486  0.20568  1.0000
  Ni  Ni4       1.0  0.40342  0.04580999999999998  0.70498  1.0000
  H   H1        1.0  0.08278999999999999  0.8105199999999998  0.66946  1.0000
  H   H2        1.0  0.28179  0.74975  0.70188  1.0000
  H   H3        1.0  0.80827  0.6917999999999997  0.66115  1.0000
  H   H4        1.0  0.9804  0.6266799999999998  0.70958  1.0000
  H   H5        1.0  0.2965400000000001  0.64051  0.62521  1.0000
  H   H6        1.0  0.056160000000000015  0.56737  0.61303  1.0000
  H   H7        1.0  0.09125  0.75396  0.5585  1.0000
  H   H8        1.0  0.8659900000000003  0.6726699999999998  0.54546  1.0000
  H   H9        1.0  0.17706000000000002  0.57107  0.50404  1.0000
  H   H10       1.0  0.37861  0.6648399999999998  0.50601  1.0000
  H   H11       1.0  0.91211  0.65602  0.43581  1.0000
  H   H12       1.0  0.11802000000000001  0.74653  0.43362  1.0000
  H   H13       1.0  0.82325  0.9292299999999998  0.8811  1.0000
  H   H14       1.0  0.61552  0.8495999999999998  0.88044  1.0000
  H   H15       1.0  0.91764  0.6893499999999998  0.16947  1.0000
  H   H16       1.0  0.71833  0.75004  0.20191  1.0000
  H   H17       1.0  0.19182  0.80818  0.16112  1.0000
  H   H18       1.0  0.019529999999999957  0.8731999999999998  0.2096  1.0000
  H   H19       1.0  0.70339  0.85942  0.1253  1.0000
  H   H20       1.0  0.9438000000000001  0.93255  0.11309999999999999  1.0000
  H   H21       1.0  0.90876  0.7460399999999999  0.05847999999999999  1.0000
  H   H22       1.0  0.13393  0.82738  0.04542  1.0000
  H   H23       1.0  0.8228600000000001  0.9289699999999997  0.00405  1.0000
  H   H24       1.0  0.62135  0.8351699999999999  0.006050000000000001  1.0000
  H   H25       1.0  0.08805  0.84397  0.93585  1.0000
  H   H26       1.0  0.88215  0.75347  0.93367  1.0000
  H   H27       1.0  0.1772  0.57073  0.38116999999999995  1.0000
  H   H28       1.0  0.3848000000000001  0.6503899999999998  0.38047  1.0000
  H   H29       1.0  0.91737  0.18941999999999995  0.33054  1.0000
  H   H30       1.0  0.7183900000000002  0.25016  0.2981  1.0000
  H   H31       1.0  0.19184000000000007  0.30820999999999993  0.33885  1.0000
  H   H32       1.0  0.01960000000000001  0.37327  0.29041  1.0000
  H   H33       1.0  0.7034800000000001  0.35945  0.37477999999999995  1.0000
  H   H34       1.0  0.94385  0.4326  0.38696  1.0000
  H   H35       1.0  0.9088100000000002  0.24601999999999993  0.44152  1.0000
  H   H36       1.0  0.13403  0.32734  0.45455  1.0000
  H   H37       1.0  0.82291  0.4289099999999999  0.49598  1.0000
  H   H38       1.0  0.62141  0.33512  0.49401  1.0000
  H   H39       1.0  0.08803000000000001  0.34393  0.56416  1.0000
  H   H40       1.0  0.8821000000000001  0.25344  0.56637  1.0000
  H   H41       1.0  0.17688000000000006  0.07075999999999998  0.11893  1.0000
  H   H42       1.0  0.38475  0.15031  0.11949000000000001  1.0000
  H   H43       1.0  0.0825  0.3106  0.83052  1.0000
  H   H44       1.0  0.28185000000000004  0.24985999999999994  0.79813  1.0000
  H   H45       1.0  0.80826  0.19182  0.83887  1.0000
  H   H46       1.0  0.98047  0.12675  0.79041  1.0000
  H   H47       1.0  0.29659  0.14048999999999995  0.8747099999999999  1.0000
  H   H48       1.0  0.05612  0.0674  0.88692  1.0000
  H   H49       1.0  0.09132000000000001  0.25392  0.9415100000000001  1.0000
  H   H50       1.0  0.86608  0.17262  0.95458  1.0000
  H   H51       1.0  0.17713000000000004  0.07099  0.99594  1.0000
  H   H52       1.0  0.37869000000000014  0.16479  0.99392  1.0000
  H   H53       1.0  0.9121000000000001  0.15596999999999994  0.06418  1.0000
  H   H54       1.0  0.11796  0.24649  0.06632  1.0000
  H   H55       1.0  0.82304  0.4292399999999999  0.61885  1.0000
  H   H56       1.0  0.61545  0.34955999999999987  0.61959  1.0000
  C   C1        1.0  0.5457899999999999  0.6514499999999998  0.7645799999999999  1.0000
  C   C2        1.0  0.6464500000000001  0.9668599999999998  0.71041  1.0000
  C   C3        1.0  0.2686799999999999  0.9845699999999997  0.77361  1.0000
  C   C4        1.0  0.17879  0.12148  0.67036  1.0000
  C   C5        1.0  0.9880100000000002  0.67606  0.67245  1.0000
  C   C6        1.0  0.10794000000000002  0.63796  0.61658  1.0000
  C   C7        1.0  0.05478000000000001  0.68207  0.555  1.0000
  C   C8        1.0  0.19164  0.64415  0.50099  1.0000
  C   C9        1.0  0.10012  0.67439  0.43838999999999995  1.0000
  C   C10       1.0  0.45433  0.8486999999999998  0.26461  1.0000
  C   C11       1.0  0.35448  0.5331999999999998  0.21052  1.0000
  C   C12       1.0  0.73163  0.5154399999999999  0.27361  1.0000
  C   C13       1.0  0.8220500000000002  0.37855  0.17042  1.0000
  C   C14       1.0  0.012019999999999972  0.8238599999999998  0.17244  1.0000
  C   C15       1.0  0.8919800000000002  0.8619699999999998  0.11661999999999999  1.0000
  C   C16       1.0  0.9451600000000001  0.81795  0.05501999999999999  1.0000
  C   C17       1.0  0.8083300000000001  0.8558799999999998  0.00103  1.0000
  C   C18       1.0  0.9000100000000001  0.82562  0.93842  1.0000
  C   C19       1.0  0.4553900000000001  0.3484799999999999  0.23574  1.0000
  C   C20       1.0  0.3535300000000001  0.03318999999999998  0.28962  1.0000
  C   C21       1.0  0.7314600000000002  0.01541  0.22645  1.0000
  C   C22       1.0  0.82115  0.8785099999999998  0.3296  1.0000
  C   C23       1.0  0.01204  0.3239  0.32756  1.0000
  C   C24       1.0  0.8920800000000001  0.36201  0.38342  1.0000
  C   C25       1.0  0.9452400000000001  0.31792  0.44499999999999995  1.0000
  C   C26       1.0  0.80838  0.35583  0.49902  1.0000
  C   C27       1.0  0.89999  0.32557999999999987  0.56161  1.0000
  C   C28       1.0  0.5457500000000001  0.15125  0.73538  1.0000
  C   C29       1.0  0.64631  0.4668499999999999  0.78947  1.0000
  C   C30       1.0  0.26887  0.4845799999999999  0.72636  1.0000
  C   C31       1.0  0.17855  0.62141  0.82961  1.0000
  C   C32       1.0  0.9880400000000003  0.1761  0.82756  1.0000
  C   C33       1.0  0.10800000000000001  0.13797  0.88338  1.0000
  C   C34       1.0  0.05485999999999999  0.18201999999999993  0.94499  1.0000
  C   C35       1.0  0.19171000000000005  0.14408  0.99897  1.0000
  C   C36       1.0  0.10013  0.17435  0.06158999999999999  1.0000
  N   N1        1.0  0.61697  0.72512  0.75812  1.0000
  N   N2        1.0  0.78535  0.9155499999999998  0.72327  1.0000
  N   N3        1.0  0.21885  0.9325399999999999  0.81244  1.0000
  N   N4        1.0  0.06074999999999997  0.6797099999999998  0.84374  1.0000
  N   N5        1.0  0.10682000000000001  0.75736  0.69732  1.0000
  N   N6        1.0  0.79201  0.86219  0.88283  1.0000
  N   N7        1.0  0.3833  0.77515  0.25795  1.0000
  N   N8        1.0  0.21554  0.58463  0.22348  1.0000
  N   N9        1.0  0.7814500000000002  0.5673  0.31249  1.0000
  N   N10       1.0  0.9389700000000002  0.82019  0.34363  1.0000
  N   N11       1.0  0.8933500000000001  0.7425199999999997  0.19729  1.0000
  N   N12       1.0  0.20830000000000004  0.63779  0.38282999999999995  1.0000
  N   N13       1.0  0.38237  0.27462  0.24164  1.0000
  N   N14       1.0  0.21465000000000004  0.08457999999999997  0.27669  1.0000
  N   N15       1.0  0.78151  0.06738  0.18762  1.0000
  N   N16       1.0  0.94009  0.3203099999999999  0.1562  1.0000
  N   N17       1.0  0.89334  0.24258999999999994  0.30269  1.0000
  N   N18       1.0  0.20823000000000003  0.1378  0.11717000000000001  1.0000
  N   N19       1.0  0.61707  0.22480999999999995  0.7419800000000001  1.0000
  N   N20       1.0  0.7852800000000001  0.41546  0.77663  1.0000
  N   N21       1.0  0.21877  0.43264999999999987  0.68753  1.0000
  N   N22       1.0  0.06121000000000001  0.17985999999999994  0.65627  1.0000
  N   N23       1.0  0.10684  0.25742  0.8026999999999999  1.0000
  N   N24       1.0  0.79193  0.36218  0.61718  1.0000
