data_image0
_chemical_formula_structural       Y4H32C36O28
_chemical_formula_sum              "Y4 H32 C36 O28"
_cell_length_a       8.00224
_cell_length_b       8.434290000000003
_cell_length_c       19.080659999999998
_cell_angle_alpha    103.06128
_cell_angle_beta     92.93520999999998
_cell_angle_gamma    89.96377

_symmetry_space_group_name_H-M    'P 1'
_symmetry_Int_Tables_number       1

loop_
  _symmetry_equiv_pos_as_xyz
  'x,y,z'

loop_
  _atom_site_type_symbol
  _atom_site_label
  _atom_site_symmetry_multiplicity
  _atom_site_fract_x
  _atom_site_fract_y
  _atom_site_fract_z
  _atom_site_occupancy
  Y   Y1        1.0  0.2331  0.10606  0.73255  1.0000
  Y   Y2        1.0  0.26907  0.3764  0.26568  1.0000
  Y   Y3        1.0  0.7668599999999999  0.89401  0.26744999999999997  1.0000
  Y   Y4        1.0  0.73107  0.6231  0.73429  1.0000
  H   H1        1.0  0.17427  0.97661  0.45097  1.0000
  H   H2        1.0  0.38426  0.2750600000000001  0.44088  1.0000
  H   H3        1.0  0.34264000000000006  0.06622999999999996  0.55562  1.0000
  H   H4        1.0  0.55977  0.3714  0.56391  1.0000
  H   H5        1.0  0.56057  0.22394999999999998  0.956  1.0000
  H   H6        1.0  0.36762  0.53259  0.94145  1.0000
  H   H7        1.0  0.04278  0.92835  0.8323199999999998  1.0000
  H   H8        1.0  0.95146  0.95071  0.76316  1.0000
  H   H9        1.0  0.3277  0.51942  0.54733  1.0000
  H   H10       1.0  0.11774  0.82874  0.55946  1.0000
  H   H11       1.0  0.15828  0.50749  0.44168  1.0000
  H   H12       1.0  0.94508  0.80919  0.43816  1.0000
  H   H13       1.0  0.93853  0.26800000000000007  0.04304999999999999  1.0000
  H   H14       1.0  0.135  0.5894100000000002  0.058059999999999994  1.0000
  H   H15       1.0  0.46441  0.10089  0.16882  1.0000
  H   H16       1.0  0.5577100000000003  0.19856000000000004  0.23616  1.0000
  H   H17       1.0  0.82548  0.02296999999999995  0.5489199999999999  1.0000
  H   H18       1.0  0.6154800000000002  0.72491  0.55905  1.0000
  H   H19       1.0  0.65709  0.93378  0.44435  1.0000
  H   H20       1.0  0.44013  0.62844  0.43600999999999995  1.0000
  H   H21       1.0  0.43942  0.77588  0.04394  1.0000
  H   H22       1.0  0.63237  0.46729  0.058519999999999996  1.0000
  H   H23       1.0  0.95709  0.07164  0.16762  1.0000
  H   H24       1.0  0.04837000000000002  0.049409999999999996  0.23683999999999997  1.0000
  H   H25       1.0  0.67246  0.48052000000000006  0.45269  1.0000
  H   H26       1.0  0.88241  0.17123  0.44054  1.0000
  H   H27       1.0  0.84186  0.4925  0.5583  1.0000
  H   H28       1.0  0.05481000000000001  0.19066000000000005  0.5619  1.0000
  H   H29       1.0  0.06156000000000001  0.7321  0.95697  1.0000
  H   H30       1.0  0.8651499999999999  0.41071000000000013  0.94197  1.0000
  H   H31       1.0  0.53573  0.8986200000000001  0.8311699999999997  1.0000
  H   H32       1.0  0.44238  0.80119  0.76383  1.0000
  C   C1        1.0  0.13224  0.07375  0.35666  1.0000
  C   C2        1.0  0.21939  0.07251999999999996  0.4266899999999999  1.0000
  C   C3        1.0  0.33701  0.17805000000000007  0.46394  1.0000
  C   C4        1.0  0.39446000000000003  0.16607999999999995  0.53541  1.0000
  C   C5        1.0  0.50124  0.2705100000000001  0.58033  1.0000
  C   C6        1.0  0.53956  0.25991000000000003  0.656  1.0000
  C   C7        1.0  0.3817700000000001  0.22905  0.86578  1.0000
  C   C8        1.0  0.47466  0.30258999999999997  0.9338599999999999  1.0000
  C   C9        1.0  0.4554600000000001  0.46099  0.96689  1.0000
  C   C10       1.0  0.36639  0.70975  0.64331  1.0000
  C   C11       1.0  0.28203  0.63934  0.57242  1.0000
  C   C12       1.0  0.16532  0.7087900000000003  0.53556  1.0000
  C   C13       1.0  0.10822  0.62802  0.46346  1.0000
  C   C14       1.0  0.002269999999999988  0.6913899999999998  0.4198399999999999  1.0000
  C   C15       1.0  0.96  0.6088  0.34375  1.0000
  C   C16       1.0  0.12086  0.3613900000000001  0.13218  1.0000
  C   C17       1.0  0.026259999999999995  0.36769  0.06487  1.0000
  C   C18       1.0  0.0456  0.49339  0.03262  1.0000
  C   C19       1.0  0.86766  0.9263499999999999  0.6434099999999999  1.0000
  C   C20       1.0  0.78043  0.92741  0.57339  1.0000
  C   C21       1.0  0.6628800000000002  0.82195  0.53609  1.0000
  C   C22       1.0  0.60552  0.8339299999999998  0.4646199999999999  1.0000
  C   C23       1.0  0.49878  0.7294199999999998  0.41969999999999996  1.0000
  C   C24       1.0  0.46079  0.73962  0.34396  1.0000
  C   C25       1.0  0.61823  0.7708700000000003  0.13417  1.0000
  C   C26       1.0  0.52533  0.69728  0.06609  1.0000
  C   C27       1.0  0.54453  0.53888  0.03307  1.0000
  C   C28       1.0  0.63373  0.29016  0.3567  1.0000
  C   C29       1.0  0.71812  0.36059  0.42759  1.0000
  C   C30       1.0  0.83483  0.29115  0.46445  1.0000
  C   C31       1.0  0.89187  0.37193  0.53655  1.0000
  C   C32       1.0  0.99771  0.30851  0.58019  1.0000
  C   C33       1.0  0.04008000000000001  0.39118  0.65625  1.0000
  C   C34       1.0  0.87929  0.63862  0.86783  1.0000
  C   C35       1.0  0.97385  0.6324  0.9351399999999999  1.0000
  C   C36       1.0  0.9545399999999999  0.50674  0.9674199999999998  1.0000
  O   O1        1.0  0.1839  0.15687000000000006  0.31343  1.0000
  O   O2        1.0  0.0001799999999999937  0.9839500000000001  0.3437  1.0000
  O   O3        1.0  0.46638  0.14966  0.67999  1.0000
  O   O4        1.0  0.15016  0.32612  0.69096  1.0000
  O   O5        1.0  0.27533  0.31041  0.83635  1.0000
  O   O6        1.0  0.40898999999999996  0.07910999999999986  0.8345499999999998  1.0000
  O   O7        1.0  0.04124  0.0016999999999999572  0.7987499999999998  1.0000
  O   O8        1.0  0.30948  0.8332  0.6873499999999999  1.0000
  O   O9        1.0  0.49979000000000007  0.63522  0.65637  1.0000
  O   O10       1.0  0.03388  0.47646  0.31646  1.0000
  O   O11       1.0  0.35732  0.6371400000000002  0.30577  1.0000
  O   O12       1.0  0.22989000000000012  0.47075  0.1609  1.0000
  O   O13       1.0  0.09183  0.24423999999999996  0.16351999999999997  1.0000
  O   O14       1.0  0.46674  0.2109  0.20060999999999996  1.0000
  O   O15       1.0  0.81639  0.84307  0.68665  1.0000
  O   O16       1.0  0.99956  0.016359999999999948  0.6563399999999999  1.0000
  O   O17       1.0  0.53343  0.85022  0.31999  1.0000
  O   O18       1.0  0.84999  0.6739600000000002  0.30904  1.0000
  O   O19       1.0  0.72466  0.68956  0.16363  1.0000
  O   O20       1.0  0.59103  0.9208300000000003  0.16536999999999996  1.0000
  O   O21       1.0  0.95868  0.99837  0.20124  1.0000
  O   O22       1.0  0.69065  0.16679000000000002  0.3126  1.0000
  O   O23       1.0  0.50025  0.36457  0.34367  1.0000
  O   O24       1.0  0.96621  0.52354  0.68353  1.0000
  O   O25       1.0  0.6440200000000001  0.36142  0.69409  1.0000
  O   O26       1.0  0.7704600000000003  0.52906  0.83908  1.0000
  O   O27       1.0  0.90813  0.75579  0.83648  1.0000
  O   O28       1.0  0.53322  0.78858  0.7994  1.0000
