data_image0
_chemical_formula_structural       Ag8H40C60N40
_chemical_formula_sum              "Ag8 H40 C60 N40"
_cell_length_a       7.24951
_cell_length_b       17.36311
_cell_length_c       17.363109999999995
_cell_angle_alpha    89.99821
_cell_angle_beta     90.0
_cell_angle_gamma    90.0

_symmetry_space_group_name_H-M    'P 1'
_symmetry_Int_Tables_number       1

loop_
  _symmetry_equiv_pos_as_xyz
  'x,y,z'

loop_
  _atom_site_type_symbol
  _atom_site_label
  _atom_site_symmetry_multiplicity
  _atom_site_fract_x
  _atom_site_fract_y
  _atom_site_fract_z
  _atom_site_occupancy
  Ag  Ag1       1.0  0.75436  0.18541999999999995  0.18542  1.0000
  Ag  Ag2       1.0  0.75436  0.81458  0.81458  1.0000
  Ag  Ag3       1.0  0.24563999999999997  0.81458  0.81458  1.0000
  Ag  Ag4       1.0  0.24563999999999997  0.18541999999999995  0.18542  1.0000
  Ag  Ag5       1.0  0.25447  0.68541  0.31458  1.0000
  Ag  Ag6       1.0  0.25447  0.31457999999999997  0.68541  1.0000
  Ag  Ag7       1.0  0.74552  0.31457999999999997  0.68541  1.0000
  Ag  Ag8       1.0  0.74552  0.68541  0.31458  1.0000
  H   H1        1.0  0.16353999999999994  0.70563  0.12782999999999997  1.0000
  H   H2        1.0  0.16368999999999997  0.74532  0.9767399999999999  1.0000
  H   H3        1.0  0.16353999999999994  0.29437  0.8721699999999998  1.0000
  H   H4        1.0  0.16368999999999997  0.25467  0.02326  1.0000
  H   H5        1.0  0.83646  0.12783  0.70563  1.0000
  H   H6        1.0  0.83631  0.97674  0.74532  1.0000
  H   H7        1.0  0.83646  0.87217  0.29437  1.0000
  H   H8        1.0  0.83631  0.02326  0.25467  1.0000
  H   H9        1.0  0.83646  0.29437  0.8721699999999998  1.0000
  H   H10       1.0  0.83631  0.25467  0.02326  1.0000
  H   H11       1.0  0.83646  0.70563  0.12782999999999997  1.0000
  H   H12       1.0  0.83631  0.74532  0.9767399999999999  1.0000
  H   H13       1.0  0.16353999999999994  0.87217  0.29437  1.0000
  H   H14       1.0  0.16368999999999997  0.02326  0.25467  1.0000
  H   H15       1.0  0.16353999999999994  0.12783  0.70563  1.0000
  H   H16       1.0  0.16368999999999997  0.97674  0.74532  1.0000
  H   H17       1.0  0.6635199999999998  0.05523999999999999  0.05524  1.0000
  H   H18       1.0  0.6635199999999998  0.94475  0.94475  1.0000
  H   H19       1.0  0.33647999999999995  0.94475  0.94475  1.0000
  H   H20       1.0  0.33647999999999995  0.05523999999999999  0.05524  1.0000
  H   H21       1.0  0.66354  0.37217  0.20563  1.0000
  H   H22       1.0  0.66369  0.52326  0.24532  1.0000
  H   H23       1.0  0.66354  0.6278299999999998  0.7943599999999997  1.0000
  H   H24       1.0  0.66369  0.47674000000000005  0.7546699999999997  1.0000
  H   H25       1.0  0.33646  0.7943599999999997  0.62783  1.0000
  H   H26       1.0  0.33631  0.75467  0.47673999999999994  1.0000
  H   H27       1.0  0.33646  0.20563  0.37217  1.0000
  H   H28       1.0  0.33631  0.24531999999999998  0.52326  1.0000
  H   H29       1.0  0.33646  0.6278299999999998  0.7943599999999997  1.0000
  H   H30       1.0  0.33631  0.47674000000000005  0.7546699999999997  1.0000
  H   H31       1.0  0.33646  0.37217  0.20563  1.0000
  H   H32       1.0  0.33631  0.52326  0.24532  1.0000
  H   H33       1.0  0.66354  0.20563  0.37217  1.0000
  H   H34       1.0  0.66369  0.24531999999999998  0.52326  1.0000
  H   H35       1.0  0.66354  0.7943599999999997  0.62783  1.0000
  H   H36       1.0  0.66369  0.75467  0.47673999999999994  1.0000
  H   H37       1.0  0.16352  0.55524  0.4447499999999999  1.0000
  H   H38       1.0  0.16352  0.4447499999999999  0.55524  1.0000
  H   H39       1.0  0.83648  0.4447499999999999  0.55524  1.0000
  H   H40       1.0  0.83648  0.55524  0.4447499999999999  1.0000
  C   C1        1.0  0.3137  0.70825  0.12292  1.0000
  C   C2        1.0  0.40161  0.72722  0.052749999999999984  1.0000
  C   C3        1.0  0.3138  0.74436  0.98235  1.0000
  C   C4        1.0  0.3137  0.29174999999999995  0.87707  1.0000
  C   C5        1.0  0.40161  0.27278  0.94725  1.0000
  C   C6        1.0  0.3138  0.25564  0.017649999999999992  1.0000
  C   C7        1.0  0.6863  0.12291999999999999  0.70825  1.0000
  C   C8        1.0  0.59838  0.05275  0.72722  1.0000
  C   C9        1.0  0.6862  0.98235  0.74435  1.0000
  C   C10       1.0  0.6863  0.8770699999999998  0.29174999999999995  1.0000
  C   C11       1.0  0.59838  0.9472499999999999  0.27278  1.0000
  C   C12       1.0  0.6862  0.017649999999999996  0.25564  1.0000
  C   C13       1.0  0.6863  0.29174999999999995  0.87707  1.0000
  C   C14       1.0  0.59838  0.27278  0.94725  1.0000
  C   C15       1.0  0.6862  0.25564  0.017649999999999992  1.0000
  C   C16       1.0  0.6863  0.70825  0.12292  1.0000
  C   C17       1.0  0.59838  0.72722  0.052749999999999984  1.0000
  C   C18       1.0  0.6862  0.74436  0.98235  1.0000
  C   C19       1.0  0.3137  0.8770699999999998  0.29174999999999995  1.0000
  C   C20       1.0  0.40161  0.9472499999999999  0.27278  1.0000
  C   C21       1.0  0.3138  0.017649999999999996  0.25564  1.0000
  C   C22       1.0  0.3137  0.12291999999999999  0.70825  1.0000
  C   C23       1.0  0.40161  0.05275  0.72722  1.0000
  C   C24       1.0  0.3138  0.98235  0.74435  1.0000
  C   C25       1.0  0.8136799999999997  0.05139  0.05138999999999999  1.0000
  C   C26       1.0  0.8136799999999997  0.9486  0.9485999999999999  1.0000
  C   C27       1.0  0.18632  0.9486  0.9485999999999999  1.0000
  C   C28       1.0  0.18632  0.05139  0.05138999999999999  1.0000
  C   C29       1.0  0.90144  0.0  0.0  1.0000
  C   C30       1.0  0.09856  0.0  0.0  1.0000
  C   C31       1.0  0.8137  0.37708  0.20824999999999994  1.0000
  C   C32       1.0  0.90161  0.44725  0.22722  1.0000
  C   C33       1.0  0.8138  0.5176499999999999  0.24434999999999998  1.0000
  C   C34       1.0  0.8137  0.62292  0.79175  1.0000
  C   C35       1.0  0.90161  0.55275  0.77278  1.0000
  C   C36       1.0  0.8138  0.48234999999999995  0.7556399999999998  1.0000
  C   C37       1.0  0.1863  0.79175  0.62292  1.0000
  C   C38       1.0  0.09838  0.77278  0.5527499999999999  1.0000
  C   C39       1.0  0.1862  0.75564  0.48235000000000006  1.0000
  C   C40       1.0  0.1863  0.20824999999999996  0.37708  1.0000
  C   C41       1.0  0.09838  0.22722  0.44724999999999987  1.0000
  C   C42       1.0  0.1862  0.24434999999999998  0.51765  1.0000
  C   C43       1.0  0.1863  0.62292  0.79175  1.0000
  C   C44       1.0  0.09838  0.55275  0.77278  1.0000
  C   C45       1.0  0.1862  0.48234999999999995  0.7556399999999998  1.0000
  C   C46       1.0  0.1863  0.37708  0.20824999999999994  1.0000
  C   C47       1.0  0.09838  0.44725  0.22722  1.0000
  C   C48       1.0  0.1862  0.5176499999999999  0.24434999999999998  1.0000
  C   C49       1.0  0.8137  0.20824999999999996  0.37708  1.0000
  C   C50       1.0  0.90161  0.22722  0.44724999999999987  1.0000
  C   C51       1.0  0.8138  0.24434999999999998  0.51765  1.0000
  C   C52       1.0  0.8137  0.79175  0.62292  1.0000
  C   C53       1.0  0.90161  0.77278  0.5527499999999999  1.0000
  C   C54       1.0  0.8138  0.75564  0.48235000000000006  1.0000
  C   C55       1.0  0.31368  0.55139  0.4486  1.0000
  C   C56       1.0  0.31368  0.4486  0.55139  1.0000
  C   C57       1.0  0.68631  0.4486  0.55139  1.0000
  C   C58       1.0  0.68631  0.55139  0.4486  1.0000
  C   C59       1.0  0.4014299999999999  0.5  0.5  1.0000
  C   C60       1.0  0.59857  0.5  0.5  1.0000
  N   N1        1.0  0.40719  0.69007  0.18715  1.0000
  N   N2        1.0  0.40703  0.75765  0.91666  1.0000
  N   N3        1.0  0.40719  0.30993  0.81284  1.0000
  N   N4        1.0  0.40703  0.24234000000000003  0.08333  1.0000
  N   N5        1.0  0.5928  0.18715  0.69007  1.0000
  N   N6        1.0  0.59297  0.91666  0.75765  1.0000
  N   N7        1.0  0.5928  0.81284  0.30993  1.0000
  N   N8        1.0  0.59297  0.08333  0.24234  1.0000
  N   N9        1.0  0.5928  0.30993  0.81284  1.0000
  N   N10       1.0  0.59297  0.24234000000000003  0.08333  1.0000
  N   N11       1.0  0.5928  0.69007  0.18715  1.0000
  N   N12       1.0  0.59297  0.75765  0.91666  1.0000
  N   N13       1.0  0.40719  0.81284  0.30993  1.0000
  N   N14       1.0  0.40703  0.08333  0.24234  1.0000
  N   N15       1.0  0.40719  0.18715  0.69007  1.0000
  N   N16       1.0  0.40703  0.91666  0.75765  1.0000
  N   N17       1.0  0.90788  0.09890999999999997  0.09890999999999998  1.0000
  N   N18       1.0  0.90788  0.9010899999999997  0.90109  1.0000
  N   N19       1.0  0.09212  0.9010899999999997  0.90109  1.0000
  N   N20       1.0  0.09212  0.09890999999999997  0.09890999999999998  1.0000
  N   N21       1.0  0.9071899999999999  0.31285  0.19007  1.0000
  N   N22       1.0  0.9070299999999998  0.58333  0.25765999999999994  1.0000
  N   N23       1.0  0.9071899999999999  0.6871499999999998  0.80992  1.0000
  N   N24       1.0  0.9070299999999998  0.41667  0.74234  1.0000
  N   N25       1.0  0.09279999999999997  0.80992  0.68715  1.0000
  N   N26       1.0  0.09297  0.74234  0.41666999999999993  1.0000
  N   N27       1.0  0.09279999999999997  0.19006999999999993  0.31285  1.0000
  N   N28       1.0  0.09297  0.2576599999999999  0.58333  1.0000
  N   N29       1.0  0.09279999999999997  0.6871499999999998  0.80992  1.0000
  N   N30       1.0  0.09297  0.41667  0.74234  1.0000
  N   N31       1.0  0.09279999999999997  0.31285  0.19007  1.0000
  N   N32       1.0  0.09297  0.58333  0.25765999999999994  1.0000
  N   N33       1.0  0.9071899999999999  0.19006999999999993  0.31285  1.0000
  N   N34       1.0  0.9070299999999998  0.2576599999999999  0.58333  1.0000
  N   N35       1.0  0.9071899999999999  0.80992  0.68715  1.0000
  N   N36       1.0  0.9070299999999998  0.74234  0.41666999999999993  1.0000
  N   N37       1.0  0.40788  0.59891  0.40109  1.0000
  N   N38       1.0  0.40788  0.40109  0.59891  1.0000
  N   N39       1.0  0.59212  0.40109  0.59891  1.0000
  N   N40       1.0  0.59212  0.59891  0.40109  1.0000
