data_image0
_chemical_formula_structural       Co4H44C74N12O16
_chemical_formula_sum              "Co4 H44 C74 N12 O16"
_cell_length_a       11.7254
_cell_length_b       14.04127
_cell_length_c       14.24228
_cell_angle_alpha    61.25598999999999
_cell_angle_beta     69.38983000000002
_cell_angle_gamma    68.96109

_symmetry_space_group_name_H-M    'P 1'
_symmetry_Int_Tables_number       1

loop_
  _symmetry_equiv_pos_as_xyz
  'x,y,z'

loop_
  _atom_site_type_symbol
  _atom_site_label
  _atom_site_symmetry_multiplicity
  _atom_site_fract_x
  _atom_site_fract_y
  _atom_site_fract_z
  _atom_site_occupancy
  Co  Co1       1.0  0.38683999999999996  0.43804000000000015  0.44789999999999996  1.0000
  Co  Co2       1.0  0.7523499999999999  0.03737999999999999  0.99698  1.0000
  Co  Co3       1.0  0.6131600000000001  0.56196  0.5521  1.0000
  Co  Co4       1.0  0.24764999999999987  0.9626200000000003  0.00302  1.0000
  H   H1        1.0  0.8776199999999998  0.39870000000000005  0.39845  1.0000
  H   H2        1.0  0.9253699999999999  0.20738000000000006  0.21869  1.0000
  H   H3        1.0  0.24631999999999996  0.28557  0.22408  1.0000
  H   H4        1.0  0.9908500000000001  0.56795  0.29508  1.0000
  H   H5        1.0  0.32755  0.2649  0.06783  1.0000
  H   H6        1.0  0.06847999999999993  0.06287  0.18409  1.0000
  H   H7        1.0  0.6717899999999999  0.4599400000000001  0.36337  1.0000
  H   H8        1.0  0.76833  0.13877000000000006  0.35934  1.0000
  H   H9        1.0  0.51169  0.20093000000000003  0.43344  1.0000
  H   H10       1.0  0.28153999999999996  0.28058  0.39849  1.0000
  H   H11       1.0  0.16406999999999994  0.6211  0.34378999999999993  1.0000
  H   H12       1.0  0.56376  0.81931  0.2085  1.0000
  H   H13       1.0  0.21115000000000006  0.7600600000000001  0.42427  1.0000
  H   H14       1.0  0.3077499999999999  0.07120000000000001  0.31843  1.0000
  H   H15       1.0  0.018629999999999973  0.8785800000000004  0.41126  1.0000
  H   H16       1.0  0.18674999999999997  0.055439999999999996  0.48354  1.0000
  H   H17       1.0  0.1221699999999999  0.15901000000000012  0.7451  1.0000
  H   H18       1.0  0.9152799999999999  0.25895  0.01193  1.0000
  H   H19       1.0  0.22915999999999997  0.39911  0.78136  1.0000
  H   H20       1.0  0.8365599999999999  0.42489  0.0034799999999999996  1.0000
  H   H21       1.0  0.22261999999999993  0.44136999999999993  0.91364  1.0000
  H   H22       1.0  0.40779  0.12766  0.95825  1.0000
  H   H23       1.0  0.1223800000000001  0.60129  0.60155  1.0000
  H   H24       1.0  0.07462999999999996  0.7926100000000003  0.7813100000000001  1.0000
  H   H25       1.0  0.7536799999999998  0.7144200000000003  0.77592  1.0000
  H   H26       1.0  0.009149999999999893  0.43204000000000015  0.70492  1.0000
  H   H27       1.0  0.67245  0.73509  0.93217  1.0000
  H   H28       1.0  0.9315200000000001  0.93712  0.81591  1.0000
  H   H29       1.0  0.32821000000000006  0.54005  0.63663  1.0000
  H   H30       1.0  0.23166999999999996  0.8612200000000001  0.64066  1.0000
  H   H31       1.0  0.48831  0.79906  0.56656  1.0000
  H   H32       1.0  0.71846  0.7194100000000002  0.60151  1.0000
  H   H33       1.0  0.83593  0.3789  0.65621  1.0000
  H   H34       1.0  0.43623999999999996  0.18068000000000006  0.7915  1.0000
  H   H35       1.0  0.7888499999999998  0.23993000000000003  0.57573  1.0000
  H   H36       1.0  0.69225  0.9288  0.68157  1.0000
  H   H37       1.0  0.98137  0.12141000000000005  0.58873  1.0000
  H   H38       1.0  0.81325  0.9445500000000002  0.51646  1.0000
  H   H39       1.0  0.8778299999999999  0.84098  0.2549  1.0000
  H   H40       1.0  0.08471999999999996  0.7410500000000002  0.98807  1.0000
  H   H41       1.0  0.77084  0.6008800000000001  0.21863999999999997  1.0000
  H   H42       1.0  0.16344000000000003  0.5751  0.99652  1.0000
  H   H43       1.0  0.77738  0.55862  0.08636000000000002  1.0000
  H   H44       1.0  0.59221  0.87233  0.04174  1.0000
  C   C1        1.0  0.9378799999999998  0.35438000000000003  0.34687000000000007  1.0000
  C   C2        1.0  0.88906  0.2996900000000001  0.3148  1.0000
  C   C3        1.0  0.9662499999999999  0.24283000000000002  0.24859  1.0000
  C   C4        1.0  0.09464999999999994  0.23715000000000006  0.21685  1.0000
  C   C5        1.0  0.14638999999999994  0.28926000000000013  0.24916  1.0000
  C   C6        1.0  0.06669999999999995  0.3486100000000001  0.31254  1.0000
  C   C7        1.0  0.07556999999999996  0.51784  0.32454  1.0000
  C   C8        1.0  0.28509  0.20481000000000005  0.07416  1.0000
  C   C9        1.0  0.14760999999999996  0.10060000000000005  0.13562  1.0000
  C   C10       1.0  0.66237  0.38165  0.37265  1.0000
  C   C11       1.0  0.70949  0.21455  0.36826  1.0000
  C   C12       1.0  0.58349  0.24607  0.40481  1.0000
  C   C13       1.0  0.22933999999999993  0.36653  0.37479000000000007  1.0000
  C   C14       1.0  0.1617399999999999  0.5424400000000003  0.34873  1.0000
  C   C15       1.0  0.5267  0.03486000000000001  0.18299  1.0000
  C   C16       1.0  0.4431199999999998  0.9545900000000003  0.25536  1.0000
  C   C17       1.0  0.47405999999999987  0.8485800000000002  0.25521  1.0000
  C   C18       1.0  0.3914499999999998  0.7778900000000003  0.31756  1.0000
  C   C19       1.0  0.27482000000000006  0.81571  0.37664  1.0000
  C   C20       1.0  0.24183999999999997  0.92164  0.37794  1.0000
  C   C21       1.0  0.32903000000000004  0.98897  0.31897  1.0000
  C   C22       1.0  0.11859999999999978  0.9616700000000002  0.43973  1.0000
  C   C23       1.0  0.011229999999999938  0.9306300000000003  0.45125  1.0000
  C   C24       1.0  0.10461999999999999  0.03201999999999999  0.48953  1.0000
  C   C25       1.0  0.4305399999999999  0.6611500000000001  0.32311  1.0000
  C   C26       1.0  0.2770500000000001  0.30083  0.64581  1.0000
  C   C27       1.0  0.18678  0.27873000000000014  0.7554399999999999  1.0000
  C   C28       1.0  0.10858999999999998  0.20672000000000001  0.79144  1.0000
  C   C29       1.0  0.012050000000000005  0.20001999999999998  0.88511  1.0000
  C   C30       1.0  0.9926599999999998  0.26581000000000005  0.94071  1.0000
  C   C31       1.0  0.0675099999999999  0.3409900000000002  0.90368  1.0000
  C   C32       1.0  0.16759999999999997  0.34313999999999995  0.81276  1.0000
  C   C33       1.0  0.03444999999999975  0.4212600000000002  0.9533500000000001  1.0000
  C   C34       1.0  0.9091699999999998  0.45626  0.00315  1.0000
  C   C35       1.0  0.12470000000000005  0.4672799999999999  0.95052  1.0000
  C   C36       1.0  0.9196199999999997  0.13227000000000005  0.92445  1.0000
  C   C37       1.0  0.32442  0.13609  0.02072  1.0000
  C   C38       1.0  0.0621199999999999  0.6456200000000002  0.65313  1.0000
  C   C39       1.0  0.1109499999999999  0.7003000000000003  0.6851899999999999  1.0000
  C   C40       1.0  0.03374999999999977  0.7571600000000005  0.7514  1.0000
  C   C41       1.0  0.9053499999999997  0.7628400000000001  0.78315  1.0000
  C   C42       1.0  0.85361  0.71073  0.75084  1.0000
  C   C43       1.0  0.9332999999999997  0.6513800000000001  0.68746  1.0000
  C   C44       1.0  0.92443  0.48215  0.67546  1.0000
  C   C45       1.0  0.7149099999999999  0.79518  0.92583  1.0000
  C   C46       1.0  0.8524  0.8994000000000004  0.86438  1.0000
  C   C47       1.0  0.3376300000000001  0.6183399999999999  0.62735  1.0000
  C   C48       1.0  0.2905100000000001  0.78544  0.63174  1.0000
  C   C49       1.0  0.41650999999999994  0.75392  0.59519  1.0000
  C   C50       1.0  0.77066  0.63347  0.6252  1.0000
  C   C51       1.0  0.8382600000000001  0.45755  0.65127  1.0000
  C   C52       1.0  0.4733000000000001  0.9651299999999999  0.81701  1.0000
  C   C53       1.0  0.55688  0.04540999999999997  0.74464  1.0000
  C   C54       1.0  0.5259499999999998  0.15141  0.7447900000000001  1.0000
  C   C55       1.0  0.6085500000000001  0.2221  0.68244  1.0000
  C   C56       1.0  0.7251799999999998  0.18428000000000003  0.62336  1.0000
  C   C57       1.0  0.75816  0.07836  0.62206  1.0000
  C   C58       1.0  0.6709700000000001  0.01103000000000001  0.68103  1.0000
  C   C59       1.0  0.8813999999999997  0.03832000000000007  0.56026  1.0000
  C   C60       1.0  0.9887700000000001  0.06936999999999999  0.54875  1.0000
  C   C61       1.0  0.8953799999999998  0.9679800000000001  0.51047  1.0000
  C   C62       1.0  0.5694600000000001  0.33884  0.67689  1.0000
  C   C63       1.0  0.7229499999999999  0.6991600000000002  0.35419  1.0000
  C   C64       1.0  0.8132199999999999  0.7212700000000001  0.24456  1.0000
  C   C65       1.0  0.89141  0.79327  0.20856  1.0000
  C   C66       1.0  0.98796  0.7999700000000001  0.11489  1.0000
  C   C67       1.0  0.007340000000000001  0.73419  0.05929000000000001  1.0000
  C   C68       1.0  0.93249  0.65901  0.09632  1.0000
  C   C69       1.0  0.8323999999999999  0.65686  0.18724000000000002  1.0000
  C   C70       1.0  0.96555  0.57873  0.04665  1.0000
  C   C71       1.0  0.09083000000000002  0.54374  0.99685  1.0000
  C   C72       1.0  0.8752999999999997  0.53272  0.04948  1.0000
  C   C73       1.0  0.08037999999999981  0.8677300000000002  0.07555  1.0000
  C   C74       1.0  0.6755800000000001  0.8638999999999999  0.97928  1.0000
  N   N1        1.0  0.5551499999999998  0.35046999999999995  0.40611  1.0000
  N   N2        1.0  0.7597099999999998  0.3005000000000001  0.34885  1.0000
  N   N3        1.0  0.17203000000000004  0.18276999999999996  0.14664  1.0000
  N   N4        1.0  0.11941999999999997  0.40609000000000006  0.34049000000000007  1.0000
  N   N5        1.0  0.25661999999999996  0.44742  0.38076000000000004  1.0000
  N   N6        1.0  0.2381  0.07159  0.059750000000000004  1.0000
  N   N7        1.0  0.44484999999999997  0.6495200000000002  0.59389  1.0000
  N   N8        1.0  0.24029000000000003  0.6994999999999999  0.65115  1.0000
  N   N9        1.0  0.8279699999999998  0.8172300000000002  0.85336  1.0000
  N   N10       1.0  0.88058  0.5939  0.65951  1.0000
  N   N11       1.0  0.74338  0.55258  0.61923  1.0000
  N   N12       1.0  0.7619  0.9284100000000002  0.94025  1.0000
  O   O1        1.0  0.5086  0.12381  0.19017  1.0000
  O   O2        1.0  0.61472  0.00022999999999999898  0.11046  1.0000
  O   O3        1.0  0.5132199999999999  0.6359700000000003  0.25008  1.0000
  O   O4        1.0  0.37021999999999994  0.5924300000000002  0.41244  1.0000
  O   O5        1.0  0.3115800000000001  0.39463000000000004  0.60399  1.0000
  O   O6        1.0  0.3080999999999999  0.23796000000000012  0.59764  1.0000
  O   O7        1.0  0.87824  0.12370000000000002  0.85734  1.0000
  O   O8        1.0  0.87374  0.08617000000000001  0.0283  1.0000
  O   O9        1.0  0.4914  0.87619  0.80983  1.0000
  O   O10       1.0  0.3852799999999999  0.99976  0.8895300000000002  1.0000
  O   O11       1.0  0.4867799999999998  0.36401999999999995  0.7499200000000001  1.0000
  O   O12       1.0  0.62978  0.4075599999999999  0.58756  1.0000
  O   O13       1.0  0.68842  0.6053700000000002  0.3960099999999999  1.0000
  O   O14       1.0  0.6918999999999998  0.7620400000000002  0.40236  1.0000
  O   O15       1.0  0.1217599999999999  0.8762900000000002  0.14266  1.0000
  O   O16       1.0  0.12626000000000004  0.91383  0.9716999999999999  1.0000
