data_image0
_chemical_formula_structural       Dy2Cd4H22C40N12Cl4O18
_chemical_formula_sum              "Dy2 Cd4 H22 C40 N12 Cl4 O18"
_cell_length_a       7.53354
_cell_length_b       12.473490000000002
_cell_length_c       17.56886
_cell_angle_alpha    68.71829
_cell_angle_beta     86.79820000000001
_cell_angle_gamma    81.20089

_symmetry_space_group_name_H-M    'P 1'
_symmetry_Int_Tables_number       1

loop_
  _symmetry_equiv_pos_as_xyz
  'x,y,z'

loop_
  _atom_site_type_symbol
  _atom_site_label
  _atom_site_symmetry_multiplicity
  _atom_site_fract_x
  _atom_site_fract_y
  _atom_site_fract_z
  _atom_site_occupancy
  Dy  Dy1       1.0  0.8095  0.58963  0.766  1.0000
  Dy  Dy2       1.0  0.29486  0.35633  0.23393000000000005  1.0000
  Cd  Cd1       1.0  0.8167099999999999  0.02095999999999991  0.9015300000000003  1.0000
  Cd  Cd2       1.0  0.5405699999999999  0.84427  0.47677  1.0000
  Cd  Cd3       1.0  0.31616999999999995  0.9251200000000002  0.09848  1.0000
  Cd  Cd4       1.0  0.03626999999999997  0.3223700000000001  0.52414  1.0000
  H   H1        1.0  0.2701299999999999  0.34397  0.81798  1.0000
  H   H2        1.0  0.38742999999999994  0.7869300000000001  0.83728  1.0000
  H   H3        1.0  0.38595999999999986  0.47825  0.5718  1.0000
  H   H4        1.0  0.22326999999999989  0.8781  0.59839  1.0000
  H   H5        1.0  0.55876  0.28922  0.57535  1.0000
  H   H6        1.0  0.2375299999999999  0.9720800000000003  0.84593  1.0000
  H   H7        1.0  0.06035  0.06753000000000003  0.59669  1.0000
  H   H8        1.0  0.42521999999999976  0.14822999999999997  0.8325  1.0000
  H   H9        1.0  0.9767800000000001  0.43832999999999994  0.9277400000000002  1.0000
  H   H10       1.0  0.01676000000000003  0.3926399999999999  0.85801  1.0000
  H   H11       1.0  0.5627099999999996  0.08048000000000001  0.59347  1.0000
  H   H12       1.0  0.76887  0.16333  0.18157  1.0000
  H   H13       1.0  0.8860999999999999  0.62515  0.16299000000000005  1.0000
  H   H14       1.0  0.88664  0.04908  0.42744  1.0000
  H   H15       1.0  0.72353  0.47457999999999984  0.4024300000000001  1.0000
  H   H16       1.0  0.06009999999999997  0.86352  0.42445  1.0000
  H   H17       1.0  0.7370399999999998  0.81946  0.15376000000000006  1.0000
  H   H18       1.0  0.56158  0.6630100000000001  0.40358  1.0000
  H   H19       1.0  0.9244600000000001  0.98193  0.16771000000000005  1.0000
  H   H20       1.0  0.47597  0.36661  0.07298000000000003  1.0000
  H   H21       1.0  0.51542  0.25153  0.14344  1.0000
  H   H22       1.0  0.06366999999999996  0.67263  0.4066  1.0000
  C   C1        1.0  0.74877  0.9137199999999998  0.7616000000000003  1.0000
  C   C2        1.0  0.8834  0.2677699999999999  0.7751100000000002  1.0000
  C   C3        1.0  0.70336  0.93198  0.68114  1.0000
  C   C4        1.0  0.3301  0.3282599999999999  0.76456  1.0000
  C   C5        1.0  0.92109  0.3271899999999999  0.6923900000000002  1.0000
  C   C6        1.0  0.59952  0.08919999999999996  0.71138  1.0000
  C   C7        1.0  0.3167  0.85154  0.78427  1.0000
  C   C8        1.0  0.041209999999999976  0.14515999999999996  0.7260500000000002  1.0000
  C   C9        1.0  0.8687  0.44768000000000013  0.63587  1.0000
  C   C10       1.0  0.76778  0.30078999999999995  0.83696  1.0000
  C   C11       1.0  0.8462600000000001  0.8137  0.82818  1.0000
  C   C12       1.0  0.39557000000000003  0.40273000000000003  0.62799  1.0000
  C   C13       1.0  0.13728000000000004  0.037069999999999985  0.72142  1.0000
  C   C14       1.0  0.5030799999999999  0.20226000000000002  0.70441  1.0000
  C   C15       1.0  0.22574999999999998  0.9025500000000001  0.6518  1.0000
  C   C16       1.0  0.49069999999999986  0.2967099999999998  0.6299700000000003  1.0000
  C   C17       1.0  0.23045000000000002  0.9553000000000001  0.78975  1.0000
  C   C18       1.0  0.13504999999999995  0.009200000000000038  0.6509  1.0000
  C   C19       1.0  0.41989  0.21853000000000003  0.77342  1.0000
  C   C20       1.0  0.72102  0.86287  0.6276900000000002  1.0000
  C   C21       1.0  0.24843999999999994  0.6759200000000001  0.23847  1.0000
  C   C22       1.0  0.38256  0.043539999999999975  0.22519000000000006  1.0000
  C   C23       1.0  0.20377  0.61272  0.31906000000000007  1.0000
  C   C24       1.0  0.8294199999999998  0.09373000000000001  0.23506  1.0000
  C   C25       1.0  0.42124000000000006  0.018380000000000004  0.30805  1.0000
  C   C26       1.0  0.10042000000000001  0.80081  0.28849  1.0000
  C   C27       1.0  0.8160799999999998  0.63622  0.216  1.0000
  C   C28       1.0  0.54205  0.87131  0.27392  1.0000
  C   C29       1.0  0.36871  0.08134000000000001  0.36485  1.0000
  C   C30       1.0  0.2668699999999999  0.13897  0.16325  1.0000
  C   C31       1.0  0.34527  0.6426  0.17226  1.0000
  C   C32       1.0  0.89603  0.03019999999999991  0.3714600000000001  1.0000
  C   C33       1.0  0.6379299999999998  0.75859  0.27846000000000004  1.0000
  C   C34       1.0  0.0037999999999999475  0.9068600000000001  0.29554  1.0000
  C   C35       1.0  0.72603  0.55321  0.34881  1.0000
  C   C36       1.0  0.9915699999999996  0.9260999999999999  0.36976  1.0000
  C   C37       1.0  0.73033  0.7458  0.2102  1.0000
  C   C38       1.0  0.6359699999999997  0.65922  0.34941  1.0000
  C   C39       1.0  0.91956  0.99288  0.22652000000000005  1.0000
  C   C40       1.0  0.22172000000000003  0.48946  0.37265  1.0000
  N   N1        1.0  0.96066  0.15355  0.79475  1.0000
  N   N2        1.0  0.018169999999999974  0.24841  0.66279  1.0000
  N   N3        1.0  0.3144000000000002  0.41981999999999997  0.69384  1.0000
  N   N4        1.0  0.31757999999999975  0.82359  0.71695  1.0000
  N   N5        1.0  0.6126700000000002  0.04346999999999997  0.65143  1.0000
  N   N6        1.0  0.6837  0.011909999999999955  0.77827  1.0000
  N   N7        1.0  0.46038  0.9496  0.20541  1.0000
  N   N8        1.0  0.51951  0.90966  0.33731  1.0000
  N   N9        1.0  0.81428  0.11389  0.30543  1.0000
  N   N10       1.0  0.81721  0.53995  0.28373  1.0000
  N   N11       1.0  0.11388000000000001  0.69416  0.34867  1.0000
  N   N12       1.0  0.18377  0.79134  0.22148  1.0000
  Cl  Cl1       1.0  0.3389199999999997  0.7033600000000001  0.53269  1.0000
  Cl  Cl2       1.0  0.0028499999999999975  0.94077  0.03441000000000002  1.0000
  Cl  Cl3       1.0  0.8397199999999997  0.23585999999999996  0.46766  1.0000
  Cl  Cl4       1.0  0.5025699999999997  0.9749900000000002  0.96569  1.0000
  O   O1        1.0  0.8659199999999999  0.7122  0.82137  1.0000
  O   O2        1.0  0.7244599999999999  0.41173000000000004  0.82593  1.0000
  O   O3        1.0  0.71981  0.22130999999999987  0.8986400000000002  1.0000
  O   O4        1.0  0.8723300000000002  0.4686299999999999  0.5601700000000002  1.0000
  O   O5        1.0  0.025829999999999992  0.46125  0.8720600000000001  1.0000
  O   O6        1.0  0.6703899999999999  0.9196699999999998  0.5539800000000003  1.0000
  O   O7        1.0  0.8222599999999999  0.5279399999999999  0.66578  1.0000
  O   O8        1.0  0.7784499999999999  0.7547799999999999  0.6558100000000002  1.0000
  O   O9        1.0  0.9002099999999997  0.8305500000000002  0.88814  1.0000
  O   O10       1.0  0.36466  0.53375  0.17938000000000007  1.0000
  O   O11       1.0  0.22230999999999995  0.23850000000000002  0.17413000000000006  1.0000
  O   O12       1.0  0.21971999999999997  0.12229999999999998  0.10151000000000003  1.0000
  O   O13       1.0  0.37403999999999993  0.025169999999999984  0.44043  1.0000
  O   O14       1.0  0.52317  0.33396  0.12798000000000007  1.0000
  O   O15       1.0  0.17151999999999998  0.4718  0.44618  1.0000
  O   O16       1.0  0.32007999999999986  0.19204999999999997  0.33457  1.0000
  O   O17       1.0  0.2783299999999999  0.40942000000000006  0.34461  1.0000
  O   O18       1.0  0.39943999999999985  0.72013  0.11172000000000003  1.0000
