data_image0
_chemical_formula_structural       Cd4H44C36N8Cl4O12
_chemical_formula_sum              "Cd4 H44 C36 N8 Cl4 O12"
_cell_length_a       5.76879
_cell_length_b       15.436089999999998
_cell_length_c       16.39891
_cell_angle_alpha    90.0
_cell_angle_beta     90.0
_cell_angle_gamma    89.97822

_symmetry_space_group_name_H-M    'P 1'
_symmetry_Int_Tables_number       1

loop_
  _symmetry_equiv_pos_as_xyz
  'x,y,z'

loop_
  _atom_site_type_symbol
  _atom_site_label
  _atom_site_symmetry_multiplicity
  _atom_site_fract_x
  _atom_site_fract_y
  _atom_site_fract_z
  _atom_site_occupancy
  Cd  Cd1       1.0  0.37131  0.5870700000000002  0.9628599999999998  1.0000
  Cd  Cd2       1.0  0.12869999999999998  0.41293000000000013  0.46286  1.0000
  Cd  Cd3       1.0  0.62875  0.08832  0.5374899999999999  1.0000
  Cd  Cd4       1.0  0.87126  0.9116800000000002  0.03749  1.0000
  H   H1        1.0  0.44657999999999987  0.37992  0.24373  1.0000
  H   H2        1.0  0.6462299999999999  0.36786000000000013  0.37795  1.0000
  H   H3        1.0  0.19751  0.51849  0.30092  1.0000
  H   H4        1.0  0.02238  0.5361  0.16063  1.0000
  H   H5        1.0  0.79999  0.55401  0.04033999999999999  1.0000
  H   H6        1.0  0.4062699999999999  0.4676400000000001  0.11964  1.0000
  H   H7        1.0  0.6458  0.4239700000000001  0.0678  1.0000
  H   H8        1.0  0.74944  0.63786  0.17064  1.0000
  H   H9        1.0  0.37893  0.71223  0.18747  1.0000
  H   H10       1.0  0.34395  0.59868  0.19741  1.0000
  H   H11       1.0  0.19623  0.70851  0.06526  1.0000
  H   H12       1.0  0.05342  0.62008  0.74373  1.0000
  H   H13       1.0  0.85378  0.6321400000000003  0.87795  1.0000
  H   H14       1.0  0.3025  0.48151  0.80092  1.0000
  H   H15       1.0  0.47763  0.4639  0.66063  1.0000
  H   H16       1.0  0.70001  0.4459900000000001  0.5403399999999999  1.0000
  H   H17       1.0  0.09372999999999998  0.53236  0.61964  1.0000
  H   H18       1.0  0.85421  0.57603  0.5678  1.0000
  H   H19       1.0  0.7505699999999998  0.36214  0.67064  1.0000
  H   H20       1.0  0.12107  0.28777  0.6874699999999998  1.0000
  H   H21       1.0  0.15606  0.40132  0.69741  1.0000
  H   H22       1.0  0.30376999999999993  0.29149  0.56526  1.0000
  H   H23       1.0  0.55336  0.8802200000000002  0.25657  1.0000
  H   H24       1.0  0.35321999999999987  0.8673  0.12263000000000002  1.0000
  H   H25       1.0  0.8015299999999999  0.01821  0.19913999999999996  1.0000
  H   H26       1.0  0.97706  0.03659000000000001  0.33927  1.0000
  H   H27       1.0  0.19921  0.05476  0.45997  1.0000
  H   H28       1.0  0.5935499999999999  0.96875  0.38058  1.0000
  H   H29       1.0  0.35424999999999995  0.9250400000000002  0.43244  1.0000
  H   H30       1.0  0.24891999999999995  0.13863  0.32933  1.0000
  H   H31       1.0  0.6209  0.21299  0.31301  1.0000
  H   H32       1.0  0.6534699999999999  0.09925  0.30276  1.0000
  H   H33       1.0  0.8039899999999999  0.20839  0.43447999999999987  1.0000
  H   H34       1.0  0.94665  0.11978  0.75657  1.0000
  H   H35       1.0  0.14677999999999997  0.13270000000000007  0.62263  1.0000
  H   H36       1.0  0.69848  0.98179  0.69914  1.0000
  H   H37       1.0  0.5229499999999999  0.96341  0.83927  1.0000
  H   H38       1.0  0.30078999999999995  0.9452400000000002  0.95997  1.0000
  H   H39       1.0  0.90646  0.03125  0.88058  1.0000
  H   H40       1.0  0.14574999999999996  0.07496000000000003  0.9324399999999998  1.0000
  H   H41       1.0  0.25108  0.8613700000000002  0.82933  1.0000
  H   H42       1.0  0.8791099999999997  0.78701  0.81301  1.0000
  H   H43       1.0  0.8465299999999999  0.90075  0.80276  1.0000
  H   H44       1.0  0.6960099999999998  0.79161  0.93448  1.0000
  C   C1        1.0  0.61231  0.41213  0.25313  1.0000
  C   C2        1.0  0.7169899999999998  0.46131  0.19139  1.0000
  C   C3        1.0  0.7240899999999998  0.40406  0.32813  1.0000
  C   C4        1.0  0.03432  0.48770000000000013  0.28401  1.0000
  C   C5        1.0  0.9340499999999999  0.4981000000000001  0.20728999999999995  1.0000
  C   C6        1.0  0.59451  0.4751200000000001  0.11099  1.0000
  C   C7        1.0  0.62756  0.6379  0.11923  1.0000
  C   C8        1.0  0.38372  0.65066  0.15393  1.0000
  C   C9        1.0  0.6849799999999999  0.71702  0.06566  1.0000
  C   C10       1.0  0.8876899999999999  0.58787  0.7531299999999999  1.0000
  C   C11       1.0  0.78302  0.53869  0.69139  1.0000
  C   C12       1.0  0.77592  0.59594  0.82813  1.0000
  C   C13       1.0  0.4656799999999999  0.5123  0.78401  1.0000
  C   C14       1.0  0.56596  0.5019  0.70729  1.0000
  C   C15       1.0  0.9054999999999999  0.5248800000000002  0.61099  1.0000
  C   C16       1.0  0.87245  0.3621000000000001  0.61923  1.0000
  C   C17       1.0  0.11627999999999997  0.34934  0.65393  1.0000
  C   C18       1.0  0.8150199999999999  0.28298  0.56566  1.0000
  C   C19       1.0  0.38752  0.91241  0.24717  1.0000
  C   C20       1.0  0.28292  0.96191  0.30874  1.0000
  C   C21       1.0  0.2752899999999999  0.9037500000000003  0.17229  1.0000
  C   C22       1.0  0.9648399999999998  0.9875200000000002  0.21613  1.0000
  C   C23       1.0  0.06555  0.9984700000000001  0.29272  1.0000
  C   C24       1.0  0.40520999999999996  0.9761100000000003  0.38915  1.0000
  C   C25       1.0  0.3705  0.13874000000000003  0.38085  1.0000
  C   C26       1.0  0.6145  0.15127  0.34627  1.0000
  C   C27       1.0  0.3124799999999999  0.21794  0.43423  1.0000
  C   C28       1.0  0.11248  0.08759  0.7471699999999998  1.0000
  C   C29       1.0  0.21708  0.03809  0.8087399999999998  1.0000
  C   C30       1.0  0.22471  0.09625  0.67229  1.0000
  C   C31       1.0  0.53517  0.012480000000000003  0.7161299999999998  1.0000
  C   C32       1.0  0.4344499999999999  0.00153  0.79272  1.0000
  C   C33       1.0  0.09478999999999999  0.02389  0.88915  1.0000
  C   C34       1.0  0.1295  0.8612600000000002  0.88085  1.0000
  C   C35       1.0  0.8855099999999999  0.84873  0.84627  1.0000
  C   C36       1.0  0.18751999999999994  0.7820600000000001  0.93423  1.0000
  N   N1        1.0  0.9311199999999998  0.44096000000000013  0.34343  1.0000
  N   N2        1.0  0.6417599999999999  0.5582200000000002  0.06963  1.0000
  N   N3        1.0  0.5688899999999999  0.5590400000000002  0.84343  1.0000
  N   N4        1.0  0.85825  0.44178  0.56963  1.0000
  N   N5        1.0  0.06784  0.9403500000000002  0.15692999999999993  1.0000
  N   N6        1.0  0.3570699999999999  0.05915  0.43048  1.0000
  N   N7        1.0  0.43215999999999993  0.05965  0.65693  1.0000
  N   N8        1.0  0.14292999999999997  0.9408500000000002  0.93048  1.0000
  Cl  Cl1       1.0  0.06877  0.47297  0.9637  1.0000
  Cl  Cl2       1.0  0.43123999999999996  0.52703  0.4637  1.0000
  Cl  Cl3       1.0  0.93014  0.97358  0.53614  1.0000
  Cl  Cl4       1.0  0.56987  0.02642  0.03614  1.0000
  O   O1        1.0  0.6825399999999999  0.7057000000000002  0.9886399999999999  1.0000
  O   O2        1.0  0.21047999999999994  0.6489000000000003  0.09117  1.0000
  O   O3        1.0  0.71963  0.7876  0.10311  1.0000
  O   O4        1.0  0.8174599999999999  0.2943  0.48863999999999996  1.0000
  O   O5        1.0  0.28952  0.3511  0.59117  1.0000
  O   O6        1.0  0.7803799999999999  0.21240000000000006  0.60311  1.0000
  O   O7        1.0  0.31861  0.20734  0.5113  1.0000
  O   O8        1.0  0.78736  0.1487  0.40913  1.0000
  O   O9        1.0  0.27285  0.28799  0.39656999999999987  1.0000
  O   O10       1.0  0.18139999999999995  0.7926600000000003  0.0113  1.0000
  O   O11       1.0  0.71264  0.8513000000000002  0.90913  1.0000
  O   O12       1.0  0.22716  0.7120100000000003  0.89657  1.0000
