data_image0
_chemical_formula_structural       Zn4H44C36N8O8
_chemical_formula_sum              "Zn4 H44 C36 N8 O8"
_cell_length_a       9.68239
_cell_length_b       13.104680000000002
_cell_length_c       13.02307
_cell_angle_alpha    90.12381999999998
_cell_angle_beta     89.99821
_cell_angle_gamma    90.00091999999998

_symmetry_space_group_name_H-M    'P 1'
_symmetry_Int_Tables_number       1

loop_
  _symmetry_equiv_pos_as_xyz
  'x,y,z'

loop_
  _atom_site_type_symbol
  _atom_site_label
  _atom_site_symmetry_multiplicity
  _atom_site_fract_x
  _atom_site_fract_y
  _atom_site_fract_z
  _atom_site_occupancy
  Zn  Zn1       1.0  0.032060000000000005  0.91622  0.53496  1.0000
  Zn  Zn2       1.0  0.53215  0.08358  0.46492  1.0000
  Zn  Zn3       1.0  0.28633  0.46167  0.91928  1.0000
  Zn  Zn4       1.0  0.7863  0.53827  0.08070999999999999  1.0000
  H   H1        1.0  0.14143  0.73503  0.6554299999999998  1.0000
  H   H2        1.0  0.06299  0.64179  0.80916  1.0000
  H   H3        1.0  0.69334  0.82988  0.8095399999999999  1.0000
  H   H4        1.0  0.78217  0.91398  0.65339  1.0000
  H   H5        1.0  0.7209  0.70881  0.94366  1.0000
  H   H6        1.0  0.8932100000000001  0.70475  0.98707  1.0000
  H   H7        1.0  0.7002  0.57883  0.7932  1.0000
  H   H8        1.0  0.86013  0.43594  0.75812  1.0000
  H   H9        1.0  0.68613  0.39120999999999995  0.75783  1.0000
  H   H10       1.0  0.7953  0.36593  0.86512  1.0000
  H   H11       1.0  0.92109  0.54039  0.91375  1.0000
  H   H12       1.0  0.64143  0.26497  0.3446  1.0000
  H   H13       1.0  0.56298  0.35821  0.19088  1.0000
  H   H14       1.0  0.19337000000000001  0.17007  0.19046  1.0000
  H   H15       1.0  0.28215000000000007  0.08601  0.34663  1.0000
  H   H16       1.0  0.22086000000000003  0.2912  0.0564  1.0000
  H   H17       1.0  0.39311  0.29522  0.01291  1.0000
  H   H18       1.0  0.20017  0.4211899999999999  0.20679  1.0000
  H   H19       1.0  0.36017  0.56406  0.2419  1.0000
  H   H20       1.0  0.18617  0.60879  0.24218  1.0000
  H   H21       1.0  0.29537  0.63409  0.13491  1.0000
  H   H22       1.0  0.42116000000000003  0.4595699999999999  0.08626  1.0000
  H   H23       1.0  0.39617  0.34038  0.7398800000000001  1.0000
  H   H24       1.0  0.3248500000000001  0.18393  0.6502000000000001  1.0000
  H   H25       1.0  0.93858  0.19467  0.8189800000000002  1.0000
  H   H26       1.0  0.02266  0.35052  0.90431  1.0000
  H   H27       1.0  0.9844900000000001  0.04718  0.71562  1.0000
  H   H28       1.0  0.16026  0.01278  0.70182  1.0000
  H   H29       1.0  0.95226  0.20055  0.57989  1.0000
  H   H30       1.0  0.11882  0.23696  0.44129000000000007  1.0000
  H   H31       1.0  0.9463900000000001  0.24236  0.39347  1.0000
  H   H32       1.0  0.052969999999999996  0.13483  0.36496  1.0000
  H   H33       1.0  0.17047  0.07592  0.53778  1.0000
  H   H34       1.0  0.8962100000000001  0.65962  0.26007  1.0000
  H   H35       1.0  0.82485  0.81603  0.34979  1.0000
  H   H36       1.0  0.4386  0.8053199999999999  0.18098  1.0000
  H   H37       1.0  0.5227  0.64948  0.09565  1.0000
  H   H38       1.0  0.48450000000000004  0.95277  0.28439  1.0000
  H   H39       1.0  0.66028  0.9871699999999999  0.29816  1.0000
  H   H40       1.0  0.45226000000000005  0.7994299999999999  0.42010999999999993  1.0000
  H   H41       1.0  0.6188500000000001  0.763  0.55872  1.0000
  H   H42       1.0  0.4464  0.75763  0.60654  1.0000
  H   H43       1.0  0.55302  0.86514  0.63504  1.0000
  H   H44       1.0  0.67055  0.92403  0.46219  1.0000
  C   C1        1.0  0.04228  0.75201  0.69089  1.0000
  C   C2        1.0  0.99703  0.70083  0.7763899999999999  1.0000
  C   C3        1.0  0.8685100000000001  0.7260499999999999  0.8239  1.0000
  C   C4        1.0  0.7916100000000001  0.80551  0.77673  1.0000
  C   C5        1.0  0.8402900000000001  0.8537099999999997  0.69077  1.0000
  C   C6        1.0  0.82491  0.68197  0.9232599999999999  1.0000
  C   C7        1.0  0.72001  0.52366  0.85498  1.0000
  C   C8        1.0  0.76855  0.42322  0.80651  1.0000
  C   C9        1.0  0.58608  0.50388  0.9153300000000001  1.0000
  C   C10       1.0  0.54229  0.24798  0.30913000000000007  1.0000
  C   C11       1.0  0.49703  0.29916  0.22363  1.0000
  C   C12       1.0  0.36851  0.27395  0.17613  1.0000
  C   C13       1.0  0.29164  0.19445  0.22327  1.0000
  C   C14       1.0  0.34029  0.14625  0.30924  1.0000
  C   C15       1.0  0.32488  0.3180499999999999  0.07678  1.0000
  C   C16       1.0  0.22006000000000003  0.47635  0.14503  1.0000
  C   C17       1.0  0.26861  0.57678  0.1935  1.0000
  C   C18       1.0  0.08621  0.49614  0.08462  1.0000
  C   C19       1.0  0.29621  0.30575  0.75583  1.0000
  C   C20       1.0  0.2548  0.21862  0.70589  1.0000
  C   C21       1.0  0.12411  0.17261  0.7271800000000002  1.0000
  C   C22       1.0  0.04043  0.22457  0.79925  1.0000
  C   C23       1.0  0.08647  0.31134999999999996  0.84811  1.0000
  C   C24       1.0  0.08384  0.07188  0.68352  1.0000
  C   C25       1.0  0.97262  0.14038  0.52293  1.0000
  C   C26       1.0  0.026280000000000005  0.19121  0.4247  1.0000
  C   C27       1.0  0.8362699999999998  0.08576999999999999  0.49991  1.0000
  C   C28       1.0  0.79622  0.69426  0.24413  1.0000
  C   C29       1.0  0.75479  0.7813299999999999  0.29411  1.0000
  C   C30       1.0  0.62412  0.8273299999999998  0.27283  1.0000
  C   C31       1.0  0.54045  0.77541  0.20072  1.0000
  C   C32       1.0  0.58648  0.68864  0.15186  1.0000
  C   C33       1.0  0.58386  0.9280699999999998  0.31649000000000005  1.0000
  C   C34       1.0  0.47264  0.85959  0.47709  1.0000
  C   C35       1.0  0.52632  0.80876  0.57529  1.0000
  C   C36       1.0  0.33632  0.91426  0.50014  1.0000
  N   N1        1.0  0.9661  0.8297  0.64506  1.0000
  N   N2        1.0  0.82279  0.56711  0.92657  1.0000
  N   N3        1.0  0.46604  0.17033999999999996  0.3549800000000001  1.0000
  N   N4        1.0  0.32285  0.4328599999999999  0.07349  1.0000
  N   N5        1.0  0.21623000000000003  0.35432  0.82964  1.0000
  N   N6        1.0  0.07231  0.06708  0.56717  1.0000
  N   N7        1.0  0.7162  0.6457  0.17033999999999996  1.0000
  N   N8        1.0  0.57238  0.93284  0.43282  1.0000
  O   O1        1.0  0.59683  0.48175999999999997  0.01054  1.0000
  O   O2        1.0  0.47242  0.5081  0.86479  1.0000
  O   O3        1.0  0.09691  0.51822  0.98941  1.0000
  O   O4        1.0  0.97253  0.49197  0.13519  1.0000
  O   O5        1.0  0.8392900000000001  0.99027  0.48038999999999993  1.0000
  O   O6        1.0  0.72745  0.14095  0.49953  1.0000
  O   O7        1.0  0.33941  0.00979  0.5196  1.0000
  O   O8        1.0  0.2275  0.8590699999999999  0.50053  1.0000
