data_image0
_chemical_formula_structural       Ca2H52C36N8O16
_chemical_formula_sum              "Ca2 H52 C36 N8 O16"
_cell_length_a       7.77491
_cell_length_b       11.80481
_cell_length_c       13.581529999999999
_cell_angle_alpha    89.99997
_cell_angle_beta     90.00047
_cell_angle_gamma    93.7193

_symmetry_space_group_name_H-M    'P 1'
_symmetry_Int_Tables_number       1

loop_
  _symmetry_equiv_pos_as_xyz
  'x,y,z'

loop_
  _atom_site_type_symbol
  _atom_site_label
  _atom_site_symmetry_multiplicity
  _atom_site_fract_x
  _atom_site_fract_y
  _atom_site_fract_z
  _atom_site_occupancy
  Ca  Ca1       1.0  0.75  0.5  0.44991  1.0000
  Ca  Ca2       1.0  0.24999999999999997  0.5  0.55009  1.0000
  H   H1        1.0  0.51946  0.34263  0.25207  1.0000
  H   H2        1.0  0.4507899999999999  0.21144  0.30683  1.0000
  H   H3        1.0  0.34489  0.4178700000000001  0.11575  1.0000
  H   H4        1.0  0.019489999999999987  0.36533  0.03891  1.0000
  H   H5        1.0  0.08309  0.17797  0.30154999999999993  1.0000
  H   H6        1.0  0.7657999999999998  0.21916  0.08429  1.0000
  H   H7        1.0  0.7882799999999998  0.1323  0.18956  1.0000
  H   H8        1.0  0.030109999999999994  0.98762  0.1821  1.0000
  H   H9        1.0  0.16256  0.8474600000000001  0.0748  1.0000
  H   H10       1.0  0.8872599999999998  0.36323  0.2641  1.0000
  H   H11       1.0  0.026389999999999997  0.40403  0.33902  1.0000
  H   H12       1.0  0.7883299999999998  0.16542  0.4601399999999999  1.0000
  H   H13       1.0  0.9466399999999998  0.25049  0.46542  1.0000
  H   H14       1.0  0.98053  0.65738  0.25207  1.0000
  H   H15       1.0  0.04921000000000001  0.7885700000000002  0.30683  1.0000
  H   H16       1.0  0.15511  0.58214  0.11575  1.0000
  H   H17       1.0  0.4805099999999999  0.63467  0.03891  1.0000
  H   H18       1.0  0.41691  0.82204  0.30154999999999993  1.0000
  H   H19       1.0  0.7341999999999999  0.78084  0.08429  1.0000
  H   H20       1.0  0.7117099999999997  0.86771  0.18956  1.0000
  H   H21       1.0  0.4698799999999999  0.01239  0.1821  1.0000
  H   H22       1.0  0.33744  0.15254  0.0748  1.0000
  H   H23       1.0  0.6127199999999998  0.63677  0.26409  1.0000
  H   H24       1.0  0.4736  0.59598  0.33901  1.0000
  H   H25       1.0  0.7116499999999998  0.83458  0.46012  1.0000
  H   H26       1.0  0.5533399999999998  0.74951  0.46541  1.0000
  H   H27       1.0  0.48054  0.65738  0.74793  1.0000
  H   H28       1.0  0.5492099999999998  0.7885700000000002  0.69317  1.0000
  H   H29       1.0  0.6551199999999998  0.58214  0.8842499999999999  1.0000
  H   H30       1.0  0.9805099999999998  0.63467  0.9610899999999999  1.0000
  H   H31       1.0  0.9169099999999998  0.82204  0.69845  1.0000
  H   H32       1.0  0.23420999999999995  0.78084  0.91571  1.0000
  H   H33       1.0  0.21171999999999994  0.86771  0.81044  1.0000
  H   H34       1.0  0.96989  0.01239  0.8179  1.0000
  H   H35       1.0  0.83744  0.15254  0.9251999999999999  1.0000
  H   H36       1.0  0.11274  0.63678  0.7359  1.0000
  H   H37       1.0  0.97361  0.59598  0.66099  1.0000
  H   H38       1.0  0.21167  0.83458  0.53986  1.0000
  H   H39       1.0  0.05335999999999999  0.74951  0.53458  1.0000
  H   H40       1.0  0.019469999999999987  0.34262  0.74794  1.0000
  H   H41       1.0  0.95079  0.21144  0.69317  1.0000
  H   H42       1.0  0.84488  0.41786  0.8842499999999999  1.0000
  H   H43       1.0  0.51949  0.3653400000000001  0.9610899999999999  1.0000
  H   H44       1.0  0.5830899999999998  0.17797  0.69845  1.0000
  H   H45       1.0  0.2658  0.21916  0.91571  1.0000
  H   H46       1.0  0.2882899999999999  0.1323  0.81044  1.0000
  H   H47       1.0  0.53012  0.98762  0.8179  1.0000
  H   H48       1.0  0.6625599999999998  0.8474600000000001  0.9251999999999999  1.0000
  H   H49       1.0  0.3872799999999999  0.36323  0.73591  1.0000
  H   H50       1.0  0.5263999999999998  0.40403  0.66099  1.0000
  H   H51       1.0  0.28835  0.16542  0.53988  1.0000
  H   H52       1.0  0.4466599999999999  0.2505  0.53459  1.0000
  C   C1        1.0  0.3655499999999999  0.35808  0.38142999999999994  1.0000
  C   C2        1.0  0.4088099999999999  0.29585  0.28658  1.0000
  C   C3        1.0  0.24486  0.35512000000000005  0.13807  1.0000
  C   C4        1.0  0.08307999999999997  0.33137  0.10211  1.0000
  C   C5        1.0  0.12138999999999997  0.21079000000000006  0.22962  1.0000
  C   C6        1.0  0.8558299999999998  0.16856000000000002  0.12469  1.0000
  C   C7        1.0  0.9235099999999998  0.0792  0.06050999999999999  1.0000
  C   C8        1.0  0.01563000000000002  0.9922700000000001  0.10254999999999997  1.0000
  C   C9        1.0  0.08925  0.9132  0.04222  1.0000
  C   C10       1.0  0.13444999999999993  0.64192  0.38142999999999994  1.0000
  C   C11       1.0  0.09119  0.70416  0.28657  1.0000
  C   C12       1.0  0.25513999999999987  0.64488  0.13807  1.0000
  C   C13       1.0  0.41691  0.66863  0.10211  1.0000
  C   C14       1.0  0.37860999999999995  0.78921  0.22961  1.0000
  C   C15       1.0  0.64417  0.8314500000000002  0.12469999999999998  1.0000
  C   C16       1.0  0.5764799999999998  0.9208  0.06050999999999999  1.0000
  C   C17       1.0  0.4843599999999999  0.00774  0.10254999999999997  1.0000
  C   C18       1.0  0.4107499999999999  0.08680000000000002  0.04222  1.0000
  C   C19       1.0  0.6344499999999997  0.64192  0.6185699999999998  1.0000
  C   C20       1.0  0.5911899999999998  0.70416  0.71342  1.0000
  C   C21       1.0  0.7551299999999997  0.64488  0.86193  1.0000
  C   C22       1.0  0.91692  0.66864  0.89789  1.0000
  C   C23       1.0  0.8786099999999998  0.78921  0.7703899999999999  1.0000
  C   C24       1.0  0.14417  0.8314500000000002  0.87531  1.0000
  C   C25       1.0  0.07648999999999997  0.9208  0.93949  1.0000
  C   C26       1.0  0.98437  0.00774  0.89745  1.0000
  C   C27       1.0  0.9107499999999997  0.08680000000000002  0.9577799999999997  1.0000
  C   C28       1.0  0.86555  0.35808  0.6185699999999998  1.0000
  C   C29       1.0  0.90881  0.29585  0.71343  1.0000
  C   C30       1.0  0.74487  0.35512000000000005  0.86193  1.0000
  C   C31       1.0  0.5830799999999998  0.33137  0.89789  1.0000
  C   C32       1.0  0.62139  0.21079000000000006  0.7703899999999999  1.0000
  C   C33       1.0  0.35583  0.16856000000000002  0.87531  1.0000
  C   C34       1.0  0.4235099999999999  0.07921000000000002  0.93949  1.0000
  C   C35       1.0  0.51564  0.9922700000000001  0.89745  1.0000
  C   C36       1.0  0.58925  0.91321  0.9577799999999997  1.0000
  N   N1        1.0  0.26888  0.28429000000000004  0.21721  1.0000
  N   N2        1.0  0.9965599999999999  0.24971  0.16378  1.0000
  N   N3        1.0  0.23111999999999996  0.71571  0.21721  1.0000
  N   N4        1.0  0.50343  0.75029  0.16378  1.0000
  N   N5        1.0  0.73112  0.71571  0.7827899999999998  1.0000
  N   N6        1.0  0.003429999999999992  0.75029  0.83622  1.0000
  N   N7        1.0  0.7688799999999998  0.28429000000000004  0.7827899999999998  1.0000
  N   N8        1.0  0.4965699999999999  0.24972  0.83622  1.0000
  O   O1        1.0  0.21253999999999995  0.38172  0.40028  1.0000
  O   O2        1.0  0.48964  0.38281  0.44183  1.0000
  O   O3        1.0  0.90977  0.4215000000000001  0.31483  1.0000
  O   O4        1.0  0.9073599999999998  0.17623000000000003  0.43875  1.0000
  O   O5        1.0  0.2874699999999999  0.61829  0.40028  1.0000
  O   O6        1.0  0.010359999999999998  0.6171900000000001  0.44183  1.0000
  O   O7        1.0  0.59022  0.57851  0.31483  1.0000
  O   O8        1.0  0.59262  0.82377  0.43874  1.0000
  O   O9        1.0  0.78746  0.61829  0.59972  1.0000
  O   O10       1.0  0.5103599999999998  0.6171900000000001  0.55817  1.0000
  O   O11       1.0  0.09022999999999998  0.57851  0.68517  1.0000
  O   O12       1.0  0.09264000000000001  0.82377  0.56125  1.0000
  O   O13       1.0  0.71253  0.38172  0.59972  1.0000
  O   O14       1.0  0.9896399999999997  0.38281  0.55817  1.0000
  O   O15       1.0  0.40978  0.42149  0.68517  1.0000
  O   O16       1.0  0.40738  0.17623000000000003  0.56126  1.0000
