data_image0
_chemical_formula_structural       Cd3H42C54N42
_chemical_formula_sum              "Cd3 H42 C54 N42"
_cell_length_a       13.50302
_cell_length_b       13.50307
_cell_length_c       13.50314
_cell_angle_alpha    96.66351
_cell_angle_beta     96.65046000000001
_cell_angle_gamma    96.65048999999999

_symmetry_space_group_name_H-M    'P 1'
_symmetry_Int_Tables_number       1

loop_
  _symmetry_equiv_pos_as_xyz
  'x,y,z'

loop_
  _atom_site_type_symbol
  _atom_site_label
  _atom_site_symmetry_multiplicity
  _atom_site_fract_x
  _atom_site_fract_y
  _atom_site_fract_z
  _atom_site_occupancy
  Cd  Cd1       1.0  0.4999999999999998  0.4999999999999999  0.5  1.0000
  Cd  Cd2       1.0  0.3014  0.3014  0.30141  1.0000
  Cd  Cd3       1.0  0.6986  0.6985999999999998  0.69859  1.0000
  H   H1        1.0  0.41221  0.37014  0.70873  1.0000
  H   H2        1.0  0.19218  0.20032  0.48442  1.0000
  H   H3        1.0  0.17537  0.08351  0.5875  1.0000
  H   H4        1.0  0.12109999999999999  0.9857699999999998  0.72403  1.0000
  H   H5        1.0  0.17676  0.05925  0.90457  1.0000
  H   H6        1.0  0.19901000000000005  0.15789  0.05606  1.0000
  H   H7        1.0  0.40231000000000006  0.3598699999999999  0.93616  1.0000
  H   H8        1.0  0.70873  0.41218  0.37012  1.0000
  H   H9        1.0  0.4844500000000001  0.19215  0.20026  1.0000
  H   H10       1.0  0.58755  0.17533999999999997  0.08347999999999998  1.0000
  H   H11       1.0  0.72409  0.12107999999999997  0.98572  1.0000
  H   H12       1.0  0.9046200000000002  0.17674  0.059219999999999995  1.0000
  H   H13       1.0  0.056089999999999994  0.19899999999999995  0.15789999999999998  1.0000
  H   H14       1.0  0.9361400000000001  0.4023199999999999  0.35987  1.0000
  H   H15       1.0  0.37013  0.70875  0.41221  1.0000
  H   H16       1.0  0.20029000000000002  0.48442  0.1922  1.0000
  H   H17       1.0  0.08352000000000002  0.58752  0.17537  1.0000
  H   H18       1.0  0.9857700000000003  0.72405  0.1211  1.0000
  H   H19       1.0  0.05925  0.90459  0.17676  1.0000
  H   H20       1.0  0.15791000000000005  0.05606  0.199  1.0000
  H   H21       1.0  0.35988  0.9361699999999998  0.4023  1.0000
  H   H22       1.0  0.5877900000000001  0.62986  0.29126  1.0000
  H   H23       1.0  0.80783  0.79968  0.51557  1.0000
  H   H24       1.0  0.8246300000000002  0.91649  0.41249  1.0000
  H   H25       1.0  0.8789  0.01424  0.27597  1.0000
  H   H26       1.0  0.82325  0.94076  0.09543  1.0000
  H   H27       1.0  0.8009900000000001  0.8421099999999998  0.94393  1.0000
  H   H28       1.0  0.59769  0.64014  0.06383  1.0000
  H   H29       1.0  0.29127  0.58783  0.62988  1.0000
  H   H30       1.0  0.5155499999999998  0.8078599999999999  0.79974  1.0000
  H   H31       1.0  0.41245999999999994  0.8246599999999997  0.91651  1.0000
  H   H32       1.0  0.27591  0.87893  0.01428  1.0000
  H   H33       1.0  0.09539  0.82326  0.94078  1.0000
  H   H34       1.0  0.9439100000000001  0.8010099999999998  0.8420999999999998  1.0000
  H   H35       1.0  0.06385999999999999  0.5976799999999999  0.64013  1.0000
  H   H36       1.0  0.62988  0.29125  0.58779  1.0000
  H   H37       1.0  0.7997100000000003  0.51558  0.8078  1.0000
  H   H38       1.0  0.9164900000000002  0.41249  0.82463  1.0000
  H   H39       1.0  0.014240000000000004  0.27595  0.87889  1.0000
  H   H40       1.0  0.9407599999999999  0.09540999999999998  0.82324  1.0000
  H   H41       1.0  0.8421  0.9439499999999997  0.801  1.0000
  H   H42       1.0  0.64013  0.06383  0.59769  1.0000
  C   C1        1.0  0.36777000000000004  0.34317  0.6369  1.0000
  C   C2        1.0  0.25446  0.25412  0.52157  1.0000
  C   C3        1.0  0.25655000000000006  0.20604999999999996  0.6953499999999999  1.0000
  C   C4        1.0  0.19547  0.11383999999999997  0.66634  1.0000
  C   C5        1.0  0.16504  0.059719999999999995  0.74272  1.0000
  C   C6        1.0  0.19576  0.10078  0.84361  1.0000
  C   C7        1.0  0.25638  0.19397  0.86264  1.0000
  C   C8        1.0  0.25735  0.21810999999999994  0.0506  1.0000
  C   C9        1.0  0.36269  0.3236099999999999  0.9901  1.0000
  C   C10       1.0  0.6369  0.36774  0.34314  1.0000
  C   C11       1.0  0.52159  0.25443999999999994  0.25407  1.0000
  C   C12       1.0  0.69538  0.25653  0.20602  1.0000
  C   C13       1.0  0.66638  0.19544  0.11380999999999997  1.0000
  C   C14       1.0  0.74277  0.16502  0.05969  1.0000
  C   C15       1.0  0.8436500000000002  0.1957399999999999  0.10075  1.0000
  C   C16       1.0  0.8626700000000004  0.25636  0.19395  1.0000
  C   C17       1.0  0.05061000000000001  0.25733999999999996  0.21812  1.0000
  C   C18       1.0  0.99009  0.3626899999999999  0.32360999999999995  1.0000
  C   C19       1.0  0.34315  0.6369099999999998  0.36778  1.0000
  C   C20       1.0  0.25409  0.52157  0.25448  1.0000
  C   C21       1.0  0.20605  0.69536  0.25655  1.0000
  C   C22       1.0  0.11384000000000001  0.66635  0.19547  1.0000
  C   C23       1.0  0.05972000000000002  0.74274  0.16504  1.0000
  C   C24       1.0  0.10078  0.8436299999999999  0.19576  1.0000
  C   C25       1.0  0.19397  0.8626499999999998  0.25637  1.0000
  C   C26       1.0  0.21812  0.050599999999999985  0.25733  1.0000
  C   C27       1.0  0.32362  0.9901099999999998  0.36268  1.0000
  C   C28       1.0  0.63223  0.65683  0.3631  1.0000
  C   C29       1.0  0.74554  0.74588  0.47842  1.0000
  C   C30       1.0  0.74345  0.7939499999999999  0.30464  1.0000
  C   C31       1.0  0.80453  0.88616  0.33366  1.0000
  C   C32       1.0  0.8349600000000001  0.94028  0.25728  1.0000
  C   C33       1.0  0.80424  0.8992299999999998  0.15638  1.0000
  C   C34       1.0  0.74363  0.80604  0.13736  1.0000
  C   C35       1.0  0.7426600000000001  0.7818899999999998  0.9493999999999998  1.0000
  C   C36       1.0  0.63731  0.6764  0.0099  1.0000
  C   C37       1.0  0.36311  0.63226  0.6568599999999999  1.0000
  C   C38       1.0  0.4784200000000001  0.7455699999999998  0.74593  1.0000
  C   C39       1.0  0.30462999999999996  0.7434699999999997  0.7939799999999998  1.0000
  C   C40       1.0  0.33363  0.80456  0.88619  1.0000
  C   C41       1.0  0.25724  0.8349899999999999  0.94031  1.0000
  C   C42       1.0  0.15635  0.80426  0.89925  1.0000
  C   C43       1.0  0.13734000000000002  0.7436399999999999  0.80605  1.0000
  C   C44       1.0  0.9493900000000002  0.74267  0.78188  1.0000
  C   C45       1.0  0.009909999999999981  0.6373099999999998  0.67639  1.0000
  C   C46       1.0  0.65685  0.3631  0.63222  1.0000
  C   C47       1.0  0.74591  0.47843  0.74551  1.0000
  C   C48       1.0  0.79396  0.30463999999999997  0.7434499999999999  1.0000
  C   C49       1.0  0.88616  0.33365  0.8045299999999999  1.0000
  C   C50       1.0  0.9402800000000001  0.25727  0.83496  1.0000
  C   C51       1.0  0.89923  0.15638  0.80424  1.0000
  C   C52       1.0  0.80603  0.13735  0.74363  1.0000
  C   C53       1.0  0.78188  0.94941  0.74266  1.0000
  C   C54       1.0  0.67639  0.00989999999999999  0.63732  1.0000
  N   N1        1.0  0.3779500000000001  0.3773499999999999  0.54922  1.0000
  N   N2        1.0  0.3064600000000001  0.32164  0.47784  1.0000
  N   N3        1.0  0.29053  0.26391  0.62226  1.0000
  N   N4        1.0  0.28922  0.24769999999999998  0.7911999999999999  1.0000
  N   N5        1.0  0.28948  0.24065999999999996  0.96167  1.0000
  N   N6        1.0  0.3754700000000001  0.34864  0.08894  1.0000
  N   N7        1.0  0.30898  0.28230999999999995  0.12674  1.0000
  N   N8        1.0  0.54921  0.3779299999999999  0.37732  1.0000
  N   N9        1.0  0.4778400000000001  0.30642999999999987  0.32159  1.0000
  N   N10       1.0  0.62227  0.2905  0.26387  1.0000
  N   N11       1.0  0.79121  0.28921  0.24768  1.0000
  N   N12       1.0  0.96169  0.28948  0.24065  1.0000
  N   N13       1.0  0.08892  0.37547  0.34866  1.0000
  N   N14       1.0  0.12674  0.30897  0.28233  1.0000
  N   N15       1.0  0.37733  0.54922  0.3779699999999999  1.0000
  N   N16       1.0  0.3216100000000001  0.47783  0.30648  1.0000
  N   N17       1.0  0.26389  0.62227  0.29054  1.0000
  N   N18       1.0  0.2477  0.79121  0.28921  1.0000
  N   N19       1.0  0.24066000000000012  0.96168  0.28947  1.0000
  N   N20       1.0  0.34866  0.08894  0.37546  1.0000
  N   N21       1.0  0.28233000000000014  0.12672999999999998  0.30896  1.0000
  N   N22       1.0  0.6220500000000002  0.6226499999999998  0.45078  1.0000
  N   N23       1.0  0.69355  0.67837  0.52216  1.0000
  N   N24       1.0  0.7094800000000002  0.7360999999999998  0.37774  1.0000
  N   N25       1.0  0.7107800000000002  0.7523  0.20878999999999998  1.0000
  N   N26       1.0  0.71052  0.75935  0.03832  1.0000
  N   N27       1.0  0.6245300000000001  0.6513599999999999  0.91106  1.0000
  N   N28       1.0  0.6910199999999999  0.7176899999999998  0.8732599999999999  1.0000
  N   N29       1.0  0.45079  0.6220799999999997  0.62268  1.0000
  N   N30       1.0  0.5221699999999999  0.69357  0.6783999999999999  1.0000
  N   N31       1.0  0.37773  0.7095  0.73613  1.0000
  N   N32       1.0  0.20879  0.71079  0.75232  1.0000
  N   N33       1.0  0.03832000000000001  0.71053  0.75934  1.0000
  N   N34       1.0  0.9110800000000002  0.62453  0.6513399999999999  1.0000
  N   N35       1.0  0.87327  0.69103  0.71767  1.0000
  N   N36       1.0  0.62268  0.4507799999999999  0.6220199999999999  1.0000
  N   N37       1.0  0.6784000000000002  0.5221699999999999  0.6935199999999999  1.0000
  N   N38       1.0  0.73611  0.3777399999999999  0.70946  1.0000
  N   N39       1.0  0.7523  0.20879999999999996  0.71078  1.0000
  N   N40       1.0  0.7593400000000001  0.03831999999999999  0.7105299999999999  1.0000
  N   N41       1.0  0.65135  0.91107  0.62454  1.0000
  N   N42       1.0  0.71768  0.8732699999999997  0.69103  1.0000
