data_image0
_chemical_formula_structural       Zn4P4H48C36O24
_chemical_formula_sum              "Zn4 P4 H48 C36 O24"
_cell_length_a       11.56047
_cell_length_b       11.53937
_cell_length_c       14.65984
_cell_angle_alpha    89.92011999999998
_cell_angle_beta     90.03367
_cell_angle_gamma    120.00180999999999

_space_group_name_H-M_alt    "P 1"
_space_group_IT_number       1

loop_
  _space_group_symop_operation_xyz
  'x, y, z'

loop_
  _atom_site_type_symbol
  _atom_site_label
  _atom_site_symmetry_multiplicity
  _atom_site_fract_x
  _atom_site_fract_y
  _atom_site_fract_z
  _atom_site_occupancy
  Zn  Zn1       1.0  0.66327  0.33138  0.86188  1.0000
  Zn  Zn2       1.0  0.33657  0.66816  0.36421999999999993  1.0000
  Zn  Zn3       1.0  9.999999999956245e-06  0.99994  0.60233  1.0000
  Zn  Zn4       1.0  0.9999299999999999  0.9999000000000001  0.10221  1.0000
  P   P1        1.0  0.6655599999999999  0.33305  0.026079999999999996  1.0000
  P   P2        1.0  0.33417  0.66709  0.52712  1.0000
  P   P3        1.0  0.9995599999999999  0.9995800000000001  0.76883  1.0000
  P   P4        1.0  0.00018000000000005753  0.99993  0.2698  1.0000
  H   H1        1.0  0.7995099999999999  0.0007400000000000001  0.80926  1.0000
  H   H2        1.0  0.92971  0.08425  0.89057  1.0000
  H   H3        1.0  0.04361000000000001  0.27976  0.7729399999999998  1.0000
  H   H4        1.0  0.89614  0.19041  0.70479  1.0000
  H   H5        1.0  0.47373  0.11751000000000002  0.0462  1.0000
  H   H6        1.0  0.51051  0.21166  0.14898999999999998  1.0000
  H   H7        1.0  0.42015  0.3508400000000001  0.07710999999999998  1.0000
  H   H8        1.0  0.39475  0.26579  0.9733899999999998  1.0000
  H   H9        1.0  0.20059999999999997  0.20008  0.80888  1.0000
  H   H10       1.0  0.15443999999999997  0.06998  0.89041  1.0000
  H   H11       1.0  0.23618999999999998  0.9556300000000001  0.77482  1.0000
  H   H12       1.0  0.29120999999999997  0.10063  0.7041  1.0000
  H   H13       1.0  0.64353  0.52633  0.04555  1.0000
  H   H14       1.0  0.70043  0.48916000000000004  0.14847  1.0000
  H   H15       1.0  0.9294899999999999  0.57846  0.07712999999999998  1.0000
  H   H16       1.0  0.8710199999999999  0.60478  0.9732  1.0000
  H   H17       1.0  0.9988199999999998  0.79796  0.8087999999999997  1.0000
  H   H18       1.0  0.9163400000000002  0.8449900000000001  0.89066  1.0000
  H   H19       1.0  0.7199399999999999  0.7636500000000003  0.77425  1.0000
  H   H20       1.0  0.8082199999999999  0.7048900000000002  0.70548  1.0000
  H   H21       1.0  0.8811699999999999  0.35640000000000005  0.04318  1.0000
  H   H22       1.0  0.7899399999999999  0.30034  0.14718  1.0000
  H   H23       1.0  0.6488999999999999  0.06956000000000001  0.0768  1.0000
  H   H24       1.0  0.7335399999999999  0.12797  0.97271  1.0000
  H   H25       1.0  0.20035000000000006  0.9989200000000001  0.30995  1.0000
  H   H26       1.0  0.07085  0.91555  0.39162999999999987  1.0000
  H   H27       1.0  0.9553899999999999  0.71999  0.2746399999999999  1.0000
  H   H28       1.0  0.10248999999999997  0.80867  0.20608  1.0000
  H   H29       1.0  0.52643  0.88202  0.54742  1.0000
  H   H30       1.0  0.4888799999999999  0.78685  0.6501  1.0000
  H   H31       1.0  0.57927  0.64788  0.57827  1.0000
  H   H32       1.0  0.6051  0.7336900000000001  0.47443  1.0000
  H   H33       1.0  0.7987  0.79948  0.30975  1.0000
  H   H34       1.0  0.84606  0.9285600000000002  0.39202  1.0000
  H   H35       1.0  0.76523  0.04572  0.27721  1.0000
  H   H36       1.0  0.7082099999999999  0.90064  0.20647  1.0000
  H   H37       1.0  0.35587999999999986  0.4737400000000001  0.54619  1.0000
  H   H38       1.0  0.29924  0.51076  0.6494199999999998  1.0000
  H   H39       1.0  0.06985999999999998  0.42153  0.57773  1.0000
  H   H40       1.0  0.12918999999999997  0.3957  0.4738199999999999  1.0000
  H   H41       1.0  0.0016900000000000003  0.20189  0.30957  1.0000
  H   H42       1.0  0.08415999999999998  0.15495000000000003  0.39153  1.0000
  H   H43       1.0  0.27952  0.2336  0.27477  1.0000
  H   H44       1.0  0.19212999999999997  0.29327  0.20589  1.0000
  H   H45       1.0  0.11909000000000002  0.64445  0.54551  1.0000
  H   H46       1.0  0.21195999999999998  0.70077  0.64898  1.0000
  H   H47       1.0  0.35201  0.93134  0.5777499999999998  1.0000
  H   H48       1.0  0.26681999999999995  0.8721600000000002  0.47373999999999994  1.0000
  C   C1        1.0  0.9057999999999998  0.07515000000000001  0.8169499999999997  1.0000
  C   C2        1.0  0.9361399999999999  0.20882  0.77466  1.0000
  C   C3        1.0  0.8684499999999999  0.27316  0.82772  1.0000
  C   C4        1.0  0.50278  0.21639  0.07445  1.0000
  C   C5        1.0  0.39803  0.2542  0.04752  1.0000
  C   C6        1.0  0.25975  0.1526  0.08106999999999999  1.0000
  C   C7        1.0  0.16861  0.09360000000000003  0.8167799999999997  1.0000
  C   C8        1.0  0.27165999999999996  0.06312  0.77466  1.0000
  C   C9        1.0  0.40467999999999993  0.13454  0.82605  1.0000
  C   C10       1.0  0.71288  0.49675  0.07390999999999998  1.0000
  C   C11       1.0  0.8556899999999998  0.60131  0.04727  1.0000
  C   C12       1.0  0.8933199999999999  0.7398700000000002  0.08103  1.0000
  C   C13       1.0  0.9244900000000001  0.8298800000000001  0.81696  1.0000
  C   C14       1.0  0.79069  0.72687  0.7754399999999998  1.0000
  C   C15       1.0  0.7268  0.5939600000000002  0.82832  1.0000
  C   C16       1.0  0.7832199999999999  0.2867  0.07271  1.0000
  C   C17       1.0  0.74532  0.1436  0.04674999999999999  1.0000
  C   C18       1.0  0.8465299999999998  0.10667  0.08086  1.0000
  C   C19       1.0  0.09408999999999997  0.92452  0.31791  1.0000
  C   C20       1.0  0.06294999999999999  0.79064  0.27602  1.0000
  C   C21       1.0  0.1304700000000001  0.7262700000000002  0.3292499999999999  1.0000
  C   C22       1.0  0.49697  0.78284  0.57555  1.0000
  C   C23       1.0  0.60143  0.74464  0.54856  1.0000
  C   C24       1.0  0.7397899999999997  0.8463400000000001  0.5817  1.0000
  C   C25       1.0  0.8313199999999998  0.90599  0.31824  1.0000
  C   C26       1.0  0.72894  0.9380900000000001  0.27694  1.0000
  C   C27       1.0  0.59607  0.86746  0.32875  1.0000
  C   C28       1.0  0.28669  0.50325  0.57485  1.0000
  C   C29       1.0  0.14386999999999997  0.39891  0.5479799999999999  1.0000
  C   C30       1.0  0.10619000000000003  0.25999000000000005  0.58116  1.0000
  C   C31       1.0  0.07555000000000003  0.16933000000000004  0.31775999999999993  1.0000
  C   C32       1.0  0.20960999999999996  0.27147  0.27595  1.0000
  C   C33       1.0  0.27419999999999994  0.40322  0.32943  1.0000
  C   C34       1.0  0.21751000000000004  0.7139  0.5744399999999998  1.0000
  C   C35       1.0  0.2555299999999999  0.8569800000000002  0.54788  1.0000
  C   C36       1.0  0.15379  0.8935000000000001  0.58125  1.0000
  O   O1        1.0  0.74383  0.22887  0.8092  1.0000
  O   O2        1.0  0.9349599999999998  0.36139  0.8855199999999998  1.0000
  O   O3        1.0  0.15984999999999996  0.14909  0.039929999999999986  1.0000
  O   O4        1.0  0.24675999999999995  0.07898  0.1488  1.0000
  O   O5        1.0  0.4847699999999999  0.25767  0.80392  1.0000
  O   O6        1.0  0.42867999999999995  0.07201  0.88615  1.0000
  O   O7        1.0  0.9893399999999999  0.8400100000000001  0.03969  1.0000
  O   O8        1.0  0.8336700000000001  0.7530400000000002  0.14915  1.0000
  O   O9        1.0  0.7712599999999998  0.51431  0.80883  1.0000
  O   O10       1.0  0.6385099999999999  0.5715600000000001  0.88631  1.0000
  O   O11       1.0  0.85086  0.010560000000000003  0.03977  1.0000
  O   O12       1.0  0.91918  0.16682000000000002  0.14891  1.0000
  O   O13       1.0  0.25387  0.76756  0.30899  1.0000
  O   O14       1.0  0.06467999999999996  0.64078  0.38896  1.0000
  O   O15       1.0  0.83975  0.8504200000000002  0.54025  1.0000
  O   O16       1.0  0.75266  0.9198400000000001  0.64925  1.0000
  O   O17       1.0  0.5170199999999999  0.7433700000000001  0.30845  1.0000
  O   O18       1.0  0.57182  0.93177  0.38699  1.0000
  O   O19       1.0  0.010539999999999999  0.16014  0.53953  1.0000
  O   O20       1.0  0.16601999999999997  0.24643000000000004  0.64917  1.0000
  O   O21       1.0  0.23359999999999995  0.48598  0.30905  1.0000
  O   O22       1.0  0.3589099999999999  0.42223  0.38947  1.0000
  O   O23       1.0  0.14928999999999998  0.9894000000000001  0.53968  1.0000
  O   O24       1.0  0.08075999999999997  0.8331000000000001  0.64912  1.0000
