data_image0
_chemical_formula_structural       Y4P4H44C28N4O20
_chemical_formula_sum              "Y4 P4 H44 C28 N4 O20"
_cell_length_a       4.18001
_cell_length_b       14.03203
_cell_length_c       20.225079999999995
_cell_angle_alpha    90.00062
_cell_angle_beta     88.14526999999998
_cell_angle_gamma    90.01906

_symmetry_space_group_name_H-M    'P 1'
_symmetry_Int_Tables_number       1

loop_
  _symmetry_equiv_pos_as_xyz
  'x,y,z'

loop_
  _atom_site_type_symbol
  _atom_site_label
  _atom_site_symmetry_multiplicity
  _atom_site_fract_x
  _atom_site_fract_y
  _atom_site_fract_z
  _atom_site_occupancy
  Y   Y1        1.0  0.7313  0.10754000000000002  0.9555699999999999  1.0000
  Y   Y2        1.0  0.26751  0.60736  0.54381  1.0000
  Y   Y3        1.0  0.2687  0.89246  0.04443  1.0000
  Y   Y4        1.0  0.73251  0.39264  0.45619  1.0000
  P   P1        1.0  0.85256  0.056950000000000014  0.09667  1.0000
  P   P2        1.0  0.14710999999999996  0.5566  0.40249  1.0000
  P   P3        1.0  0.14745  0.94305  0.9033299999999999  1.0000
  P   P4        1.0  0.85289  0.44341  0.59752  1.0000
  H   H1        1.0  0.70383  0.9759500000000002  0.19572  1.0000
  H   H2        1.0  0.4541  0.07914  0.19571  1.0000
  H   H3        1.0  0.71455  0.08802  0.31488  1.0000
  H   H4        1.0  0.96327  0.98744  0.29262  1.0000
  H   H5        1.0  0.16673999999999997  0.08682000000000002  0.38307  1.0000
  H   H6        1.0  0.43385  0.08763  0.31184  1.0000
  H   H7        1.0  0.91505  0.24008  0.33762  1.0000
  H   H8        1.0  0.21700000000000003  0.32368  0.24375999999999998  1.0000
  H   H9        1.0  0.46247  0.22092000000000006  0.2327  1.0000
  H   H10       1.0  0.9918100000000001  0.21787000000000006  0.16076  1.0000
  H   H11       1.0  0.74331  0.23134000000000005  0.2342  1.0000
  H   H12       1.0  0.29677  0.47556  0.30368  1.0000
  H   H13       1.0  0.54685  0.57874  0.30393  1.0000
  H   H14       1.0  0.28566  0.58774  0.18494  1.0000
  H   H15       1.0  0.036829999999999995  0.48712000000000005  0.20737000000000003  1.0000
  H   H16       1.0  0.83311  0.58639  0.11688  1.0000
  H   H17       1.0  0.56627  0.58721  0.18813  1.0000
  H   H18       1.0  0.08522  0.73972  0.16246  1.0000
  H   H19       1.0  0.78347  0.82327  0.25623  1.0000
  H   H20       1.0  0.53792  0.7205500000000002  0.26734  1.0000
  H   H21       1.0  0.008950000000000008  0.71745  0.33923  1.0000
  H   H22       1.0  0.25719  0.73121  0.26575  1.0000
  H   H23       1.0  0.29617  0.02405  0.80429  1.0000
  H   H24       1.0  0.5459100000000001  0.9208600000000001  0.80429  1.0000
  H   H25       1.0  0.28546  0.9119800000000001  0.68513  1.0000
  H   H26       1.0  0.036740000000000016  0.01256  0.70738  1.0000
  H   H27       1.0  0.83326  0.91319  0.6169399999999999  1.0000
  H   H28       1.0  0.56615  0.91237  0.68816  1.0000
  H   H29       1.0  0.08495  0.7599300000000002  0.66239  1.0000
  H   H30       1.0  0.783  0.6763200000000003  0.75624  1.0000
  H   H31       1.0  0.53753  0.7790800000000001  0.7673  1.0000
  H   H32       1.0  0.008190000000000013  0.7821300000000001  0.83924  1.0000
  H   H33       1.0  0.25669000000000003  0.7686600000000002  0.7658  1.0000
  H   H34       1.0  0.7032400000000002  0.52444  0.69632  1.0000
  H   H35       1.0  0.45314999999999994  0.42126  0.69607  1.0000
  H   H36       1.0  0.71433  0.41226  0.81506  1.0000
  H   H37       1.0  0.9631600000000001  0.51288  0.79263  1.0000
  H   H38       1.0  0.16688000000000008  0.41361  0.88312  1.0000
  H   H39       1.0  0.43373  0.4127900000000001  0.8118699999999999  1.0000
  H   H40       1.0  0.9147800000000005  0.26028  0.83754  1.0000
  H   H41       1.0  0.21652  0.17673  0.74377  1.0000
  H   H42       1.0  0.46207000000000004  0.27945  0.7326699999999999  1.0000
  H   H43       1.0  0.99104  0.28255  0.66077  1.0000
  H   H44       1.0  0.7428  0.26879  0.73425  1.0000
  C   C1        1.0  0.711  0.05266  0.18432  1.0000
  C   C2        1.0  0.9538200000000001  0.06576  0.29043  1.0000
  C   C3        1.0  0.18823  0.11142  0.33147  1.0000
  C   C4        1.0  0.16492  0.22065  0.32504  1.0000
  C   C5        1.0  0.21973  0.24627  0.25206  1.0000
  C   C6        1.0  0.97691  0.19977  0.21355999999999997  1.0000
  C   C7        1.0  0.34017000000000003  0.27715000000000006  0.37378  1.0000
  C   C8        1.0  0.28993  0.55223  0.31518  1.0000
  C   C9        1.0  0.0464  0.56546  0.2094  1.0000
  C   C10       1.0  0.81177  0.61107  0.16845  1.0000
  C   C11       1.0  0.83524  0.7203  0.17505  1.0000
  C   C12       1.0  0.7808400000000002  0.7458600000000002  0.24800999999999998  1.0000
  C   C13       1.0  0.02386  0.69945  0.28642  1.0000
  C   C14       1.0  0.6587400000000001  0.77722  0.12689  1.0000
  C   C15       1.0  0.28901  0.9473400000000001  0.81568  1.0000
  C   C16       1.0  0.04619000000000001  0.9342400000000001  0.70958  1.0000
  C   C17       1.0  0.81178  0.88858  0.66854  1.0000
  C   C18       1.0  0.83507  0.7793500000000002  0.67496  1.0000
  C   C19       1.0  0.7802700000000002  0.75373  0.7479399999999999  1.0000
  C   C20       1.0  0.02309000000000001  0.80023  0.78645  1.0000
  C   C21       1.0  0.65984  0.7228500000000001  0.62623  1.0000
  C   C22       1.0  0.7100700000000002  0.4477700000000001  0.68482  1.0000
  C   C23       1.0  0.95359  0.43454  0.7906  1.0000
  C   C24       1.0  0.18822000000000008  0.38893  0.8315499999999999  1.0000
  C   C25       1.0  0.16475000000000006  0.2797  0.82495  1.0000
  C   C26       1.0  0.21915  0.25414  0.752  1.0000
  C   C27       1.0  0.9761400000000001  0.30054  0.71359  1.0000
  C   C28       1.0  0.34126  0.22278  0.87311  1.0000
  N   N1        1.0  0.9688999999999999  0.09498  0.22028  1.0000
  N   N2        1.0  0.03192  0.5947300000000002  0.27944  1.0000
  N   N3        1.0  0.031099999999999992  0.90502  0.77972  1.0000
  N   N4        1.0  0.9680800000000002  0.40527000000000013  0.7205599999999999  1.0000
  O   O1        1.0  0.74466  0.97691  0.04396  1.0000
  O   O2        1.0  0.79252  0.15106  0.06072999999999999  1.0000
  O   O3        1.0  0.20861  0.02844  0.10453999999999998  1.0000
  O   O4        1.0  0.21746999999999997  0.2898400000000001  0.43283999999999995  1.0000
  O   O5        1.0  0.6019100000000002  0.31895  0.35687  1.0000
  O   O6        1.0  0.25535  0.47683  0.45529  1.0000
  O   O7        1.0  0.20737000000000003  0.65079  0.43823  1.0000
  O   O8        1.0  0.79135  0.52799  0.39441  1.0000
  O   O9        1.0  0.77924  0.7901000000000001  0.06762  1.0000
  O   O10       1.0  0.39834000000000014  0.8191  0.14454  1.0000
  O   O11       1.0  0.25534  0.02308  0.95604  1.0000
  O   O12       1.0  0.20748  0.84893  0.9392700000000002  1.0000
  O   O13       1.0  0.7914  0.97156  0.89547  1.0000
  O   O14       1.0  0.78253  0.7101700000000001  0.56716  1.0000
  O   O15       1.0  0.39809000000000005  0.68105  0.64313  1.0000
  O   O16       1.0  0.7446500000000003  0.52317  0.54471  1.0000
  O   O17       1.0  0.79263  0.34921  0.56177  1.0000
  O   O18       1.0  0.20865  0.47201  0.60559  1.0000
  O   O19       1.0  0.22076  0.20990000000000003  0.93238  1.0000
  O   O20       1.0  0.6016500000000001  0.18090000000000006  0.85547  1.0000
