data_image0
_chemical_formula_structural       Zn8H24C22N32O14
_chemical_formula_sum              "Zn8 H24 C22 N32 O14"
_cell_length_a       9.30831
_cell_length_b       9.60227
_cell_length_c       17.502239999999997
_cell_angle_alpha    94.24139
_cell_angle_beta     105.30638
_cell_angle_gamma    89.63988

_space_group_name_H-M_alt    "P 1"
_space_group_IT_number       1

loop_
  _space_group_symop_operation_xyz
  'x, y, z'

loop_
  _atom_site_type_symbol
  _atom_site_label
  _atom_site_symmetry_multiplicity
  _atom_site_fract_x
  _atom_site_fract_y
  _atom_site_fract_z
  _atom_site_occupancy
  Zn  Zn1       1.0  0.61204  0.23386000000000004  0.83233  1.0000
  Zn  Zn2       1.0  0.63171  0.45443  0.65762  1.0000
  Zn  Zn3       1.0  0.78302  0.26235  0.16483  1.0000
  Zn  Zn4       1.0  0.9743799999999999  0.04734  0.34267  1.0000
  Zn  Zn5       1.0  0.38796  0.76613  0.16767  1.0000
  Zn  Zn6       1.0  0.36829  0.54557  0.34239  1.0000
  Zn  Zn7       1.0  0.21697999999999995  0.73764  0.83518  1.0000
  Zn  Zn8       1.0  0.025619999999999983  0.95266  0.65734  1.0000
  H   H1        1.0  0.45447  0.36694  0.94533  1.0000
  H   H2        1.0  0.35038  0.51602  0.94774  1.0000
  H   H3        1.0  0.97096  0.9564600000000001  0.82474  1.0000
  H   H4        1.0  0.88218  0.07029999999999997  0.87864  1.0000
  H   H5        1.0  0.39513  0.6698500000000001  0.70259  1.0000
  H   H6        1.0  0.81014  0.20676  0.58826  1.0000
  H   H7        1.0  0.5111  0.13294  0.05499  1.0000
  H   H8        1.0  0.40411  0.98581  0.05449  1.0000
  H   H9        1.0  0.14655  0.54404  0.17463  1.0000
  H   H10       1.0  0.006420000000000007  0.43040000000000006  0.12018000000000001  1.0000
  H   H11       1.0  0.69681  0.83337  0.29964  1.0000
  H   H12       1.0  0.22056  0.29379  0.4109299999999999  1.0000
  H   H13       1.0  0.54553  0.63306  0.05467  1.0000
  H   H14       1.0  0.64962  0.48397  0.05226  1.0000
  H   H15       1.0  0.029039999999999993  0.04353  0.17526  1.0000
  H   H16       1.0  0.11781999999999998  0.92969  0.12136000000000001  1.0000
  H   H17       1.0  0.60486  0.3301500000000001  0.29741  1.0000
  H   H18       1.0  0.18986  0.79324  0.41174  1.0000
  H   H19       1.0  0.4888899999999999  0.86705  0.9450099999999998  1.0000
  H   H20       1.0  0.59588  0.014180000000000002  0.94551  1.0000
  H   H21       1.0  0.8534500000000003  0.45595  0.82538  1.0000
  H   H22       1.0  0.99358  0.5695900000000002  0.87982  1.0000
  H   H23       1.0  0.30318  0.16662  0.70037  1.0000
  H   H24       1.0  0.77944  0.7062  0.58908  1.0000
  C   C1        1.0  0.42047  0.48273  0.84947  1.0000
  C   C2        1.0  0.42071  0.59525  0.74762  1.0000
  C   C3        1.0  0.84331  0.10527000000000002  0.76201  1.0000
  C   C4        1.0  0.80484  0.18802000000000002  0.64772  1.0000
  C   C5        1.0  0.44686  0.55205  0.51429  1.0000
  C   C6        1.0  0.57468  0.01797  0.15139  1.0000
  C   C7        1.0  0.6769400000000001  0.90685  0.25401  1.0000
  C   C8        1.0  0.08217999999999999  0.3947  0.23681999999999995  1.0000
  C   C9        1.0  0.1569  0.3122500000000001  0.35125  1.0000
  C   C10       1.0  0.9338  0.94772  0.48590999999999995  1.0000
  C   C11       1.0  0.57952  0.51726  0.15053  1.0000
  C   C12       1.0  0.5792800000000001  0.40475000000000005  0.25239  1.0000
  C   C13       1.0  0.15669  0.89473  0.23799  1.0000
  C   C14       1.0  0.19516  0.81198  0.35229  1.0000
  C   C15       1.0  0.55316  0.44794  0.48572999999999994  1.0000
  C   C16       1.0  0.4253100000000001  0.98202  0.8486  1.0000
  C   C17       1.0  0.32306  0.09314  0.746  1.0000
  C   C18       1.0  0.91781  0.6053000000000001  0.76318  1.0000
  C   C19       1.0  0.84309  0.6877500000000001  0.64876  1.0000
  C   C20       1.0  0.06618999999999998  0.052260000000000015  0.51412  1.0000
  C   C21       1.0  0.73403  0.24812000000000003  0.99893  1.0000
  C   C22       1.0  0.26596  0.75187  0.00107  1.0000
  N   N1        1.0  0.51586  0.41813000000000006  0.81303  1.0000
  N   N2        1.0  0.51392  0.49065000000000003  0.74653  1.0000
  N   N3        1.0  0.35958  0.59548  0.81028  1.0000
  N   N4        1.0  0.3836  0.43817000000000006  0.91383  1.0000
  N   N5        1.0  0.74501  0.20946  0.75989  1.0000
  N   N6        1.0  0.72051  0.26198  0.68568  1.0000
  N   N7        1.0  0.8833800000000002  0.08901000000000002  0.69247  1.0000
  N   N8        1.0  0.88783  0.02519  0.82478  1.0000
  N   N9        1.0  0.70647  0.08130000000000001  0.187  1.0000
  N   N10       1.0  0.77079  0.010069999999999999  0.25406  1.0000
  N   N11       1.0  0.55335  0.9067300000000001  0.19155  1.0000
  N   N12       1.0  0.47307  0.06261  0.08726  1.0000
  N   N13       1.0  0.98696  0.29061000000000003  0.23865000000000003  1.0000
  N   N14       1.0  0.03597  0.23835  0.31303  1.0000
  N   N15       1.0  0.19068  0.41101  0.30657  1.0000
  N   N16       1.0  0.0641  0.47518  0.17422  1.0000
  N   N17       1.0  0.48413  0.58187  0.18697  1.0000
  N   N18       1.0  0.48607999999999996  0.5093500000000001  0.25348  1.0000
  N   N19       1.0  0.64041  0.4045100000000001  0.18972  1.0000
  N   N20       1.0  0.6164  0.5618200000000001  0.08617  1.0000
  N   N21       1.0  0.25499  0.79053  0.24012  1.0000
  N   N22       1.0  0.27949  0.73801  0.31433  1.0000
  N   N23       1.0  0.11661000000000002  0.9109900000000002  0.30753  1.0000
  N   N24       1.0  0.11216999999999999  0.9748000000000002  0.17523  1.0000
  N   N25       1.0  0.29352  0.9187000000000002  0.81301  1.0000
  N   N26       1.0  0.22921  0.9899300000000001  0.74595  1.0000
  N   N27       1.0  0.44665  0.09326  0.80846  1.0000
  N   N28       1.0  0.52693  0.93738  0.91274  1.0000
  N   N29       1.0  0.013030000000000022  0.70938  0.76135  1.0000
  N   N30       1.0  0.9640299999999999  0.76164  0.68698  1.0000
  N   N31       1.0  0.80932  0.58899  0.69343  1.0000
  N   N32       1.0  0.9359  0.52481  0.82579  1.0000
  O   O1        1.0  0.7716  0.22316000000000003  0.93239  1.0000
  O   O2        1.0  0.4644299999999999  0.57042  0.5889799999999998  1.0000
  O   O3        1.0  0.35089000000000004  0.61076  0.46182  1.0000
  O   O4        1.0  0.84112  0.27071000000000006  0.06425  1.0000
  O   O5        1.0  0.87679  0.92954  0.41137  1.0000
  O   O6        1.0  0.8923100000000002  0.88846  0.53867  1.0000
  O   O7        1.0  0.22839  0.77684  0.06761  1.0000
  O   O8        1.0  0.53557  0.42957  0.41102  1.0000
  O   O9        1.0  0.64909  0.38924  0.53817  1.0000
  O   O10       1.0  0.15887000000000007  0.7292800000000003  0.93576  1.0000
  O   O11       1.0  0.12319999999999996  0.07045000000000001  0.58863  1.0000
  O   O12       1.0  0.10768999999999998  0.11155  0.46132  1.0000
  O   O13       1.0  0.59605  0.25010000000000004  8e-05  1.0000
  O   O14       1.0  0.4039400000000001  0.74989  0.99992  1.0000
