data_image0
_chemical_formula_structural       Eu4Ag4H32C56N8O32
_chemical_formula_sum              "Eu4 Ag4 H32 C56 N8 O32"
_cell_length_a       9.70068
_cell_length_b       12.11178
_cell_length_c       17.16317
_cell_angle_alpha    97.27577
_cell_angle_beta     90.12934
_cell_angle_gamma    113.67453

_space_group_name_H-M_alt    "P 1"
_space_group_IT_number       1

loop_
  _space_group_symop_operation_xyz
  'x, y, z'

loop_
  _atom_site_type_symbol
  _atom_site_label
  _atom_site_symmetry_multiplicity
  _atom_site_fract_x
  _atom_site_fract_y
  _atom_site_fract_z
  _atom_site_occupancy
  Eu  Eu1       1.0  0.30045  0.9897000000000001  0.5651199999999997  1.0000
  Eu  Eu2       1.0  0.69799  0.011069999999999977  0.43501  1.0000
  Eu  Eu3       1.0  0.6896700000000001  0.9901699999999999  0.06536  1.0000
  Eu  Eu4       1.0  0.3116  0.01118000000000001  0.93477  1.0000
  Ag  Ag1       1.0  0.72498  0.68925  0.91924  1.0000
  Ag  Ag2       1.0  0.27577  0.31295  0.08083999999999997  1.0000
  Ag  Ag3       1.0  0.03668999999999999  0.31159  0.58101  1.0000
  Ag  Ag4       1.0  0.96351  0.68885  0.41896  1.0000
  H   H1        1.0  0.4997  0.37076999999999993  0.62075  1.0000
  H   H2        1.0  0.43796  0.40283  0.36913  1.0000
  H   H3        1.0  0.5005099999999999  0.6298299999999999  0.37950999999999996  1.0000
  H   H4        1.0  0.46210999999999997  0.71037  0.83197  1.0000
  H   H5        1.0  0.5384  0.2905  0.16786  1.0000
  H   H6        1.0  0.03677999999999998  0.59862  0.13125  1.0000
  H   H7        1.0  0.24774999999999997  0.71028  0.33272  1.0000
  H   H8        1.0  0.8721  0.37154000000000004  0.12099  1.0000
  H   H9        1.0  0.9642699999999998  0.7221899999999999  0.04652  1.0000
  H   H10       1.0  0.88184  0.90347  0.6672399999999998  1.0000
  H   H11       1.0  0.24209  0.2788  0.45368  1.0000
  H   H12       1.0  0.60643  0.18846  0.77623  1.0000
  H   H13       1.0  0.02203999999999993  0.90301  0.16678  1.0000
  H   H14       1.0  0.75243  0.29068  0.6674099999999997  1.0000
  H   H15       1.0  0.39387  0.81231  0.22383  1.0000
  H   H16       1.0  0.58091  0.18766999999999998  0.2769999999999999  1.0000
  H   H17       1.0  0.91131  0.80478  0.7823  1.0000
  H   H18       1.0  0.56215  0.59777  0.63085  1.0000
  H   H19       1.0  0.84348  0.42146000000000006  0.45513  1.0000
  H   H20       1.0  0.12965  0.63145  0.87935  1.0000
  H   H21       1.0  0.037320000000000006  0.28024  0.95311  1.0000
  H   H22       1.0  0.57743  0.42179999999999995  0.9553999999999999  1.0000
  H   H23       1.0  0.11837999999999999  0.09801  0.3325399999999999  1.0000
  H   H24       1.0  0.75748  0.72139  0.54593  1.0000
  H   H25       1.0  0.08906  0.19631  0.21707  1.0000
  H   H26       1.0  0.15642999999999996  0.5787  0.545  1.0000
  H   H27       1.0  0.9785600000000001  0.09809  0.83324  1.0000
  H   H28       1.0  0.8936899999999999  0.8049299999999999  0.28177  1.0000
  H   H29       1.0  0.96456  0.40420999999999996  0.86882  1.0000
  H   H30       1.0  0.10648000000000002  0.19577  0.71797  1.0000
  H   H31       1.0  0.41910000000000003  0.8129900000000001  0.72295  1.0000
  H   H32       1.0  0.4236  0.58063  0.04498  1.0000
  C   C1        1.0  0.77912  0.07098  0.25606  1.0000
  C   C2        1.0  0.64797  0.86727  0.6868  1.0000
  C   C3        1.0  0.73018  0.6250100000000001  0.54552  1.0000
  C   C4        1.0  0.52857  0.81084  0.73354  1.0000
  C   C5        1.0  0.9644200000000002  0.93013  0.48594000000000004  1.0000
  C   C6        1.0  0.3088500000000002  0.9317900000000001  0.12177  1.0000
  C   C7        1.0  0.2822799999999999  0.81034  0.23406  1.0000
  C   C8        1.0  0.32227  0.54376  0.00587  1.0000
  C   C9        1.0  0.19684999999999997  0.19479999999999997  0.2333  1.0000
  C   C10       1.0  0.26964  0.37528000000000006  0.45431  1.0000
  C   C11       1.0  0.9647  0.9311  0.9858099999999999  1.0000
  C   C12       1.0  0.44787999999999994  0.24645  0.20516  1.0000
  C   C13       1.0  0.47159  0.19007  0.26634999999999986  1.0000
  C   C14       1.0  0.7126799999999999  0.38201999999999997  0.03815  1.0000
  C   C15       1.0  0.03709  0.07059  0.01538  1.0000
  C   C16       1.0  0.22060000000000002  0.92942  0.74413  1.0000
  C   C17       1.0  0.28877  0.62016  0.9619899999999999  1.0000
  C   C18       1.0  0.62072  0.55479  0.59222  1.0000
  C   C19       1.0  0.21339  0.13911  0.29678  1.0000
  C   C20       1.0  0.07587000000000002  0.86193  0.20271  1.0000
  C   C21       1.0  0.71809  0.19053999999999996  0.7660399999999998  1.0000
  C   C22       1.0  0.7867400000000001  0.86225  0.70291  1.0000
  C   C23       1.0  0.79859  0.24666  0.70497  1.0000
  C   C24       1.0  0.06647999999999997  0.44714  0.90748  1.0000
  C   C25       1.0  0.20170000000000002  0.75432  0.29513  1.0000
  C   C26       1.0  0.37472  0.06869999999999998  0.3785299999999999  1.0000
  C   C27       1.0  0.00309999999999997  0.80641  0.26608  1.0000
  C   C28       1.0  0.03257000000000001  0.06962000000000002  0.51545  1.0000
  C   C29       1.0  0.36075  0.75209  0.47006  1.0000
  C   C30       1.0  0.6920699999999999  0.06887999999999993  0.8782799999999997  1.0000
  C   C31       1.0  0.2906599999999999  0.07019999999999997  0.75555  1.0000
  C   C32       1.0  0.6096400000000001  0.24856  0.0303  1.0000
  C   C33       1.0  0.6789  0.4584899999999999  0.9943899999999999  1.0000
  C   C34       1.0  0.55254  0.75446  0.79463  1.0000
  C   C35       1.0  0.33078  0.61882  0.46224  1.0000
  C   C36       1.0  0.35208  0.13417  0.31314  1.0000
  C   C37       1.0  0.77894  0.4580699999999999  0.49404  1.0000
  C   C38       1.0  0.2195700000000001  0.86656  0.18691999999999995  1.0000
  C   C39       1.0  0.9972799999999999  0.19454  0.73386  1.0000
  C   C40       1.0  0.9348299999999999  0.55555  0.09262999999999998  1.0000
  C   C41       1.0  0.4127799999999999  0.56972  0.41276  1.0000
  C   C42       1.0  0.39243  0.75322  0.9697400000000002  1.0000
  C   C43       1.0  0.22089999999999996  0.54217  0.50599  1.0000
  C   C44       1.0  0.89515  0.62571  0.04600999999999999  1.0000
  C   C45       1.0  0.15719999999999995  0.57118  0.91253  1.0000
  C   C46       1.0  0.37927  0.44569  0.40776  1.0000
  C   C47       1.0  0.58722  0.4307899999999999  0.5873699999999997  1.0000
  C   C48       1.0  0.10617  0.37681  0.9539599999999999  1.0000
  C   C49       1.0  0.7094600000000002  0.9301600000000002  0.24458  1.0000
  C   C50       1.0  0.62445  0.93313  0.62181  1.0000
  C   C51       1.0  0.92469  0.13911  0.7972899999999999  1.0000
  C   C52       1.0  0.84426  0.43148  0.08767  1.0000
  C   C53       1.0  0.78098  0.13436  0.81313  1.0000
  C   C54       1.0  0.63907  0.24832  0.5302  1.0000
  C   C55       1.0  0.66906  0.38156  0.53789  1.0000
  C   C56       1.0  0.80347  0.80637  0.76628  1.0000
  N   N1        1.0  0.68794  0.75317  0.8119199999999999  1.0000
  N   N2        1.0  0.23169  0.42459  0.00301  1.0000
  N   N3        1.0  0.06511  0.75325  0.31206  1.0000
  N   N4        1.0  0.31264  0.24796  0.18777  1.0000
  N   N5        1.0  0.93514  0.24771  0.68796  1.0000
  N   N6        1.0  0.80761  0.57719  0.49668  1.0000
  N   N7        1.0  0.76937  0.57772  0.9971599999999999  1.0000
  N   N8        1.0  0.19222999999999996  0.42303  0.50322  1.0000
  O   O1        1.0  0.6667000000000001  0.8778100000000001  0.30487  1.0000
  O   O2        1.0  0.8413599999999999  0.87142  0.01543  1.0000
  O   O3        1.0  0.72859  0.96989  0.57466  1.0000
  O   O4        1.0  0.03029999999999998  0.88803  0.9356  1.0000
  O   O5        1.0  0.55561  0.05561999999999997  0.87911  1.0000
  O   O6        1.0  0.25633  0.78238  0.49606999999999996  1.0000
  O   O7        1.0  0.2083700000000001  0.87747  0.80483  1.0000
  O   O8        1.0  0.85476  0.8874899999999999  0.43601  1.0000
  O   O9        1.0  0.50055  0.94504  0.62059  1.0000
  O   O10       1.0  0.81932  0.12460999999999997  0.3259099999999999  1.0000
  O   O11       1.0  0.9717199999999999  0.13017  0.48452  1.0000
  O   O12       1.0  0.15877  0.13134  0.98471  1.0000
  O   O13       1.0  0.33624  0.82316  0.9487799999999998  1.0000
  O   O14       1.0  0.18002  0.87613  0.6742799999999999  1.0000
  O   O15       1.0  0.52723  0.7831  0.9960099999999998  1.0000
  O   O16       1.0  0.70057  0.87722  0.17497  1.0000
  O   O17       1.0  0.44505  0.94458  0.12092  1.0000
  O   O18       1.0  0.02799999999999991  0.87023  0.51537  1.0000
  O   O19       1.0  0.76051  0.03357  0.92588  1.0000
  O   O20       1.0  0.51311  0.17815  0.55119  1.0000
  O   O21       1.0  0.74344  0.21810000000000002  0.50392  1.0000
  O   O22       1.0  0.4869899999999999  0.82207  0.44918  1.0000
  O   O23       1.0  0.1397  0.11154999999999998  0.56681  1.0000
  O   O24       1.0  0.97211  0.11233999999999998  0.06665  1.0000
  O   O25       1.0  0.66627  0.17877  0.051049999999999984  1.0000
  O   O26       1.0  0.33354  0.12237  0.69524  1.0000
  O   O27       1.0  0.79143  0.12272999999999999  0.1953  1.0000
  O   O28       1.0  0.24082999999999996  0.96724  0.07405  1.0000
  O   O29       1.0  0.49745999999999996  0.05487999999999999  0.37967  1.0000
  O   O30       1.0  0.47455  0.21798  0.00407  1.0000
  O   O31       1.0  0.29969  0.12325  0.82516  1.0000
  O   O32       1.0  0.2708  0.03384  0.42595  1.0000
