data_image0
_chemical_formula_structural       Zn6H28C48O20
_chemical_formula_sum              "Zn6 H28 C48 O20"
_cell_length_a       12.21657
_cell_length_b       13.72706
_cell_length_c       13.719499999999998
_cell_angle_alpha    84.85926
_cell_angle_beta     86.51576
_cell_angle_gamma    86.55950999999999

_symmetry_space_group_name_H-M    'P 1'
_symmetry_Int_Tables_number       1

loop_
  _symmetry_equiv_pos_as_xyz
  'x,y,z'

loop_
  _atom_site_type_symbol
  _atom_site_label
  _atom_site_symmetry_multiplicity
  _atom_site_fract_x
  _atom_site_fract_y
  _atom_site_fract_z
  _atom_site_occupancy
  Zn  Zn1       1.0  0.0  0.0  0.0  1.0000
  Zn  Zn2       1.0  0.4999999999999999  0.0  0.0  1.0000
  Zn  Zn3       1.0  0.25058999999999987  0.9162600000000002  0.08339  1.0000
  Zn  Zn4       1.0  0.25081999999999993  0.07967  0.9206  1.0000
  Zn  Zn5       1.0  0.7493999999999998  0.08373999999999998  0.91661  1.0000
  Zn  Zn6       1.0  0.74917  0.9203300000000001  0.0794  1.0000
  H   H1        1.0  0.16235  0.91125  0.91553  1.0000
  H   H2        1.0  0.18446  0.9531300000000003  0.37995  1.0000
  H   H3        1.0  0.8580499999999998  0.9922200000000002  0.27782  1.0000
  H   H4        1.0  0.21593999999999997  0.9701900000000002  0.55591  1.0000
  H   H5        1.0  0.09883999999999997  0.73391  0.90398  1.0000
  H   H6        1.0  0.17606  0.56563  0.87802  1.0000
  H   H7        1.0  0.83569  0.6162900000000001  0.09088  1.0000
  H   H8        1.0  0.3399099999999999  0.08359  0.08955  1.0000
  H   H9        1.0  0.31490999999999997  0.6189900000000002  0.04694  1.0000
  H   H10       1.0  0.64077  0.7227400000000003  0.00809  1.0000
  H   H11       1.0  0.28418  0.4433900000000001  0.02976  1.0000
  H   H12       1.0  0.39952  0.097  0.26688  1.0000
  H   H13       1.0  0.32345  0.12218000000000005  0.43597  1.0000
  H   H14       1.0  0.6634299999999999  0.90981  0.38243999999999995  1.0000
  H   H15       1.0  0.83764  0.08875  0.08447  1.0000
  H   H16       1.0  0.8155299999999999  0.046870000000000016  0.6200499999999999  1.0000
  H   H17       1.0  0.14194  0.007780000000000001  0.72218  1.0000
  H   H18       1.0  0.78405  0.029810000000000014  0.44409  1.0000
  H   H19       1.0  0.9011599999999997  0.26609  0.09602  1.0000
  H   H20       1.0  0.8239399999999998  0.4343700000000001  0.12198000000000002  1.0000
  H   H21       1.0  0.1643  0.3837100000000001  0.90912  1.0000
  H   H22       1.0  0.6600799999999998  0.91641  0.91045  1.0000
  H   H23       1.0  0.6850799999999998  0.3810100000000001  0.95306  1.0000
  H   H24       1.0  0.35922  0.27726  0.9919100000000001  1.0000
  H   H25       1.0  0.7158099999999998  0.55661  0.97024  1.0000
  H   H26       1.0  0.6004699999999998  0.9030000000000002  0.73312  1.0000
  H   H27       1.0  0.67654  0.87782  0.56403  1.0000
  H   H28       1.0  0.33657  0.09019000000000003  0.61756  1.0000
  C   C1        1.0  0.07066  0.95282  0.21864  1.0000
  C   C2        1.0  0.026449999999999994  0.97128  0.3196  1.0000
  C   C3        1.0  0.09725999999999993  0.9695000000000003  0.39512  1.0000
  C   C4        1.0  0.057699999999999994  0.9888200000000001  0.49097  1.0000
  C   C5        1.0  0.91214  0.99253  0.33786  1.0000
  C   C6        1.0  0.12857999999999997  0.9874500000000005  0.56978  1.0000
  C   C7        1.0  0.91464  0.7864200000000001  0.01047  1.0000
  C   C8        1.0  0.96143  0.6844799999999999  0.99845  1.0000
  C   C9        1.0  0.05909  0.66988  0.93848  1.0000
  C   C10       1.0  0.10155000000000002  0.5766  0.92426  1.0000
  C   C11       1.0  0.90961  0.6040700000000002  0.04432  1.0000
  C   C12       1.0  0.04889  0.49282  0.9690499999999999  1.0000
  C   C13       1.0  0.42755999999999994  0.7803900000000003  0.04739  1.0000
  C   C14       1.0  0.47265  0.67989  0.02884  1.0000
  C   C15       1.0  0.4021799999999999  0.6041700000000002  0.03059  1.0000
  C   C16       1.0  0.4422399999999999  0.50866  0.01119  1.0000
  C   C17       1.0  0.5871299999999999  0.6623800000000002  0.007649999999999999  1.0000
  C   C18       1.0  0.3716  0.42970000000000014  0.01247  1.0000
  C   C19       1.0  0.5836799999999999  0.9899600000000002  0.2135  1.0000
  C   C20       1.0  0.5370899999999998  0.0021100000000000047  0.3154199999999999  1.0000
  C   C21       1.0  0.43964  0.06216000000000003  0.33058  1.0000
  C   C22       1.0  0.39785999999999994  0.07604  0.4242099999999999  1.0000
  C   C23       1.0  0.5895799999999999  0.95617  0.39536  1.0000
  C   C24       1.0  0.45112999999999986  0.03084  0.50748  1.0000
  C   C25       1.0  0.9293299999999999  0.04718  0.78136  1.0000
  C   C26       1.0  0.9735499999999999  0.028720000000000006  0.6804  1.0000
  C   C27       1.0  0.90273  0.0305  0.60488  1.0000
  C   C28       1.0  0.9422999999999998  0.011180000000000002  0.50903  1.0000
  C   C29       1.0  0.08784999999999998  0.007470000000000002  0.66213  1.0000
  C   C30       1.0  0.87141  0.012549999999999995  0.43021  1.0000
  C   C31       1.0  0.08534999999999998  0.21358  0.98953  1.0000
  C   C32       1.0  0.03856999999999999  0.31552000000000013  0.00154  1.0000
  C   C33       1.0  0.9408999999999997  0.33012000000000014  0.06152  1.0000
  C   C34       1.0  0.89844  0.4234  0.07574  1.0000
  C   C35       1.0  0.09038999999999996  0.3959300000000001  0.95568  1.0000
  C   C36       1.0  0.95111  0.50718  0.03094  1.0000
  C   C37       1.0  0.57243  0.21961  0.95261  1.0000
  C   C38       1.0  0.5273399999999998  0.32011000000000006  0.97116  1.0000
  C   C39       1.0  0.5978099999999998  0.39583  0.96941  1.0000
  C   C40       1.0  0.5577499999999999  0.4913400000000001  0.9888  1.0000
  C   C41       1.0  0.4128699999999999  0.33762  0.99234  1.0000
  C   C42       1.0  0.6283899999999998  0.5703  0.98753  1.0000
  C   C43       1.0  0.41631000000000007  0.010039999999999993  0.7865  1.0000
  C   C44       1.0  0.4628999999999999  0.9978900000000002  0.68457  1.0000
  C   C45       1.0  0.5603499999999998  0.93784  0.66942  1.0000
  C   C46       1.0  0.60214  0.9239600000000001  0.57579  1.0000
  C   C47       1.0  0.4104099999999999  0.04383  0.60463  1.0000
  C   C48       1.0  0.54886  0.9691600000000002  0.49252  1.0000
  O   O1        1.0  0.16402999999999998  0.95919  0.9634  1.0000
  O   O2        1.0  0.004320000000000001  0.95194  0.15149000000000004  1.0000
  O   O3        1.0  0.17617  0.9386200000000002  0.20808  1.0000
  O   O4        1.0  0.82566  0.79421  0.06599  1.0000
  O   O5        1.0  0.9629999999999999  0.85745  0.96508  1.0000
  O   O6        1.0  0.3374499999999999  0.036440000000000014  0.040999999999999995  1.0000
  O   O7        1.0  0.4930799999999999  0.8481300000000003  0.04819  1.0000
  O   O8        1.0  0.32193999999999995  0.7904200000000001  0.06177  1.0000
  O   O9        1.0  0.6730299999999999  0.93515  0.20568  1.0000
  O   O10       1.0  0.53469  0.03453  0.14245  1.0000
  O   O11       1.0  0.8359699999999999  0.04081  0.0366  1.0000
  O   O12       1.0  0.9956799999999999  0.048060000000000026  0.84851  1.0000
  O   O13       1.0  0.82382  0.061380000000000004  0.79192  1.0000
  O   O14       1.0  0.17432999999999996  0.20579  0.93401  1.0000
  O   O15       1.0  0.03699  0.14255  0.03492  1.0000
  O   O16       1.0  0.6625499999999999  0.96356  0.959  1.0000
  O   O17       1.0  0.50691  0.15187  0.95181  1.0000
  O   O18       1.0  0.67805  0.20958000000000004  0.9382299999999999  1.0000
  O   O19       1.0  0.32696  0.06485000000000002  0.79432  1.0000
  O   O20       1.0  0.46530999999999995  0.96547  0.85755  1.0000
