data_image0
_chemical_formula_structural       Cd6H32C56O56
_chemical_formula_sum              "Cd6 H32 C56 O56"
_cell_length_a       8.80491
_cell_length_b       18.30508
_cell_length_c       19.81166
_cell_angle_alpha    102.65203999999999
_cell_angle_beta     90.04273
_cell_angle_gamma    90.02013

_symmetry_space_group_name_H-M    'P 1'
_symmetry_Int_Tables_number       1

loop_
  _symmetry_equiv_pos_as_xyz
  'x,y,z'

loop_
  _atom_site_type_symbol
  _atom_site_label
  _atom_site_symmetry_multiplicity
  _atom_site_fract_x
  _atom_site_fract_y
  _atom_site_fract_z
  _atom_site_occupancy
  Cd  Cd1       1.0  0.10109  0.78895  0.9574699999999999  1.0000
  Cd  Cd2       1.0  0.60073  0.21113999999999994  0.5426  1.0000
  Cd  Cd3       1.0  0.89891  0.21104  0.04253  1.0000
  Cd  Cd4       1.0  0.39927  0.78886  0.45741  1.0000
  Cd  Cd5       1.0  0.0  0.0  0.0  1.0000
  Cd  Cd6       1.0  0.5  0.0  0.5  1.0000
  H   H1        1.0  0.3554  0.0203  0.04773  1.0000
  H   H2        1.0  0.5007  0.9590899999999999  0.06739  1.0000
  H   H3        1.0  0.33922  0.9789499999999999  0.121  1.0000
  H   H4        1.0  0.8964099999999999  0.7553199999999999  0.10098  1.0000
  H   H5        1.0  0.55676  0.99759  0.32955  1.0000
  H   H6        1.0  0.762  0.98738  0.11133  1.0000
  H   H7        1.0  0.6473  0.75977  0.30892  1.0000
  H   H8        1.0  0.75516  0.36749  0.96294  1.0000
  H   H9        1.0  0.85622  0.9798799999999999  0.45199  1.0000
  H   H10       1.0  0.00102  0.041639999999999996  0.43267  1.0000
  H   H11       1.0  0.83865  0.02196  0.37927  1.0000
  H   H12       1.0  0.39582  0.24438  0.39927  1.0000
  H   H13       1.0  0.05723999999999999  0.002840000000000001  0.16925  1.0000
  H   H14       1.0  0.26061  0.012470000000000002  0.38782  1.0000
  H   H15       1.0  0.154  0.24034999999999998  0.18955  1.0000
  H   H16       1.0  0.25475  0.63235  0.53704  1.0000
  H   H17       1.0  0.6446  0.9796999999999999  0.9522800000000001  1.0000
  H   H18       1.0  0.49929  0.04091000000000002  0.93261  1.0000
  H   H19       1.0  0.66077  0.02105000000000002  0.8790000000000001  1.0000
  H   H20       1.0  0.10359  0.24467999999999998  0.89902  1.0000
  H   H21       1.0  0.44324  0.0024100000000000085  0.67046  1.0000
  H   H22       1.0  0.23799999999999996  0.01261000000000003  0.8886700000000001  1.0000
  H   H23       1.0  0.35269  0.24022999999999997  0.69108  1.0000
  H   H24       1.0  0.24482999999999996  0.63251  0.03706  1.0000
  H   H25       1.0  0.14378  0.02011999999999999  0.54801  1.0000
  H   H26       1.0  0.9989799999999999  0.9583499999999999  0.56734  1.0000
  H   H27       1.0  0.16135  0.9780299999999998  0.62073  1.0000
  H   H28       1.0  0.60418  0.75562  0.60073  1.0000
  H   H29       1.0  0.94276  0.99716  0.83075  1.0000
  H   H30       1.0  0.73939  0.98753  0.61218  1.0000
  H   H31       1.0  0.846  0.7596499999999999  0.81046  1.0000
  H   H32       1.0  0.74525  0.36764  0.46296  1.0000
  C   C1        1.0  0.57597  0.8823499999999999  0.34699  1.0000
  C   C2        1.0  0.7826  0.87254  0.1465  1.0000
  C   C3        1.0  0.64921  0.94315  0.24992999999999999  1.0000
  C   C4        1.0  0.71577  0.9398199999999999  0.18312  1.0000
  C   C5        1.0  0.2996  0.9015900000000001  0.02533  1.0000
  C   C6        1.0  0.70816  0.8105699999999998  0.24073  1.0000
  C   C7        1.0  0.85584  0.86973  0.07866  1.0000
  C   C8        1.0  0.90904  0.52407  0.94627  1.0000
  C   C9        1.0  0.37845  0.96979  0.0671  1.0000
  C   C10       1.0  0.78256  0.80828  0.17529  1.0000
  C   C11       1.0  0.64519  0.87851  0.27806  1.0000
  C   C12       1.0  0.0665  0.6440699999999999  0.9622099999999999  1.0000
  C   C13       1.0  0.03423  0.57088  0.9789300000000001  1.0000
  C   C14       1.0  0.87646  0.45265999999999995  0.9718200000000001  1.0000
  C   C15       1.0  0.07727  0.11781  0.15201  1.0000
  C   C16       1.0  0.28254  0.12736  0.35285  1.0000
  C   C17       1.0  0.15004  0.05691  0.24901  1.0000
  C   C18       1.0  0.21623  0.06005000000000001  0.31589  1.0000
  C   C19       1.0  0.79966  0.09850000000000002  0.4750599999999999  1.0000
  C   C20       1.0  0.2117  0.18928999999999999  0.25808  1.0000
  C   C21       1.0  0.35583  0.12996999999999997  0.42068  1.0000
  C   C22       1.0  0.40775  0.4757799999999999  0.55317  1.0000
  C   C23       1.0  0.87885  0.030689999999999995  0.43303  1.0000
  C   C24       1.0  0.28356  0.19171  0.32416  1.0000
  C   C25       1.0  0.1474  0.12154  0.2208  1.0000
  C   C26       1.0  0.56605  0.35596  0.53792  1.0000
  C   C27       1.0  0.53412  0.4292199999999999  0.52132  1.0000
  C   C28       1.0  0.37658  0.54744  0.52801  1.0000
  C   C29       1.0  0.42402  0.11765  0.65301  1.0000
  C   C30       1.0  0.2174  0.12745  0.85351  1.0000
  C   C31       1.0  0.35079  0.05685  0.75007  1.0000
  C   C32       1.0  0.28422  0.06017  0.81689  1.0000
  C   C33       1.0  0.7004  0.09841000000000005  0.97467  1.0000
  C   C34       1.0  0.29183  0.18943  0.75927  1.0000
  C   C35       1.0  0.14416  0.13027  0.92134  1.0000
  C   C36       1.0  0.09096  0.47592999999999996  0.05373000000000001  1.0000
  C   C37       1.0  0.62155  0.030209999999999994  0.93291  1.0000
  C   C38       1.0  0.21743999999999997  0.19172  0.82471  1.0000
  C   C39       1.0  0.35481  0.12148000000000002  0.72194  1.0000
  C   C40       1.0  0.9334899999999999  0.35592  0.03779  1.0000
  C   C41       1.0  0.9657699999999999  0.42912  0.02108  1.0000
  C   C42       1.0  0.12354  0.54734  0.02818  1.0000
  C   C43       1.0  0.92273  0.8821899999999999  0.84799  1.0000
  C   C44       1.0  0.71746  0.8726399999999997  0.64715  1.0000
  C   C45       1.0  0.84996  0.94309  0.75099  1.0000
  C   C46       1.0  0.78376  0.93995  0.68411  1.0000
  C   C47       1.0  0.20034  0.90149  0.52494  1.0000
  C   C48       1.0  0.78829  0.81071  0.74192  1.0000
  C   C49       1.0  0.64416  0.87002  0.57932  1.0000
  C   C50       1.0  0.59224  0.52422  0.44683  1.0000
  C   C51       1.0  0.12114999999999998  0.9693  0.56698  1.0000
  C   C52       1.0  0.71644  0.80828  0.67584  1.0000
  C   C53       1.0  0.85259  0.8784499999999998  0.7792  1.0000
  C   C54       1.0  0.43394  0.64404  0.46208  1.0000
  C   C55       1.0  0.46587  0.5707800000000001  0.47868000000000005  1.0000
  C   C56       1.0  0.62341  0.45256  0.472  1.0000
  O   O1        1.0  0.83968  0.92701  0.05152  1.0000
  O   O2        1.0  0.55989  0.82198  0.36824  1.0000
  O   O3        1.0  0.9307700000000001  0.81108  0.05138  1.0000
  O   O4        1.0  0.53766  0.9480499999999998  0.38129  1.0000
  O   O5        1.0  0.18169  0.9113999999999999  0.9866900000000001  1.0000
  O   O6        1.0  0.18264  0.6813599999999999  0.9936  1.0000
  O   O7        1.0  0.9845799999999999  0.67361  0.9226399999999999  1.0000
  O   O8        1.0  0.84827  0.7445699999999998  0.14469  1.0000
  O   O9        1.0  0.59119  0.00834  0.28288  1.0000
  O   O10       1.0  0.82974  0.53716  0.89912  1.0000
  O   O11       1.0  0.71157  0.00203  0.15874  1.0000
  O   O12       1.0  0.70456  0.7477  0.26324  1.0000
  O   O13       1.0  0.75837  0.41527  0.9420199999999999  1.0000
  O   O14       1.0  0.3411  0.8370699999999999  0.026710000000000005  1.0000
  O   O15       1.0  0.3395  0.07262  0.44764  1.0000
  O   O16       1.0  0.06049000000000001  0.17817  0.13096  1.0000
  O   O17       1.0  0.43137  0.18856999999999993  0.44787  1.0000
  O   O18       1.0  0.03821  0.05208  0.11772  1.0000
  O   O19       1.0  0.68017  0.08833999999999999  0.51242  1.0000
  O   O20       1.0  0.68322  0.31901  0.5074  1.0000
  O   O21       1.0  0.48267  0.32607  0.57663  1.0000
  O   O22       1.0  0.34831  0.25547  0.35547  1.0000
  O   O23       1.0  0.09133  0.99187  0.21594  1.0000
  O   O24       1.0  0.32565  0.46235  0.59918  1.0000
  O   O25       1.0  0.21187  0.9976799999999999  0.34003  1.0000
  O   O26       1.0  0.21161  0.25195  0.23507  1.0000
  O   O27       1.0  0.25937  0.58508  0.55847  1.0000
  O   O28       1.0  0.8418  0.16322999999999996  0.4748899999999999  1.0000
  O   O29       1.0  0.16032  0.07298999999999996  0.94848  1.0000
  O   O30       1.0  0.44011  0.17802  0.63176  1.0000
  O   O31       1.0  0.06922  0.18891999999999998  0.9486199999999999  1.0000
  O   O32       1.0  0.46234  0.05194000000000002  0.61871  1.0000
  O   O33       1.0  0.81831  0.08859  0.01331  1.0000
  O   O34       1.0  0.81736  0.31863  0.0064  1.0000
  O   O35       1.0  0.015419999999999998  0.32638  0.07736  1.0000
  O   O36       1.0  0.15173  0.25543  0.8553099999999999  1.0000
  O   O37       1.0  0.40881  0.99166  0.71712  1.0000
  O   O38       1.0  0.17025  0.46283  0.10088  1.0000
  O   O39       1.0  0.28842  0.99797  0.8412599999999999  1.0000
  O   O40       1.0  0.29543  0.2523  0.73676  1.0000
  O   O41       1.0  0.24163000000000004  0.5847299999999999  0.057980000000000004  1.0000
  O   O42       1.0  0.65889  0.16293  0.97329  1.0000
  O   O43       1.0  0.6605  0.92738  0.55236  1.0000
  O   O44       1.0  0.9395  0.8218299999999997  0.86904  1.0000
  O   O45       1.0  0.56862  0.81143  0.55213  1.0000
  O   O46       1.0  0.9617900000000001  0.94791  0.88228  1.0000
  O   O47       1.0  0.31983  0.91166  0.4875900000000001  1.0000
  O   O48       1.0  0.31677  0.6809899999999999  0.4926  1.0000
  O   O49       1.0  0.51733  0.67392  0.42338000000000003  1.0000
  O   O50       1.0  0.65169  0.74453  0.64454  1.0000
  O   O51       1.0  0.90867  0.008129999999999997  0.78407  1.0000
  O   O52       1.0  0.67434  0.53765  0.40083  1.0000
  O   O53       1.0  0.78813  0.0023100000000000173  0.65997  1.0000
  O   O54       1.0  0.78839  0.74805  0.76493  1.0000
  O   O55       1.0  0.74063  0.41492  0.44154  1.0000
  O   O56       1.0  0.1582  0.83677  0.52511  1.0000
