data_image0
_chemical_formula_structural       Sm4H24C52Br4O24
_chemical_formula_sum              "Sm4 H24 C52 Br4 O24"
_cell_length_a       10.01828
_cell_length_b       12.7289
_cell_length_c       16.15852
_cell_angle_alpha    90.17358000000002
_cell_angle_beta     95.10858999999999
_cell_angle_gamma    89.82577

_space_group_name_H-M_alt    "P 1"
_space_group_IT_number       1

loop_
  _space_group_symop_operation_xyz
  'x, y, z'

loop_
  _atom_site_type_symbol
  _atom_site_label
  _atom_site_symmetry_multiplicity
  _atom_site_fract_x
  _atom_site_fract_y
  _atom_site_fract_z
  _atom_site_occupancy
  Sm  Sm1       1.0  0.30278  0.04632  0.99904  1.0000
  Sm  Sm2       1.0  0.69731  0.54558  0.5022999999999997  1.0000
  Sm  Sm3       1.0  0.6978  0.95435  0.00197  1.0000
  Sm  Sm4       1.0  0.30378000000000005  0.45471000000000006  0.49703  1.0000
  H   H1        1.0  0.37103  0.18292000000000003  0.22792999999999994  1.0000
  H   H2        1.0  0.40745  0.30456  0.34893999999999986  1.0000
  H   H3        1.0  0.84467  0.21278  0.47769  1.0000
  H   H4        1.0  0.00905  0.07367  0.45593  1.0000
  H   H5        1.0  0.9640900000000001  0.9435000000000002  0.33981  1.0000
  H   H6        1.0  0.75835  0.95987  0.24478  1.0000
  H   H7        1.0  0.63171  0.68206  0.27354  1.0000
  H   H8        1.0  0.59622  0.8029300000000003  0.1524  1.0000
  H   H9        1.0  0.16037  0.7138600000000002  0.022399999999999993  1.0000
  H   H10       1.0  0.9937500000000001  0.57677  0.04374999999999998  1.0000
  H   H11       1.0  0.036710000000000007  0.44741000000000003  0.16014  1.0000
  H   H12       1.0  0.24219  0.4616600000000001  0.25552999999999987  1.0000
  H   H13       1.0  0.62819  0.8177100000000003  0.77287  1.0000
  H   H14       1.0  0.59284  0.69685  0.65128  1.0000
  H   H15       1.0  0.15658  0.78951  0.52162  1.0000
  H   H16       1.0  0.9909800000000001  0.92764  0.54408  1.0000
  H   H17       1.0  0.03523999999999997  0.05727  0.6606399999999998  1.0000
  H   H18       1.0  0.24096  0.04101  0.75577  1.0000
  H   H19       1.0  0.36926000000000003  0.31768  0.72583  1.0000
  H   H20       1.0  0.40419  0.19696999999999998  0.8471199999999998  1.0000
  H   H21       1.0  0.83964  0.28622  0.9774499999999998  1.0000
  H   H22       1.0  0.005759999999999973  0.4239300000000001  0.9568099999999998  1.0000
  H   H23       1.0  0.9629900000000002  0.55359  0.84063  1.0000
  H   H24       1.0  0.7584000000000001  0.53866  0.7444899999999998  1.0000
  C   C1        1.0  0.56096  0.10598000000000003  0.2509899999999999  1.0000
  C   C2        1.0  0.46239  0.17849  0.26955  1.0000
  C   C3        1.0  0.48277000000000003  0.24605000000000005  0.3374799999999999  1.0000
  C   C4        1.0  0.6021900000000001  0.2433  0.38940999999999987  1.0000
  C   C5        1.0  0.70188  0.16577000000000003  0.37577  1.0000
  C   C6        1.0  0.82347  0.15617  0.4279  1.0000
  C   C7        1.0  0.91703  0.07738  0.4148999999999999  1.0000
  C   C8        1.0  0.8927800000000001  0.00596  0.34959  1.0000
  C   C9        1.0  0.7763  0.01454  0.29606  1.0000
  C   C10       1.0  0.6792799999999999  0.09458000000000001  0.3064399999999999  1.0000
  C   C11       1.0  0.53876  0.04979000000000001  0.16822  1.0000
  C   C12       1.0  0.62314  0.329  0.45315  1.0000
  C   C13       1.0  0.99514  0.99247  0.95385  1.0000
  C   C14       1.0  0.44198000000000004  0.60566  0.24976  1.0000
  C   C15       1.0  0.54057  0.67779  0.2317  1.0000
  C   C16       1.0  0.52052  0.74527  0.16404  1.0000
  C   C17       1.0  0.40103000000000005  0.7434200000000002  0.11211  1.0000
  C   C18       1.0  0.3011  0.66658  0.12527  1.0000
  C   C19       1.0  0.18002000000000004  0.6577600000000002  0.07256  1.0000
  C   C20       1.0  0.08559  0.58006  0.08508  1.0000
  C   C21       1.0  0.10883  0.50894  0.15051999999999996  1.0000
  C   C22       1.0  0.22519000000000003  0.51636  0.20436  1.0000
  C   C23       1.0  0.3232  0.59522  0.19436999999999993  1.0000
  C   C24       1.0  0.4658200000000001  0.54899  0.33197  1.0000
  C   C25       1.0  0.38272  0.82925  0.04860999999999999  1.0000
  C   C26       1.0  0.007219999999999994  0.4964900000000001  0.54617  1.0000
  C   C27       1.0  0.43903000000000003  0.8954700000000001  0.74919  1.0000
  C   C28       1.0  0.53739  0.8226400000000001  0.73078  1.0000
  C   C29       1.0  0.5174000000000001  0.75531  0.66265  1.0000
  C   C30       1.0  0.39822  0.7580700000000001  0.6103999999999998  1.0000
  C   C31       1.0  0.29871000000000003  0.83593  0.6240199999999998  1.0000
  C   C32       1.0  0.17726000000000003  0.84564  0.57181  1.0000
  C   C33       1.0  0.08314000000000002  0.9240400000000001  0.58504  1.0000
  C   C34       1.0  0.10701  0.99522  0.65058  1.0000
  C   C35       1.0  0.22353  0.98676  0.70411  1.0000
  C   C36       1.0  0.32094  0.90704  0.6935299999999998  1.0000
  C   C37       1.0  0.46118  0.95113  0.83223  1.0000
  C   C38       1.0  0.37721  0.67174  0.54684  1.0000
  C   C39       1.0  0.00707  0.00723  0.05004999999999998  1.0000
  C   C40       1.0  0.55846  0.3945800000000001  0.7500499999999998  1.0000
  C   C41       1.0  0.46012000000000003  0.3221000000000001  0.7678899999999997  1.0000
  C   C42       1.0  0.47985  0.25474  0.8356399999999998  1.0000
  C   C43       1.0  0.59916  0.25683  0.88778  1.0000
  C   C44       1.0  0.69895  0.33379  0.8746999999999998  1.0000
  C   C45       1.0  0.8198800000000002  0.34262  0.92754  1.0000
  C   C46       1.0  0.9141200000000002  0.42063  0.9153299999999998  1.0000
  C   C47       1.0  0.8909500000000001  0.4919  0.8500199999999998  1.0000
  C   C48       1.0  0.77496  0.4842  0.79587  1.0000
  C   C49       1.0  0.6770100000000001  0.40521  0.80563  1.0000
  C   C50       1.0  0.53454  0.4512  0.66778  1.0000
  C   C51       1.0  0.61756  0.17105000000000004  0.95137  1.0000
  C   C52       1.0  0.9932800000000003  0.50838  0.44978  1.0000
  Br  Br1       1.0  0.21346000000000004  0.26947  0.98593  1.0000
  Br  Br2       1.0  0.7931500000000001  0.7667  0.51763  1.0000
  Br  Br3       1.0  0.7853400000000001  0.73071  0.013699999999999997  1.0000
  Br  Br4       1.0  0.20575000000000002  0.23599  0.48207  1.0000
  O   O1        1.0  0.41926  0.04943  0.13408  1.0000
  O   O2        1.0  0.6399099999999999  0.01048  0.13751999999999995  1.0000
  O   O3        1.0  0.74116  0.35947  0.47506  1.0000
  O   O4        1.0  0.52064  0.37528000000000006  0.47925  1.0000
  O   O5        1.0  0.09858  0.01095  0.91666  1.0000
  O   O6        1.0  0.8827  0.96292  0.9202099999999998  1.0000
  O   O7        1.0  0.5854300000000001  0.55035  0.36613  1.0000
  O   O8        1.0  0.36626999999999993  0.50761  0.3625699999999999  1.0000
  O   O9        1.0  0.2657  0.86188  0.02516  1.0000
  O   O10       1.0  0.48716  0.87296  0.02427  1.0000
  O   O11       1.0  0.90518  0.51907  0.5838  1.0000
  O   O12       1.0  0.11899  0.46502000000000004  0.57947  1.0000
  O   O13       1.0  0.5808  0.95138  0.86631  1.0000
  O   O14       1.0  0.35986  0.9897300000000001  0.86308  1.0000
  O   O15       1.0  0.25932000000000005  0.64089  0.5251699999999998  1.0000
  O   O16       1.0  0.47981  0.62537  0.5208199999999997  1.0000
  O   O17       1.0  0.9033700000000001  0.98878  0.08706999999999997  1.0000
  O   O18       1.0  0.1196  0.03697  0.08339999999999997  1.0000
  O   O19       1.0  0.41493  0.4496200000000001  0.6336299999999998  1.0000
  O   O20       1.0  0.63411  0.49253000000000013  0.63716  1.0000
  O   O21       1.0  0.73478  0.13858  0.9747  1.0000
  O   O22       1.0  0.5132700000000001  0.12729  0.97579  1.0000
  O   O23       1.0  0.09559000000000001  0.48622  0.4123999999999999  1.0000
  O   O24       1.0  0.8808300000000001  0.53954  0.41684  1.0000
