data_image0
_chemical_formula_structural       La4Cu4H32C56N8O32
_chemical_formula_sum              "La4 Cu4 H32 C56 N8 O32"
_cell_length_a       9.44196
_cell_length_b       9.75344
_cell_length_c       21.71855
_cell_angle_alpha    90.0
_cell_angle_beta     90.0
_cell_angle_gamma    115.33178

_symmetry_space_group_name_H-M    'P 1'
_symmetry_Int_Tables_number       1

loop_
  _symmetry_equiv_pos_as_xyz
  'x,y,z'

loop_
  _atom_site_type_symbol
  _atom_site_label
  _atom_site_symmetry_multiplicity
  _atom_site_fract_x
  _atom_site_fract_y
  _atom_site_fract_z
  _atom_site_occupancy
  La  La1       1.0  0.11943  0.35804  0.9912200000000001  1.0000
  La  La2       1.0  0.38056000000000006  0.64197  0.49122  1.0000
  La  La3       1.0  0.88057  0.64197  0.00878  1.0000
  La  La4       1.0  0.6194300000000003  0.35803  0.50879  1.0000
  Cu  Cu1       1.0  0.45474000000000003  0.30661  0.85746  1.0000
  Cu  Cu2       1.0  0.04524999999999999  0.69339  0.35746  1.0000
  Cu  Cu3       1.0  0.54526  0.69339  0.14254  1.0000
  Cu  Cu4       1.0  0.9547400000000001  0.30661  0.64254  1.0000
  H   H1        1.0  0.71378  0.22607  0.84384  1.0000
  H   H2        1.0  0.77521  0.01171  0.8766500000000002  1.0000
  H   H3        1.0  0.56699  0.7904  0.93181  1.0000
  H   H4        1.0  0.27505000000000007  0.030090000000000002  0.92668  1.0000
  H   H5        1.0  0.8703200000000002  0.5670900000000002  0.64531  1.0000
  H   H6        1.0  0.8437700000000004  0.7324100000000002  0.7278  1.0000
  H   H7        1.0  0.8923400000000002  0.6846800000000002  0.83865  1.0000
  H   H8        1.0  0.0062700000000000125  0.32781  0.77275  1.0000
  H   H9        1.0  0.7862200000000003  0.77393  0.34384  1.0000
  H   H10       1.0  0.7247800000000001  0.9882900000000001  0.37665000000000004  1.0000
  H   H11       1.0  0.93301  0.2096  0.4318100000000001  1.0000
  H   H12       1.0  0.22495000000000007  0.9699100000000002  0.42667  1.0000
  H   H13       1.0  0.62968  0.43291  0.1453  1.0000
  H   H14       1.0  0.65623  0.26759  0.22780000000000003  1.0000
  H   H15       1.0  0.6076600000000001  0.3153200000000001  0.33864  1.0000
  H   H16       1.0  0.49373  0.67219  0.27275  1.0000
  H   H17       1.0  0.28622  0.77393  0.15617000000000003  1.0000
  H   H18       1.0  0.22478000000000017  0.9882900000000001  0.12336  1.0000
  H   H19       1.0  0.43301000000000006  0.2096  0.06819  1.0000
  H   H20       1.0  0.7249499999999999  0.9699100000000002  0.07333  1.0000
  H   H21       1.0  0.12967  0.43291  0.3547  1.0000
  H   H22       1.0  0.15623  0.26759  0.2722  1.0000
  H   H23       1.0  0.10766000000000006  0.3153200000000001  0.16136  1.0000
  H   H24       1.0  0.99373  0.67219  0.22725  1.0000
  H   H25       1.0  0.21378  0.22607  0.65617  1.0000
  H   H26       1.0  0.27521  0.01171  0.62336  1.0000
  H   H27       1.0  0.06698999999999998  0.7904  0.56819  1.0000
  H   H28       1.0  0.7750500000000001  0.030090000000000002  0.57333  1.0000
  H   H29       1.0  0.3703200000000002  0.5670900000000002  0.8547000000000001  1.0000
  H   H30       1.0  0.3437600000000002  0.7324100000000002  0.77221  1.0000
  H   H31       1.0  0.3923400000000002  0.6846800000000002  0.66136  1.0000
  H   H32       1.0  0.50627  0.32781  0.72725  1.0000
  C   C1        1.0  0.62904  0.13022  0.86929  1.0000
  C   C2        1.0  0.66141  0.0096  0.8868500000000001  1.0000
  C   C3        1.0  0.54686  0.88799  0.91823  1.0000
  C   C4        1.0  0.40501  0.89346  0.93297  1.0000
  C   C5        1.0  0.38269  0.02063  0.9153  1.0000
  C   C6        1.0  0.27675000000000005  0.76417  0.9663500000000002  1.0000
  C   C7        1.0  0.8939100000000002  0.55189  0.69325  1.0000
  C   C8        1.0  0.87823  0.64269  0.7398600000000001  1.0000
  C   C9        1.0  0.90578  0.61698  0.80107  1.0000
  C   C10       1.0  0.9540900000000001  0.50242  0.81318  1.0000
  C   C11       1.0  0.9684100000000001  0.41677  0.76407  1.0000
  C   C12       1.0  0.99373  0.46601  0.8761100000000002  1.0000
  C   C13       1.0  0.5054  0.47731  0.9664300000000001  1.0000
  C   C14       1.0  0.988  0.99238  0.96441  1.0000
  C   C15       1.0  0.8709600000000001  0.86978  0.36929000000000006  1.0000
  C   C16       1.0  0.8385900000000002  0.9904  0.38685  1.0000
  C   C17       1.0  0.9531400000000001  0.11201  0.41822  1.0000
  C   C18       1.0  0.09499000000000003  0.10654000000000002  0.43296000000000007  1.0000
  C   C19       1.0  0.11731000000000014  0.9793700000000001  0.41530000000000006  1.0000
  C   C20       1.0  0.22324  0.23583  0.46635  1.0000
  C   C21       1.0  0.60609  0.44811  0.19325000000000003  1.0000
  C   C22       1.0  0.62177  0.35731  0.23986  1.0000
  C   C23       1.0  0.59422  0.38302  0.30107000000000006  1.0000
  C   C24       1.0  0.54591  0.4975800000000001  0.31318000000000007  1.0000
  C   C25       1.0  0.5315900000000001  0.5832300000000002  0.26406  1.0000
  C   C26       1.0  0.50627  0.53399  0.37611000000000006  1.0000
  C   C27       1.0  0.9946000000000003  0.5226900000000002  0.46643  1.0000
  C   C28       1.0  0.5119900000000001  0.00762  0.46441  1.0000
  C   C29       1.0  0.3709600000000001  0.86978  0.13071  1.0000
  C   C30       1.0  0.33859000000000017  0.9904  0.11315  1.0000
  C   C31       1.0  0.45314000000000004  0.11201  0.08178000000000002  1.0000
  C   C32       1.0  0.59499  0.10654000000000002  0.06704  1.0000
  C   C33       1.0  0.6173100000000002  0.9793700000000001  0.0847  1.0000
  C   C34       1.0  0.7232500000000001  0.23583  0.03365  1.0000
  C   C35       1.0  0.10609  0.44811  0.30675  1.0000
  C   C36       1.0  0.12177000000000003  0.35731  0.26014  1.0000
  C   C37       1.0  0.09422  0.38302  0.19893  1.0000
  C   C38       1.0  0.04591000000000001  0.4975800000000001  0.18682  1.0000
  C   C39       1.0  0.031590000000000076  0.5832300000000002  0.23594000000000004  1.0000
  C   C40       1.0  0.006260000000000023  0.53399  0.12389000000000001  1.0000
  C   C41       1.0  0.4946000000000001  0.5226900000000002  0.03357  1.0000
  C   C42       1.0  0.011989999999999999  0.00762  0.03559  1.0000
  C   C43       1.0  0.12904  0.13022  0.63071  1.0000
  C   C44       1.0  0.16141  0.0096  0.61315  1.0000
  C   C45       1.0  0.04685999999999999  0.88799  0.58178  1.0000
  C   C46       1.0  0.90501  0.89346  0.56704  1.0000
  C   C47       1.0  0.8826900000000001  0.02063  0.5847  1.0000
  C   C48       1.0  0.77675  0.76417  0.53365  1.0000
  C   C49       1.0  0.39391000000000004  0.55189  0.80675  1.0000
  C   C50       1.0  0.37823000000000007  0.64269  0.76014  1.0000
  C   C51       1.0  0.4057799999999999  0.61698  0.69893  1.0000
  C   C52       1.0  0.45408000000000004  0.50242  0.68683  1.0000
  C   C53       1.0  0.46841000000000005  0.41677  0.73594  1.0000
  C   C54       1.0  0.49373  0.46601  0.6239  1.0000
  C   C55       1.0  0.005399999999999989  0.47731  0.53358  1.0000
  C   C56       1.0  0.48800000000000004  0.99238  0.53559  1.0000
  N   N1        1.0  0.49139  0.13653  0.88272  1.0000
  N   N2        1.0  0.93677  0.43813000000000013  0.70511  1.0000
  N   N3        1.0  0.008600000000000017  0.86347  0.38272  1.0000
  N   N4        1.0  0.56323  0.56187  0.20511000000000001  1.0000
  N   N5        1.0  0.5086  0.86347  0.11728000000000001  1.0000
  N   N6        1.0  0.06322  0.56187  0.2949  1.0000
  N   N7        1.0  0.9914  0.13653  0.61729  1.0000
  N   N8        1.0  0.4367700000000002  0.43813000000000013  0.7949000000000002  1.0000
  O   O1        1.0  0.28614000000000006  0.63802  0.96648  1.0000
  O   O2        1.0  0.16929  0.79143  0.99095  1.0000
  O   O3        1.0  0.06555000000000004  0.38212000000000007  0.87872  1.0000
  O   O4        1.0  0.95415  0.51813  0.9237  1.0000
  O   O5        1.0  0.37793  0.38159  0.9421500000000002  1.0000
  O   O6        1.0  0.63611  0.53491  0.93948  1.0000
  O   O7        1.0  0.05081000000000002  0.11272000000000003  0.9330900000000001  1.0000
  O   O8        1.0  0.9070600000000003  0.8603700000000002  0.9427300000000001  1.0000
  O   O9        1.0  0.21385  0.36199  0.46648  1.0000
  O   O10       1.0  0.3307  0.20857000000000003  0.49095  1.0000
  O   O11       1.0  0.43445000000000006  0.61788  0.37871  1.0000
  O   O12       1.0  0.5458500000000001  0.48188000000000003  0.4237000000000001  1.0000
  O   O13       1.0  0.12207000000000005  0.61842  0.44214  1.0000
  O   O14       1.0  0.86389  0.46509  0.4394800000000001  1.0000
  O   O15       1.0  0.44918  0.88728  0.43309000000000003  1.0000
  O   O16       1.0  0.59294  0.13963  0.44273  1.0000
  O   O17       1.0  0.71385  0.36198  0.03352  1.0000
  O   O18       1.0  0.8307000000000001  0.20857000000000003  0.00905  1.0000
  O   O19       1.0  0.9344500000000001  0.61788  0.12129000000000001  1.0000
  O   O20       1.0  0.04585000000000008  0.4818700000000001  0.07631  1.0000
  O   O21       1.0  0.62207  0.61841  0.05786000000000001  1.0000
  O   O22       1.0  0.3638900000000001  0.46509  0.06053  1.0000
  O   O23       1.0  0.9491800000000001  0.88728  0.06692  1.0000
  O   O24       1.0  0.09294000000000001  0.13963  0.05727  1.0000
  O   O25       1.0  0.7861500000000003  0.63801  0.53352  1.0000
  O   O26       1.0  0.66929  0.79143  0.50905  1.0000
  O   O27       1.0  0.56555  0.38212000000000007  0.62129  1.0000
  O   O28       1.0  0.45415000000000005  0.51812  0.57631  1.0000
  O   O29       1.0  0.8779300000000001  0.38158  0.55786  1.0000
  O   O30       1.0  0.13610999999999998  0.53491  0.56053  1.0000
  O   O31       1.0  0.5508200000000002  0.11272000000000003  0.56692  1.0000
  O   O32       1.0  0.40706000000000014  0.8603700000000002  0.55728  1.0000
