data_image0
_chemical_formula_structural       Cd4H36C60N20O16
_chemical_formula_sum              "Cd4 H36 C60 N20 O16"
_cell_length_a       10.06932
_cell_length_b       12.09514
_cell_length_c       18.540770000000002
_cell_angle_alpha    89.90346
_cell_angle_beta     90.05531000000002
_cell_angle_gamma    99.54674

_symmetry_space_group_name_H-M    'P 1'
_symmetry_Int_Tables_number       1

loop_
  _symmetry_equiv_pos_as_xyz
  'x,y,z'

loop_
  _atom_site_type_symbol
  _atom_site_label
  _atom_site_symmetry_multiplicity
  _atom_site_fract_x
  _atom_site_fract_y
  _atom_site_fract_z
  _atom_site_occupancy
  Cd  Cd1       1.0  0.54823  0.66777  0.4472999999999999  1.0000
  Cd  Cd2       1.0  0.95082  0.83198  0.9470899999999999  1.0000
  Cd  Cd3       1.0  0.45176  0.33224  0.5527  1.0000
  Cd  Cd4       1.0  0.04918  0.16803  0.05291  1.0000
  H   H1        1.0  0.42667000000000005  0.8177  0.94324  1.0000
  H   H2        1.0  0.64881  0.6865999999999998  0.77505  1.0000
  H   H3        1.0  0.22977000000000003  0.71551  0.74211  1.0000
  H   H4        1.0  0.26176  0.46057  0.74234  1.0000
  H   H5        1.0  0.42775  0.46352  0.77536  1.0000
  H   H6        1.0  0.36332  0.36441999999999997  0.7070799999999999  1.0000
  H   H7        1.0  0.51265  0.8896199999999997  0.70165  1.0000
  H   H8        1.0  0.69766  0.10611  0.54449  1.0000
  H   H9        1.0  0.68189  0.9414699999999999  0.45602  1.0000
  H   H10       1.0  0.07330999999999999  0.68385  0.44478999999999996  1.0000
  H   H11       1.0  0.8505000000000001  0.81322  0.27549  1.0000
  H   H12       1.0  0.26937  0.78377  0.24315  1.0000
  H   H13       1.0  0.23773  0.03829  0.24271999999999996  1.0000
  H   H14       1.0  0.07194  0.03518999999999999  0.27585  1.0000
  H   H15       1.0  0.136  0.13468  0.20763  1.0000
  H   H16       1.0  0.98712  0.6096399999999998  0.20188999999999996  1.0000
  H   H17       1.0  0.8023100000000001  0.39379  0.04455  1.0000
  H   H18       1.0  0.81826  0.5589  0.95603  1.0000
  H   H19       1.0  0.57332  0.18229999999999996  0.05676  1.0000
  H   H20       1.0  0.35118  0.31341  0.22494999999999998  1.0000
  H   H21       1.0  0.77023  0.2845  0.25789  1.0000
  H   H22       1.0  0.73823  0.53943  0.25766  1.0000
  H   H23       1.0  0.5722399999999999  0.5364799999999998  0.22464  1.0000
  H   H24       1.0  0.6366799999999999  0.6355799999999999  0.29292  1.0000
  H   H25       1.0  0.48734  0.11038  0.29835  1.0000
  H   H26       1.0  0.30232999999999993  0.8938999999999999  0.45550999999999997  1.0000
  H   H27       1.0  0.31811  0.05853999999999999  0.54398  1.0000
  H   H28       1.0  0.92668  0.31615  0.55521  1.0000
  H   H29       1.0  0.14949000000000004  0.18679  0.72451  1.0000
  H   H30       1.0  0.73062  0.21624  0.75685  1.0000
  H   H31       1.0  0.76226  0.9617099999999998  0.75728  1.0000
  H   H32       1.0  0.92805  0.96481  0.7241499999999998  1.0000
  H   H33       1.0  0.8639900000000001  0.86532  0.79237  1.0000
  H   H34       1.0  0.012869999999999979  0.3903699999999999  0.79811  1.0000
  H   H35       1.0  0.19768000000000005  0.60622  0.9554500000000001  1.0000
  H   H36       1.0  0.18173  0.44111  0.04397  1.0000
  C   C1        1.0  0.67792  0.7754699999999999  0.9081199999999999  1.0000
  C   C2        1.0  0.18308999999999997  0.7960599999999999  0.8729199999999999  1.0000
  C   C3        1.0  0.43001  0.78347  0.88915  1.0000
  C   C4        1.0  0.5511000000000003  0.75568  0.8633999999999998  1.0000
  C   C5        1.0  0.31437  0.76834  0.84575  1.0000
  C   C6        1.0  0.5555499999999999  0.7105599999999999  0.7941499999999999  1.0000
  C   C7        1.0  0.31969  0.7259199999999999  0.7756399999999999  1.0000
  C   C8        1.0  0.44016000000000005  0.69693  0.75132  1.0000
  C   C9        1.0  0.3642100000000001  0.44978  0.72699  1.0000
  C   C10       1.0  0.41708  0.53165  0.67047  1.0000
  C   C11       1.0  0.4956699999999999  0.6921199999999998  0.61693  1.0000
  C   C12       1.0  0.54627  0.8097999999999999  0.59946  1.0000
  C   C13       1.0  0.55219  0.90083  0.64704  1.0000
  C   C14       1.0  0.65447  0.02057  0.56001  1.0000
  C   C15       1.0  0.6458500000000003  0.93113  0.51147  1.0000
  C   C16       1.0  0.8219000000000001  0.72468  0.40952  1.0000
  C   C17       1.0  0.31581  0.70344  0.37451  1.0000
  C   C18       1.0  0.06956  0.71736  0.39047  1.0000
  C   C19       1.0  0.9484  0.74502  0.36458  1.0000
  C   C20       1.0  0.1849  0.73161  0.34699  1.0000
  C   C21       1.0  0.9437199999999999  0.7894399999999998  0.295  1.0000
  C   C22       1.0  0.17947999999999997  0.7735199999999999  0.27664  1.0000
  C   C23       1.0  0.05898  0.80251  0.25207  1.0000
  C   C24       1.0  0.13521  0.04920999999999999  0.22744000000000003  1.0000
  C   C25       1.0  0.08209999999999999  0.96776  0.17087  1.0000
  C   C26       1.0  0.004080000000000043  0.80748  0.11724  1.0000
  C   C27       1.0  0.95364  0.6899  0.09965  1.0000
  C   C28       1.0  0.94768  0.59862  0.14722  1.0000
  C   C29       1.0  0.8455  0.47927  0.06009  1.0000
  C   C30       1.0  0.8541899999999999  0.56897  0.01153  1.0000
  C   C31       1.0  0.32207  0.22452999999999998  0.09188  1.0000
  C   C32       1.0  0.8169  0.20394  0.12708  1.0000
  C   C33       1.0  0.56998  0.21653  0.11085  1.0000
  C   C34       1.0  0.44889000000000007  0.24432  0.1366  1.0000
  C   C35       1.0  0.68562  0.23165999999999995  0.15424999999999997  1.0000
  C   C36       1.0  0.44444  0.28944  0.20585  1.0000
  C   C37       1.0  0.6803  0.27408  0.22435999999999998  1.0000
  C   C38       1.0  0.5598299999999999  0.30307999999999996  0.24867999999999998  1.0000
  C   C39       1.0  0.63578  0.55022  0.27301  1.0000
  C   C40       1.0  0.58292  0.46834999999999993  0.32953  1.0000
  C   C41       1.0  0.5043199999999999  0.30787999999999993  0.38307  1.0000
  C   C42       1.0  0.45372000000000007  0.19021  0.40054  1.0000
  C   C43       1.0  0.4478  0.09917  0.35296  1.0000
  C   C44       1.0  0.34552  0.9794299999999999  0.43998999999999994  1.0000
  C   C45       1.0  0.35414  0.06888  0.48852999999999996  1.0000
  C   C46       1.0  0.17809  0.27532  0.59048  1.0000
  C   C47       1.0  0.68418  0.29656  0.62549  1.0000
  C   C48       1.0  0.93043  0.28263999999999995  0.60953  1.0000
  C   C49       1.0  0.05159  0.25498  0.63542  1.0000
  C   C50       1.0  0.8150900000000001  0.26839  0.65301  1.0000
  C   C51       1.0  0.05626999999999999  0.21055999999999994  0.705  1.0000
  C   C52       1.0  0.8205200000000001  0.22647999999999996  0.72336  1.0000
  C   C53       1.0  0.9410200000000001  0.1975  0.74793  1.0000
  C   C54       1.0  0.86478  0.9507899999999999  0.77256  1.0000
  C   C55       1.0  0.91789  0.032249999999999994  0.8291299999999998  1.0000
  C   C56       1.0  0.99591  0.19251999999999997  0.8827599999999999  1.0000
  C   C57       1.0  0.04635  0.3101  0.90035  1.0000
  C   C58       1.0  0.05231999999999999  0.40138  0.85278  1.0000
  C   C59       1.0  0.1545  0.52073  0.93991  1.0000
  C   C60       1.0  0.1458  0.4310399999999999  0.98847  1.0000
  N   N1        1.0  0.44655  0.6456  0.68153  1.0000
  N   N2        1.0  0.44525000000000003  0.51087  0.60227  1.0000
  N   N3        1.0  0.49433  0.61005  0.56925  1.0000
  N   N4        1.0  0.59204  0.8271399999999999  0.53119  1.0000
  N   N5        1.0  0.60646  0.00552  0.62751  1.0000
  N   N6        1.0  0.05265  0.85375  0.18201  1.0000
  N   N7        1.0  0.05429999999999997  0.9888199999999998  0.10256  1.0000
  N   N8        1.0  0.005669999999999996  0.8897  0.06945  1.0000
  N   N9        1.0  0.9079400000000001  0.67287  0.03132  1.0000
  N   N10       1.0  0.89341  0.49403999999999987  0.12764  1.0000
  N   N11       1.0  0.55345  0.3544  0.31847  1.0000
  N   N12       1.0  0.55474  0.48912999999999995  0.39773  1.0000
  N   N13       1.0  0.50567  0.38995  0.43075  1.0000
  N   N14       1.0  0.40795  0.17286  0.46880999999999995  1.0000
  N   N15       1.0  0.39354  0.99448  0.37249  1.0000
  N   N16       1.0  0.94734  0.14625999999999997  0.81799  1.0000
  N   N17       1.0  0.9456900000000001  0.011179999999999999  0.8974399999999999  1.0000
  N   N18       1.0  0.99432  0.1103  0.9305599999999999  1.0000
  N   N19       1.0  0.09206  0.3271299999999999  0.96868  1.0000
  N   N20       1.0  0.10657999999999998  0.50596  0.87236  1.0000
  O   O1        1.0  0.68046  0.8279  0.96651  1.0000
  O   O2        1.0  0.78012  0.73856  0.8800699999999999  1.0000
  O   O3        1.0  0.16679  0.79381  0.94201  1.0000
  O   O4        1.0  0.09696999999999999  0.8181799999999998  0.82833  1.0000
  O   O5        1.0  0.8197500000000001  0.6715599999999998  0.46773  1.0000
  O   O6        1.0  0.71946  0.76166  0.38166  1.0000
  O   O7        1.0  0.33263  0.7060099999999999  0.44355999999999995  1.0000
  O   O8        1.0  0.40158  0.68066  0.33001  1.0000
  O   O9        1.0  0.31953  0.1721  0.03348999999999999  1.0000
  O   O10       1.0  0.21987  0.26144  0.11993  1.0000
  O   O11       1.0  0.83321  0.20619999999999997  0.05798999999999999  1.0000
  O   O12       1.0  0.90302  0.18182999999999996  0.17167  1.0000
  O   O13       1.0  0.18025000000000002  0.32844999999999996  0.53227  1.0000
  O   O14       1.0  0.28054  0.23835  0.61834  1.0000
  O   O15       1.0  0.66737  0.29399  0.55644  1.0000
  O   O16       1.0  0.59841  0.31934  0.66999  1.0000
