data_image0
_chemical_formula_structural       Co2H36C50N14O8
_chemical_formula_sum              "Co2 H36 C50 N14 O8"
_cell_length_a       9.39514
_cell_length_b       11.30951
_cell_length_c       13.62272
_cell_angle_alpha    69.32814000000002
_cell_angle_beta     71.37789000000001
_cell_angle_gamma    82.58253

_symmetry_space_group_name_H-M    'P 1'
_symmetry_Int_Tables_number       1

loop_
  _symmetry_equiv_pos_as_xyz
  'x,y,z'

loop_
  _atom_site_type_symbol
  _atom_site_label
  _atom_site_symmetry_multiplicity
  _atom_site_fract_x
  _atom_site_fract_y
  _atom_site_fract_z
  _atom_site_occupancy
  Co  Co1       1.0  0.4985100000000001  0.49962999999999996  0.50078  1.0000
  Co  Co2       1.0  0.9998499999999999  0.99986  5.9999999999999995e-05  1.0000
  H   H1        1.0  0.5837299999999999  0.5573999999999999  0.2362  1.0000
  H   H2        1.0  0.43965  0.23455  0.72687  1.0000
  H   H3        1.0  0.20456999999999995  0.35161  0.28612  1.0000
  H   H4        1.0  0.6331199999999998  0.02708999999999999  0.73288  1.0000
  H   H5        1.0  0.21411  0.35887  0.48682  1.0000
  H   H6        1.0  0.2512500000000001  0.09447000000000004  0.7453899999999999  1.0000
  H   H7        1.0  0.27257000000000003  0.71821  0.7417699999999999  1.0000
  H   H8        1.0  0.95703  0.4513899999999998  0.62391  1.0000
  H   H9        1.0  0.7712699999999999  0.31464  0.41978999999999994  1.0000
  H   H10       1.0  0.07957000000000007  0.7311300000000001  0.9387499999999998  1.0000
  H   H11       1.0  0.76651  0.10262999999999997  0.86937  1.0000
  H   H12       1.0  0.7561500000000001  0.29067000000000004  0.7022999999999999  1.0000
  H   H13       1.0  0.8641300000000001  0.9501599999999998  0.6986799999999999  1.0000
  H   H14       1.0  0.47144  0.21451999999999996  0.37125  1.0000
  H   H15       1.0  0.28891000000000006  0.14252  0.55523  1.0000
  H   H16       1.0  0.77247  0.5133099999999998  0.89721  1.0000
  H   H17       1.0  0.6906499999999998  0.4808799999999999  0.09653  1.0000
  H   H18       1.0  0.08457999999999997  0.8236499999999999  0.64077  1.0000
  H   H19       1.0  0.41558999999999996  0.44245999999999996  0.76462  1.0000
  H   H20       1.0  0.55985  0.7647999999999998  0.27381  1.0000
  H   H21       1.0  0.79536  0.6482299999999998  0.71353  1.0000
  H   H22       1.0  0.36699999999999994  0.97271  0.26723  1.0000
  H   H23       1.0  0.7846099999999997  0.64074  0.51316  1.0000
  H   H24       1.0  0.7486399999999998  0.90551  0.25469  1.0000
  H   H25       1.0  0.7274799999999997  0.28180999999999995  0.25823  1.0000
  H   H26       1.0  0.042299999999999977  0.54857  0.37644  1.0000
  H   H27       1.0  0.22758000000000003  0.68573  0.58052  1.0000
  H   H28       1.0  0.92044  0.2688  0.06128999999999998  1.0000
  H   H29       1.0  0.23321000000000003  0.89699  0.13071  1.0000
  H   H30       1.0  0.24351000000000017  0.70905  0.29783  1.0000
  H   H31       1.0  0.13561  0.050199999999999995  0.30134  1.0000
  H   H32       1.0  0.5285199999999998  0.7854999999999998  0.62878  1.0000
  H   H33       1.0  0.7110299999999998  0.85749  0.4447899999999999  1.0000
  H   H34       1.0  0.2275  0.4867699999999999  0.10296999999999999  1.0000
  H   H35       1.0  0.30932  0.5192299999999999  0.9036799999999999  1.0000
  H   H36       1.0  0.9151499999999999  0.17680000000000004  0.35927  1.0000
  C   C1        1.0  0.06640000000000013  0.24999000000000007  0.8404499999999998  1.0000
  C   C2        1.0  0.06866999999999998  0.35751  0.74819  1.0000
  C   C3        1.0  0.18597  0.21855  0.89982  1.0000
  C   C4        1.0  0.87198  0.07237  0.53327  1.0000
  C   C5        1.0  0.3974  0.9594599999999999  0.60421  1.0000
  C   C6        1.0  0.48502999999999996  0.49903999999999993  0.27963  1.0000
  C   C7        1.0  0.5361599999999999  0.21850000000000006  0.6630599999999999  1.0000
  C   C8        1.0  0.18609000000000006  0.45861  0.69764  1.0000
  C   C9        1.0  0.28364000000000006  0.39344  0.30655  1.0000
  C   C10       1.0  0.45421999999999996  0.47959999999999997  0.11228  1.0000
  C   C11       1.0  0.63305  0.11618999999999997  0.66805  1.0000
  C   C12       1.0  0.2899300000000001  0.3972899999999999  0.40483  1.0000
  C   C13       1.0  0.22751000000000005  0.99497  0.77317  1.0000
  C   C14       1.0  0.24251000000000003  0.7967699999999999  0.7729699999999999  1.0000
  C   C15       1.0  0.9569099999999998  0.37048  0.6968599999999999  1.0000
  C   C16       1.0  0.7072699999999998  0.26439  0.50378  1.0000
  C   C17       1.0  0.14498000000000005  0.80518  0.8698099999999998  1.0000
  C   C18       1.0  0.8498000000000001  0.17667000000000002  0.83202  1.0000
  C   C19       1.0  0.8453900000000001  0.28057  0.7396599999999999  1.0000
  C   C20       1.0  0.9213599999999998  0.9719299999999998  0.61139  1.0000
  C   C21       1.0  0.4853100000000002  0.12125000000000004  0.4278299999999999  1.0000
  C   C22       1.0  0.38225999999999993  0.08065999999999997  0.53183  1.0000
  C   C23       1.0  0.6533199999999998  0.50939  0.9419099999999999  1.0000
  C   C24       1.0  0.60746  0.48928  0.05427  1.0000
  C   C25       1.0  0.047830000000000004  0.9000800000000001  0.57828  1.0000
  C   C26       1.0  0.9328899999999999  0.7498799999999999  0.15988  1.0000
  C   C27       1.0  0.93041  0.6424599999999999  0.2523  1.0000
  C   C28       1.0  0.81336  0.78146  0.10039999999999999  1.0000
  C   C29       1.0  0.12770999999999996  0.92801  0.46676  1.0000
  C   C30       1.0  0.60255  0.04055999999999999  0.39583  1.0000
  C   C31       1.0  0.5142699999999998  0.50081  0.72095  1.0000
  C   C32       1.0  0.46327  0.7810999999999999  0.33746  1.0000
  C   C33       1.0  0.8128  0.54136  0.30296  1.0000
  C   C34       1.0  0.7159799999999996  0.6063899999999999  0.6934  1.0000
  C   C35       1.0  0.54575  0.52044  0.88793  1.0000
  C   C36       1.0  0.3667000000000001  0.8836499999999999  0.33218999999999993  1.0000
  C   C37       1.0  0.7091000000000001  0.6024299999999998  0.59528  1.0000
  C   C38       1.0  0.77239  0.00501  0.2269  1.0000
  C   C39       1.0  0.7574899999999998  0.20321999999999998  0.22705  1.0000
  C   C40       1.0  0.04241000000000002  0.6294299999999998  0.30346  1.0000
  C   C41       1.0  0.29182  0.7357700000000001  0.49655  1.0000
  C   C42       1.0  0.855  0.19477  0.13023  1.0000
  C   C43       1.0  0.14976  0.82307  0.16815999999999998  1.0000
  C   C44       1.0  0.15412999999999996  0.7192199999999999  0.26056  1.0000
  C   C45       1.0  0.07836  0.02846  0.38863  1.0000
  C   C46       1.0  0.5146299999999999  0.8787699999999999  0.5722  1.0000
  C   C47       1.0  0.6176800000000001  0.91935  0.46819999999999995  1.0000
  C   C48       1.0  0.34665999999999997  0.49067999999999995  0.0583  1.0000
  C   C49       1.0  0.39250999999999997  0.5108100000000001  0.9459499999999998  1.0000
  C   C50       1.0  0.9518899999999998  0.10034000000000001  0.42174  1.0000
  N   N1        1.0  0.9590699999999998  0.16150000000000006  0.8798699999999999  1.0000
  N   N2        1.0  0.29454000000000014  0.9188899999999999  0.71134  1.0000
  N   N3        1.0  0.74277  0.14585  0.56631  1.0000
  N   N4        1.0  0.4086600000000001  0.4584099999999999  0.22723  1.0000
  N   N5        1.0  0.58369  0.30983  0.5603  1.0000
  N   N6        1.0  0.41586999999999985  0.46249999999999997  0.38695  1.0000
  N   N7        1.0  0.13691000000000003  0.9285999999999999  0.86933  1.0000
  N   N8        1.0  0.04043000000000005  0.8382399999999998  0.12034  1.0000
  N   N9        1.0  0.7054199999999999  0.08112  0.28871  1.0000
  N   N10       1.0  0.2567700000000001  0.8543399999999999  0.4338299999999999  1.0000
  N   N11       1.0  0.5911  0.5415000000000001  0.77301  1.0000
  N   N12       1.0  0.41528999999999994  0.68996  0.44029  1.0000
  N   N13       1.0  0.5829199999999999  0.53725  0.61358  1.0000
  N   N14       1.0  0.8630199999999999  0.07133  0.13074  1.0000
  O   O1        1.0  0.2948899999999998  0.43985  0.61896  1.0000
  O   O2        1.0  0.17035  0.11224000000000002  0.97925  1.0000
  O   O3        1.0  0.29113  0.29371  0.86767  1.0000
  O   O4        1.0  0.16171999999999995  0.55357  0.72873  1.0000
  O   O5        1.0  0.7036599999999998  0.5600600000000001  0.3814699999999999  1.0000
  O   O6        1.0  0.82921  0.8877099999999999  0.02087  1.0000
  O   O7        1.0  0.7080099999999999  0.70649  0.13259  1.0000
  O   O8        1.0  0.83748  0.44646  0.2717  1.0000
