data_image0
_chemical_formula_structural       Cd4H28C48N12O24
_chemical_formula_sum              "Cd4 H28 C48 N12 O24"
_cell_length_a       7.52062
_cell_length_b       14.27539
_cell_length_c       21.249009999999995
_cell_angle_alpha    89.83367
_cell_angle_beta     90.03775
_cell_angle_gamma    90.74504999999999

_space_group_name_H-M_alt    "P 1"
_space_group_IT_number       1

loop_
  _space_group_symop_operation_xyz
  'x, y, z'

loop_
  _atom_site_type_symbol
  _atom_site_label
  _atom_site_symmetry_multiplicity
  _atom_site_fract_x
  _atom_site_fract_y
  _atom_site_fract_z
  _atom_site_occupancy
  Cd  Cd1       1.0  0.47697  0.10999  0.06674  1.0000
  Cd  Cd2       1.0  0.48398  0.8934599999999998  0.93376  1.0000
  Cd  Cd3       1.0  0.48104999999999987  0.60859  0.43390000000000006  1.0000
  Cd  Cd4       1.0  0.49709  0.3914199999999999  0.5658  1.0000
  H   H1        1.0  0.8043  0.22656999999999994  0.01848  1.0000
  H   H2        1.0  0.8109499999999997  0.97308  0.11452999999999999  1.0000
  H   H3        1.0  0.81181  0.7681899999999999  0.97659  1.0000
  H   H4        1.0  0.8172999999999998  0.03201  0.89378  1.0000
  H   H5        1.0  0.14875999999999995  0.72741  0.4845900000000001  1.0000
  H   H6        1.0  0.15176  0.4760899999999999  0.38722  1.0000
  H   H7        1.0  0.16411999999999993  0.27158  0.51555  1.0000
  H   H8        1.0  0.17211999999999997  0.52254  0.61407  1.0000
  H   H9        1.0  0.15248999999999993  0.7661499999999998  0.97276  1.0000
  H   H10       1.0  0.15704  0.032980000000000016  0.89489  1.0000
  H   H11       1.0  0.14486  0.22961  0.01643  1.0000
  H   H12       1.0  0.1507  0.97701  0.11375  1.0000
  H   H13       1.0  0.82342  0.27036  0.51831  1.0000
  H   H14       1.0  0.8324399999999997  0.52449  0.61232  1.0000
  H   H15       1.0  0.8083599999999999  0.72666  0.48154  1.0000
  H   H16       1.0  0.81191  0.47386  0.38520000000000004  1.0000
  H   H17       1.0  0.5932  0.18442  0.39975  1.0000
  H   H18       1.0  0.4307499999999999  0.44596999999999987  0.31696  1.0000
  H   H19       1.0  0.43541  0.37195  0.21072000000000002  1.0000
  H   H20       1.0  0.3917599999999999  0.81492  0.60102  1.0000
  H   H21       1.0  0.56596  0.55567  0.68367  1.0000
  H   H22       1.0  0.5590599999999998  0.62892  0.78983  1.0000
  H   H23       1.0  0.5844299999999998  0.68138  0.10124  1.0000
  H   H24       1.0  0.43314999999999987  0.94588  0.18148  1.0000
  H   H25       1.0  0.4370699999999999  0.87385  0.28831  1.0000
  H   H26       1.0  0.5988499999999998  0.31906  0.8982600000000001  1.0000
  H   H27       1.0  0.4132299999999999  0.05715  0.8196500000000001  1.0000
  H   H28       1.0  0.41888999999999993  0.12825  0.71304  1.0000
  C   C1        1.0  0.8834499999999997  0.17075  0.03892  1.0000
  C   C2        1.0  0.8865299999999998  0.029739999999999996  0.09228  1.0000
  C   C3        1.0  0.8903999999999997  0.82662  0.95795  1.0000
  C   C4        1.0  0.8930799999999998  0.97376  0.9126600000000001  1.0000
  C   C5        1.0  0.07177  0.6712399999999998  0.46255000000000007  1.0000
  C   C6        1.0  0.07341  0.53118  0.40859000000000006  1.0000
  C   C7        1.0  0.08875999999999999  0.32752999999999993  0.53737  1.0000
  C   C8        1.0  0.09358  0.4674899999999999  0.59145  1.0000
  C   C9        1.0  0.07609999999999997  0.82593  0.95648  1.0000
  C   C10       1.0  0.07858  0.97393  0.91252  1.0000
  C   C11       1.0  0.06909999999999998  0.17243999999999995  0.03807  1.0000
  C   C12       1.0  0.07219  0.03188  0.09194  1.0000
  C   C13       1.0  0.9031199999999998  0.32708  0.53848  1.0000
  C   C14       1.0  0.9080699999999998  0.4681  0.59131  1.0000
  C   C15       1.0  0.88619  0.67039  0.46126  1.0000
  C   C16       1.0  0.8878099999999998  0.52997  0.40774  1.0000
  C   C17       1.0  0.51958  0.23815  0.24477  1.0000
  C   C18       1.0  0.5706  0.18811999999999995  0.29867  1.0000
  C   C19       1.0  0.55943  0.22584  0.35857  1.0000
  C   C20       1.0  0.50511  0.31892  0.36553  1.0000
  C   C21       1.0  0.4653299999999999  0.37253  0.31202  1.0000
  C   C22       1.0  0.47004  0.33168  0.2524  1.0000
  C   C23       1.0  0.50185  0.19216999999999998  0.18166  1.0000
  C   C24       1.0  0.48976  0.35795  0.43055  1.0000
  C   C25       1.0  0.4642999999999999  0.76141  0.7562700000000001  1.0000
  C   C26       1.0  0.4138699999999999  0.8112099999999999  0.70217  1.0000
  C   C27       1.0  0.4264999999999999  0.7736799999999999  0.64218  1.0000
  C   C28       1.0  0.4833599999999999  0.68114  0.63523  1.0000
  C   C29       1.0  0.52712  0.62845  0.68875  1.0000
  C   C30       1.0  0.51991  0.66882  0.74844  1.0000
  C   C31       1.0  0.47177  0.8060299999999998  0.8201899999999999  1.0000
  C   C32       1.0  0.49691999999999986  0.6405199999999998  0.57059  1.0000
  C   C33       1.0  0.51658  0.73854  0.25595  1.0000
  C   C34       1.0  0.5637699999999998  0.68717  0.20232000000000003  1.0000
  C   C35       1.0  0.5525000000000001  0.7239  0.14193  1.0000
  C   C36       1.0  0.50265  0.81752  0.13391  1.0000
  C   C37       1.0  0.4649999999999999  0.87213  0.18696  1.0000
  C   C38       1.0  0.46915  0.8323  0.24708000000000002  1.0000
  C   C39       1.0  0.5039099999999997  0.69473  0.32028  1.0000
  C   C40       1.0  0.4914099999999999  0.85666  0.06854  1.0000
  C   C41       1.0  0.51944  0.26215  0.74413  1.0000
  C   C42       1.0  0.5754299999999998  0.31273  0.79741  1.0000
  C   C43       1.0  0.5615699999999998  0.27653999999999995  0.85793  1.0000
  C   C44       1.0  0.5001  0.18423  0.86664  1.0000
  C   C45       1.0  0.45383999999999997  0.13018  0.81388  1.0000
  C   C46       1.0  0.4603699999999999  0.16959  0.7536  1.0000
  C   C47       1.0  0.5082499999999999  0.30569  0.67966  1.0000
  C   C48       1.0  0.48509999999999986  0.14703  0.93247  1.0000
  N   N1        1.0  0.79369  0.09832  0.06472  1.0000
  N   N2        1.0  0.8004799999999997  0.9011199999999998  0.93681  1.0000
  N   N3        1.0  0.16379999999999995  0.6008499999999999  0.43706  1.0000
  N   N4        1.0  0.18244999999999995  0.39845  0.56307  1.0000
  N   N5        1.0  0.16860999999999995  0.9006199999999998  0.93528  1.0000
  N   N6        1.0  0.16199999999999995  0.10225  0.06372  1.0000
  N   N7        1.0  0.81437  0.39859999999999995  0.56399  1.0000
  N   N8        1.0  0.7957199999999998  0.59874  0.43508  1.0000
  N   N9        1.0  0.64956  0.09448  0.29308  1.0000
  N   N10       1.0  0.33539  0.90492  0.70719  1.0000
  N   N11       1.0  0.6419199999999998  0.59337  0.20846  1.0000
  N   N12       1.0  0.6629699999999997  0.40533  0.79119  1.0000
  O   O1        1.0  0.45534  0.10587  0.18045  1.0000
  O   O2        1.0  0.52807  0.24182  0.13271  1.0000
  O   O3        1.0  0.7770499999999998  0.08742999999999998  0.25648  1.0000
  O   O4        1.0  0.3999  0.96775  0.67338  1.0000
  O   O5        1.0  0.58036  0.52986  0.17481  1.0000
  O   O6        1.0  0.6158399999999998  0.4678299999999999  0.8279  1.0000
  O   O7        1.0  0.50923  0.89371  0.82264  1.0000
  O   O8        1.0  0.4458999999999999  0.75474  0.8682700000000001  1.0000
  O   O9        1.0  0.20589  0.9127  0.74288  1.0000
  O   O10       1.0  0.5889699999999999  0.03128  0.3273  1.0000
  O   O11       1.0  0.46544999999999986  0.39215  0.67627  1.0000
  O   O12       1.0  0.5362899999999998  0.25449  0.63208  1.0000
  O   O13       1.0  0.7840399999999997  0.41274  0.75175  1.0000
  O   O14       1.0  0.4634399999999999  0.6073199999999997  0.32358  1.0000
  O   O15       1.0  0.5279699999999998  0.7461599999999999  0.36816  1.0000
  O   O16       1.0  0.7703199999999998  0.58664  0.24471999999999997  1.0000
  O   O17       1.0  0.45481  0.44418  0.43851  1.0000
  O   O18       1.0  0.50995  0.30085  0.47642  1.0000
  O   O19       1.0  0.5441599999999998  0.55583  0.56423  1.0000
  O   O20       1.0  0.46329000000000004  0.69478  0.52407  1.0000
  O   O21       1.0  0.4718899999999999  0.9443299999999998  0.06021  1.0000
  O   O22       1.0  0.50087  0.79923  0.02261  1.0000
  O   O23       1.0  0.45571  0.059979999999999985  0.9424400000000002  1.0000
  O   O24       1.0  0.50039  0.20562  0.97758  1.0000
