data_image0
_chemical_formula_structural       In2H32C56O20
_chemical_formula_sum              "In2 H32 C56 O20"
_cell_length_a       13.91846
_cell_length_b       13.90073
_cell_length_c       15.29199
_cell_angle_alpha    89.94353
_cell_angle_beta     90.05398
_cell_angle_gamma    109.78822

_space_group_name_H-M_alt    "P 1"
_space_group_IT_number       1

loop_
  _space_group_symop_operation_xyz
  'x, y, z'

loop_
  _atom_site_type_symbol
  _atom_site_label
  _atom_site_symmetry_multiplicity
  _atom_site_fract_x
  _atom_site_fract_y
  _atom_site_fract_z
  _atom_site_occupancy
  In  In1       1.0  0.77467  0.43212000000000006  0.86549  1.0000
  In  In2       1.0  0.56723  0.2256  0.36516  1.0000
  H   H1        1.0  0.7149800000000001  0.9852600000000002  0.25266  1.0000
  H   H2        1.0  0.8661700000000001  0.7166600000000001  0.66438  1.0000
  H   H3        1.0  0.79596  0.73923  0.0059  1.0000
  H   H4        1.0  0.63933  0.51052  0.42989  1.0000
  H   H5        1.0  0.84333  0.8009500000000003  0.52257  1.0000
  H   H6        1.0  0.65725  0.42994  0.5730500000000002  1.0000
  H   H7        1.0  0.48922000000000004  0.53525  0.9687  1.0000
  H   H8        1.0  0.5577700000000002  0.90774  0.49766  1.0000
  H   H9        1.0  0.42112  0.66718  0.0312  1.0000
  H   H10       1.0  0.62352  0.06744  0.85141  1.0000
  H   H11       1.0  0.7283800000000004  0.8745700000000002  0.06292  1.0000
  H   H12       1.0  0.56531  0.89007  0.9158100000000002  1.0000
  H   H13       1.0  0.61583  0.75541  0.51171  1.0000
  H   H14       1.0  0.77098  0.8305000000000002  0.26432  1.0000
  H   H15       1.0  0.57678  0.01938  0.17406  1.0000
  H   H16       1.0  0.6414  0.19439  0.11057  1.0000
  H   H17       1.0  0.014219999999999988  0.2842  0.75267  1.0000
  H   H18       1.0  0.28227  0.13379  0.16308  1.0000
  H   H19       1.0  0.25980000000000003  0.20379000000000005  0.50624  1.0000
  H   H20       1.0  0.48962  0.36063  0.92901  1.0000
  H   H21       1.0  0.19913000000000008  0.15626000000000004  0.02092  1.0000
  H   H22       1.0  0.56917  0.3430800000000001  0.07274  1.0000
  H   H23       1.0  0.46386  0.51093  0.4687800000000001  1.0000
  H   H24       1.0  0.09289000000000003  0.4411400000000001  0.99758  1.0000
  H   H25       1.0  0.33189000000000013  0.57931  0.53054  1.0000
  H   H26       1.0  0.9292200000000002  0.37492000000000003  0.35032  1.0000
  H   H27       1.0  0.12438  0.27172  0.56221  1.0000
  H   H28       1.0  0.10701999999999998  0.43357  0.41347  1.0000
  H   H29       1.0  0.24547  0.38369  0.01068  1.0000
  H   H30       1.0  0.16918000000000005  0.22867000000000004  0.7632  1.0000
  H   H31       1.0  0.98073  0.42325  0.67269  1.0000
  H   H32       1.0  0.80504  0.35816  0.61039  1.0000
  C   C1        1.0  0.64658  0.63004  0.9837900000000002  1.0000
  C   C2        1.0  0.6334000000000002  0.9550900000000002  0.37444  1.0000
  C   C3        1.0  0.69314  0.93339  0.3081  1.0000
  C   C4        1.0  0.6029500000000002  0.04772  0.36767  1.0000
  C   C5        1.0  0.76258  0.56933  0.62663  1.0000
  C   C6        1.0  0.8157  0.6738  0.61297  1.0000
  C   C7        1.0  0.73878  0.6598700000000001  0.4706  1.0000
  C   C8        1.0  0.7144600000000001  0.72545  0.010810000000000002  1.0000
  C   C9        1.0  0.6879  0.55528  0.48158  1.0000
  C   C10       1.0  0.80313  0.7202500000000001  0.5351700000000003  1.0000
  C   C11       1.0  0.6984500000000001  0.51062  0.56087  1.0000
  C   C12       1.0  0.69757  0.78645  0.38899  1.0000
  C   C13       1.0  0.54072  0.60896  0.99092  1.0000
  C   C14       1.0  0.77257  0.5208  0.7114  1.0000
  C   C15       1.0  0.60527  0.89054  0.44781  1.0000
  C   C16       1.0  0.5714100000000001  0.7770400000000001  0.04959  1.0000
  C   C17       1.0  0.5026  0.6816200000000002  0.02522  1.0000
  C   C18       1.0  0.63613  0.14103  0.97682  1.0000
  C   C19       1.0  0.61471  0.05526000000000001  0.92165  1.0000
  C   C20       1.0  0.67736  0.79981  0.04249  1.0000
  C   C21       1.0  0.58276  0.9575500000000001  0.9569900000000002  1.0000
  C   C22       1.0  0.6374600000000001  0.8065200000000002  0.45576  1.0000
  C   C23       1.0  0.7247700000000002  0.84908  0.31447  1.0000
  C   C24       1.0  0.58754  0.02997  0.10384  1.0000
  C   C25       1.0  0.56929  0.94566  0.0482  1.0000
  C   C26       1.0  0.6229300000000001  0.12775  0.06808  1.0000
  C   C27       1.0  0.6767000000000001  0.24472  0.93703  1.0000
  C   C28       1.0  0.68862  0.55368  0.9459100000000003  1.0000
  C   C29       1.0  0.36913  0.35328  0.4840600000000001  1.0000
  C   C30       1.0  0.04483000000000002  0.36544  0.87466  1.0000
  C   C31       1.0  0.06629000000000003  0.30598  0.80793  1.0000
  C   C32       1.0  0.95262  0.39667  0.86877  1.0000
  C   C33       1.0  0.42990000000000006  0.23725  0.12589  1.0000
  C   C34       1.0  0.3256  0.18415000000000004  0.11179000000000003  1.0000
  C   C35       1.0  0.34034  0.26086000000000004  0.96907  1.0000
  C   C36       1.0  0.2736  0.28543  0.51075  1.0000
  C   C37       1.0  0.44466  0.31192  0.98056  1.0000
  C   C38       1.0  0.2797  0.19658  0.03362  1.0000
  C   C39       1.0  0.48874  0.30153  0.06016  1.0000
  C   C40       1.0  0.2142  0.30229  0.88767  1.0000
  C   C41       1.0  0.39012000000000013  0.4593500000000001  0.49079  1.0000
  C   C42       1.0  0.47888  0.22738000000000005  0.21064  1.0000
  C   C43       1.0  0.10995000000000002  0.39371  0.94759  1.0000
  C   C44       1.0  0.22163000000000002  0.4288200000000001  0.5481  1.0000
  C   C45       1.0  0.31729  0.49769  0.52434  1.0000
  C   C46       1.0  0.85716  0.36292  0.47625  1.0000
  C   C47       1.0  0.9421800000000002  0.3841  0.42046  1.0000
  C   C48       1.0  0.19903000000000004  0.3227  0.54157  1.0000
  C   C49       1.0  0.0401  0.41632  0.45519  1.0000
  C   C50       1.0  0.19429000000000002  0.3620800000000001  0.95483  1.0000
  C   C51       1.0  0.15097  0.27489  0.81357  1.0000
  C   C52       1.0  0.96912  0.4121800000000001  0.60256  1.0000
  C   C53       1.0  0.05274000000000002  0.43026  0.54631  1.0000
  C   C54       1.0  0.87118  0.37652  0.56744  1.0000
  C   C55       1.0  0.75303  0.32159  0.43787  1.0000
  C   C56       1.0  0.44539  0.31098  0.44638  1.0000
  O   O1        1.0  0.8338200000000001  0.57289  0.76974  1.0000
  O   O2        1.0  0.78147  0.5633  0.96037  1.0000
  O   O3        1.0  0.65717  0.25751  0.8577300000000002  1.0000
  O   O4        1.0  0.53869  0.06128000000000001  0.42125  1.0000
  O   O5        1.0  0.71814  0.42727  0.72443  1.0000
  O   O6        1.0  0.63175  0.4816100000000001  0.89749  1.0000
  O   O7        1.0  0.64449  0.11412  0.30827  1.0000
  O   O8        1.0  0.7344600000000001  0.31926  0.9828600000000002  1.0000
  O   O9        1.0  0.7283400000000001  0.70238  0.39022  1.0000
  O   O10       1.0  0.53285  0.8488  0.08465  1.0000
  O   O11       1.0  0.4271300000000001  0.1675  0.27027  1.0000
  O   O12       1.0  0.43746000000000007  0.21888000000000005  0.4626  1.0000
  O   O13       1.0  0.73833  0.33926  0.35828  1.0000
  O   O14       1.0  0.9399  0.4609  0.92269  1.0000
  O   O15       1.0  0.57278  0.28083  0.22239  1.0000
  O   O16       1.0  0.51552  0.36718  0.39582  1.0000
  O   O17       1.0  0.8858100000000002  0.35582  0.80937  1.0000
  O   O18       1.0  0.67973  0.2651  0.48514  1.0000
  O   O19       1.0  0.29839  0.27172  0.8885000000000002  1.0000
  O   O20       1.0  0.14965999999999996  0.46751  0.58234  1.0000
