data_image0
_chemical_formula_structural       Cu12H16W4C32S16N20
_chemical_formula_sum              "Cu12 H16 W4 C32 S16 N20"
_cell_length_a       8.66598
_cell_length_b       14.36848
_cell_length_c       19.77169
_cell_angle_alpha    89.94094000000001
_cell_angle_beta     99.37292
_cell_angle_gamma    89.97949

_space_group_name_H-M_alt    "P 1"
_space_group_IT_number       1

loop_
  _space_group_symop_operation_xyz
  'x, y, z'

loop_
  _atom_site_type_symbol
  _atom_site_label
  _atom_site_symmetry_multiplicity
  _atom_site_fract_x
  _atom_site_fract_y
  _atom_site_fract_z
  _atom_site_occupancy
  Cu  Cu1       1.0  0.12518000000000007  0.1428  0.30255  1.0000
  Cu  Cu2       1.0  0.21093000000000006  0.36413  0.21047  1.0000
  Cu  Cu3       1.0  0.24197  0.265  0.48107  1.0000
  Cu  Cu4       1.0  0.8753900000000001  0.6435  0.19796  1.0000
  Cu  Cu5       1.0  0.78908  0.86348  0.28957  1.0000
  Cu  Cu6       1.0  0.7578  0.76511  0.01857  1.0000
  Cu  Cu7       1.0  0.87481  0.8572  0.69745  1.0000
  Cu  Cu8       1.0  0.78906  0.6358600000000002  0.78952  1.0000
  Cu  Cu9       1.0  0.7580200000000001  0.735  0.5189300000000001  1.0000
  Cu  Cu10      1.0  0.12460000000000006  0.3565  0.80204  1.0000
  Cu  Cu11      1.0  0.21092000000000005  0.13652  0.71043  1.0000
  Cu  Cu12      1.0  0.2422  0.23489000000000004  0.98143  1.0000
  H   H1        1.0  0.06144000000000001  0.99984  0.19349  1.0000
  H   H2        1.0  0.17172  0.95474  0.08892  1.0000
  H   H3        1.0  0.5631  0.13623  0.15782  1.0000
  H   H4        1.0  0.4395000000000001  0.17285  0.26078  1.0000
  H   H5        1.0  0.93913  0.49937000000000004  0.30671  1.0000
  H   H6        1.0  0.8282400000000004  0.4541800000000001  0.41115000000000007  1.0000
  H   H7        1.0  0.43698  0.63596  0.34167  1.0000
  H   H8        1.0  0.56122  0.67264  0.23891  1.0000
  H   H9        1.0  0.93855  0.00014999999999999977  0.8065100000000001  1.0000
  H   H10       1.0  0.8282700000000001  0.04526  0.9110800000000001  1.0000
  H   H11       1.0  0.43689000000000017  0.86376  0.8421800000000002  1.0000
  H   H12       1.0  0.56049  0.8271500000000002  0.73922  1.0000
  H   H13       1.0  0.06087000000000005  0.50063  0.69329  1.0000
  H   H14       1.0  0.17175  0.54582  0.58885  1.0000
  H   H15       1.0  0.5630100000000001  0.36404  0.6583300000000001  1.0000
  H   H16       1.0  0.4387700000000001  0.32736  0.76109  1.0000
  W   W1        1.0  0.23254  0.31629  0.34953  1.0000
  W   W2        1.0  0.76779  0.81631  0.1503  1.0000
  W   W3        1.0  0.7674500000000001  0.6837100000000002  0.6504700000000001  1.0000
  W   W4        1.0  0.2322  0.18369  0.8497  1.0000
  C   C1        1.0  0.97689  0.04824  0.30996000000000007  1.0000
  C   C2        1.0  0.25099  0.28038  0.07062  1.0000
  C   C3        1.0  0.17229  0.028140000000000005  0.18384000000000003  1.0000
  C   C4        1.0  0.23397000000000004  0.00309  0.12596  1.0000
  C   C5        1.0  0.37602  0.04262  0.11557  1.0000
  C   C6        1.0  0.4528500000000001  0.10432  0.16456  1.0000
  C   C7        1.0  0.38441000000000014  0.12485  0.22156  1.0000
  C   C8        1.0  0.4429200000000001  0.01964  0.05413  1.0000
  C   C9        1.0  0.023909999999999987  0.54927  0.19043  1.0000
  C   C10       1.0  0.74932  0.77997  0.4296499999999999  1.0000
  C   C11       1.0  0.8282400000000002  0.52777  0.31625  1.0000
  C   C12       1.0  0.7662100000000002  0.50269  0.37407  1.0000
  C   C13       1.0  0.62414  0.54236  0.38432000000000005  1.0000
  C   C14       1.0  0.5474300000000001  0.60407  0.33517  1.0000
  C   C15       1.0  0.61617  0.62463  0.27825  1.0000
  C   C16       1.0  0.5571300000000002  0.5195  0.44582  1.0000
  C   C17       1.0  0.023100000000000006  0.95175  0.69004  1.0000
  C   C18       1.0  0.749  0.71962  0.92938  1.0000
  C   C19       1.0  0.8277000000000002  0.97185  0.81616  1.0000
  C   C20       1.0  0.7660200000000003  0.99691  0.8740400000000002  1.0000
  C   C21       1.0  0.6239700000000002  0.95737  0.8844200000000001  1.0000
  C   C22       1.0  0.5471400000000002  0.89568  0.8354400000000001  1.0000
  C   C23       1.0  0.61558  0.87515  0.77844  1.0000
  C   C24       1.0  0.55707  0.98036  0.94587  1.0000
  C   C25       1.0  0.97608  0.45073  0.80957  1.0000
  C   C26       1.0  0.25067000000000006  0.22002  0.5703500000000001  1.0000
  C   C27       1.0  0.17176000000000005  0.47223  0.6837500000000001  1.0000
  C   C28       1.0  0.23378000000000004  0.49731  0.6259300000000001  1.0000
  C   C29       1.0  0.37585  0.45763  0.61567  1.0000
  C   C30       1.0  0.45256  0.39593  0.66483  1.0000
  C   C31       1.0  0.38382  0.37537  0.72175  1.0000
  C   C32       1.0  0.4428600000000001  0.48049  0.55418  1.0000
  S   S1        1.0  0.02513  0.28757  0.26793  1.0000
  S   S2        1.0  0.3193  0.17936  0.39577  1.0000
  S   S3        1.0  0.41842  0.37645  0.29909  1.0000
  S   S4        1.0  0.16000000000000003  0.4017299999999999  0.43216000000000004  1.0000
  S   S5        1.0  0.9751800000000002  0.78785  0.23214  1.0000
  S   S6        1.0  0.68163  0.67937  0.10426  1.0000
  S   S7        1.0  0.58171  0.87612  0.20075  1.0000
  S   S8        1.0  0.84034  0.9016  0.06748  1.0000
  S   S9        1.0  0.97486  0.7124300000000001  0.7320700000000001  1.0000
  S   S10       1.0  0.6806900000000002  0.82064  0.60423  1.0000
  S   S11       1.0  0.5815700000000001  0.62354  0.70091  1.0000
  S   S12       1.0  0.83999  0.5982700000000001  0.56784  1.0000
  S   S13       1.0  0.024809999999999978  0.21215  0.76786  1.0000
  S   S14       1.0  0.31836  0.32063  0.89573  1.0000
  S   S15       1.0  0.4182800000000001  0.12388  0.79924  1.0000
  S   S16       1.0  0.15964999999999993  0.09839  0.93252  1.0000
  N   N1        1.0  0.24545000000000003  0.08875  0.23065  1.0000
  N   N2        1.0  0.25202000000000013  0.30981  0.12607000000000002  1.0000
  N   N3        1.0  0.9044700000000001  0.97895  0.30924  1.0000
  N   N4        1.0  0.40008  0.93781  0.022820000000000003  1.0000
  N   N5        1.0  0.54122  0.08242  0.03296000000000001  1.0000
  N   N6        1.0  0.75531  0.5885400000000002  0.26938  1.0000
  N   N7        1.0  0.74793  0.80898  0.37399  1.0000
  N   N8        1.0  0.09597000000000001  0.4798200000000001  0.19115000000000001  1.0000
  N   N9        1.0  0.60005  0.43774  0.4773800000000001  1.0000
  N   N10       1.0  0.45869  0.58235  0.46681  1.0000
  N   N11       1.0  0.7545400000000003  0.91125  0.7693500000000001  1.0000
  N   N12       1.0  0.74798  0.69018  0.8739300000000001  1.0000
  N   N13       1.0  0.09552000000000005  0.02105  0.69076  1.0000
  N   N14       1.0  0.5999100000000002  0.06218  0.97718  1.0000
  N   N15       1.0  0.4587700000000002  0.91758  0.9670400000000001  1.0000
  N   N16       1.0  0.2446800000000001  0.41146  0.7306200000000002  1.0000
  N   N17       1.0  0.25206  0.19102  0.626  1.0000
  N   N18       1.0  0.90402  0.52018  0.80885  1.0000
  N   N19       1.0  0.39994  0.56225  0.52262  1.0000
  N   N20       1.0  0.5413000000000001  0.41764  0.53319  1.0000
