data_image0
_chemical_formula_structural       Cu8H32C64N16O16
_chemical_formula_sum              "Cu8 H32 C64 N16 O16"
_cell_length_a       13.87323
_cell_length_b       13.88874
_cell_length_c       13.763479999999998
_cell_angle_alpha    110.85191
_cell_angle_beta     110.88307
_cell_angle_gamma    107.06963

_symmetry_space_group_name_H-M    'P 1'
_symmetry_Int_Tables_number       1

loop_
  _symmetry_equiv_pos_as_xyz
  'x,y,z'

loop_
  _atom_site_type_symbol
  _atom_site_label
  _atom_site_symmetry_multiplicity
  _atom_site_fract_x
  _atom_site_fract_y
  _atom_site_fract_z
  _atom_site_occupancy
  Cu  Cu1       1.0  0.9620300000000002  0.36788  0.52177  1.0000
  Cu  Cu2       1.0  0.12999  0.15565999999999994  0.59457  1.0000
  Cu  Cu3       1.0  0.8700100000000001  0.8443400000000001  0.40543  1.0000
  Cu  Cu4       1.0  0.06075000000000013  0.5352900000000002  0.9051700000000003  1.0000
  Cu  Cu5       1.0  0.65408  0.55974  0.02181  1.0000
  Cu  Cu6       1.0  0.03795999999999997  0.63212  0.47823  1.0000
  Cu  Cu7       1.0  0.93924  0.46470000000000006  0.09483000000000001  1.0000
  Cu  Cu8       1.0  0.34591000000000016  0.44025999999999993  0.9781800000000002  1.0000
  H   H1        1.0  0.27287999999999996  0.8181699999999998  0.054130000000000005  1.0000
  H   H2        1.0  0.8679  0.99024  0.9377600000000001  1.0000
  H   H3        1.0  0.31961  0.76396  0.54689  1.0000
  H   H4        1.0  0.43346999999999997  0.36852999999999997  0.379  1.0000
  H   H5        1.0  0.26403  0.21898999999999996  0.44572  1.0000
  H   H6        1.0  0.31069  0.93059  0.46224  1.0000
  H   H7        1.0  0.28252  0.22785999999999995  0.046740000000000004  1.0000
  H   H8        1.0  0.03143  0.15163  0.96195  1.0000
  H   H9        1.0  0.96857  0.84837  0.03804  1.0000
  H   H10       1.0  0.5737300000000001  0.53159  0.38147  1.0000
  H   H11       1.0  0.51099  0.94497  0.87915  1.0000
  H   H12       1.0  0.7219200000000002  0.81039  0.73681  1.0000
  H   H13       1.0  0.13209  0.00975  0.062240000000000004  1.0000
  H   H14       1.0  0.34992  0.8074  0.88148  1.0000
  H   H15       1.0  0.57399  0.9851899999999998  0.76353  1.0000
  H   H16       1.0  0.56652  0.63146  0.62099  1.0000
  H   H17       1.0  0.6893  0.06940000000000006  0.5377600000000001  1.0000
  H   H18       1.0  0.55244  0.9299299999999999  0.5622900000000001  1.0000
  H   H19       1.0  0.6894500000000001  0.92498  0.91154  1.0000
  H   H20       1.0  0.71747  0.77214  0.95326  1.0000
  H   H21       1.0  0.4890100000000002  0.05503  0.12084  1.0000
  H   H22       1.0  0.72711  0.18182000000000006  0.94586  1.0000
  H   H23       1.0  0.42626  0.46841  0.61853  1.0000
  H   H24       1.0  0.27807  0.1896  0.26318  1.0000
  H   H25       1.0  0.31055  0.07501  0.08845  1.0000
  H   H26       1.0  0.4857  0.22251000000000004  0.4112700000000001  1.0000
  H   H27       1.0  0.65008  0.19259999999999994  0.11852000000000001  1.0000
  H   H28       1.0  0.6803800000000002  0.23603000000000002  0.4531100000000001  1.0000
  H   H29       1.0  0.42600000000000016  0.01481000000000004  0.23647000000000007  1.0000
  H   H30       1.0  0.51429  0.7774899999999998  0.58873  1.0000
  H   H31       1.0  0.73597  0.78101  0.55427  1.0000
  H   H32       1.0  0.44756  0.07006999999999995  0.4377  1.0000
  C   C1        1.0  0.1576  0.33526  0.56696  1.0000
  C   C2        1.0  0.5194500000000001  0.87624  0.8961100000000002  1.0000
  C   C3        1.0  0.37797  0.13493  0.08433  1.0000
  C   C4        1.0  0.09172999999999996  0.6617999999999999  0.32596  1.0000
  C   C5        1.0  0.8423900000000001  0.66474  0.43303000000000014  1.0000
  C   C6        1.0  0.7079000000000001  0.47798000000000007  0.4238300000000001  1.0000
  C   C7        1.0  0.5192  0.37686000000000003  0.3959900000000001  1.0000
  C   C8        1.0  0.44597  0.71558  0.92385  1.0000
  C   C9        1.0  0.8944400000000002  0.95022  0.65612  1.0000
  C   C10       1.0  0.6220300000000003  0.86507  0.9156700000000002  1.0000
  C   C11       1.0  0.62002  0.3714699999999999  0.06163  1.0000
  C   C12       1.0  0.29209  0.52202  0.57617  1.0000
  C   C13       1.0  0.96823  0.07092999999999995  0.8746900000000001  1.0000
  C   C14       1.0  0.9421100000000002  0.8785899999999999  0.24890000000000007  1.0000
  C   C15       1.0  0.9777600000000002  0.054790000000000005  0.77225  1.0000
  C   C16       1.0  0.37998  0.62852  0.93837  1.0000
  C   C17       1.0  0.45011  0.70606  0.5845  1.0000
  C   C18       1.0  0.05789000000000011  0.1214100000000001  0.7510900000000003  1.0000
  C   C19       1.0  0.12369000000000002  0.018689999999999988  0.14024  1.0000
  C   C20       1.0  0.55402  0.28442  0.07614  1.0000
  C   C21       1.0  0.28087  0.8419899999999999  0.1418  1.0000
  C   C22       1.0  0.4504  0.29554  0.055980000000000016  1.0000
  C   C23       1.0  0.20658000000000007  0.12200000000000004  0.2554600000000001  1.0000
  C   C24       1.0  0.8763  0.9813099999999998  0.8597600000000001  1.0000
  C   C25       1.0  0.16380000000000003  0.23442999999999992  0.82576  1.0000
  C   C26       1.0  0.8362000000000003  0.76556  0.17423  1.0000
  C   C27       1.0  0.7934100000000002  0.8779900000000002  0.7445400000000002  1.0000
  C   C28       1.0  0.26092999999999994  0.60545  0.55605  1.0000
  C   C29       1.0  0.37839  0.98353  0.3598  1.0000
  C   C30       1.0  0.3420000000000001  0.6998899999999998  0.56168  1.0000
  C   C31       1.0  0.69612  0.09354999999999998  0.6251600000000002  1.0000
  C   C32       1.0  0.63856  0.77981  0.9384100000000001  1.0000
  C   C33       1.0  0.5699  0.19866  0.10144  1.0000
  C   C34       1.0  0.7318000000000002  0.40916  0.06695  1.0000
  C   C35       1.0  0.20576000000000005  0.76154  0.15603000000000003  1.0000
  C   C36       1.0  0.48054000000000013  0.12376  0.10389000000000002  1.0000
  C   C37       1.0  0.63363  0.048839999999999946  0.7555  1.0000
  C   C38       1.0  0.022230000000000034  0.9452  0.22774  1.0000
  C   C39       1.0  0.6580000000000001  0.30011  0.43832  1.0000
  C   C40       1.0  0.9082700000000001  0.33820000000000006  0.6740400000000001  1.0000
  C   C41       1.0  0.7191200000000002  0.15800000000000006  0.8582000000000002  1.0000
  C   C42       1.0  0.7998500000000002  0.86075  0.6419  1.0000
  C   C43       1.0  0.6216  0.016459999999999992  0.6402  1.0000
  C   C44       1.0  0.36143  0.22019  0.06158000000000002  1.0000
  C   C45       1.0  0.36637  0.9511599999999998  0.24450000000000002  1.0000
  C   C46       1.0  0.78247  0.20564999999999992  0.72772  1.0000
  C   C47       1.0  0.26819000000000015  0.59083  0.9330400000000002  1.0000
  C   C48       1.0  0.4807900000000002  0.62313  0.60401  1.0000
  C   C49       1.0  0.19031  0.4416399999999999  0.56167  1.0000
  C   C50       1.0  0.73906  0.39455  0.4439500000000001  1.0000
  C   C51       1.0  0.4301000000000001  0.8013399999999999  0.89856  1.0000
  C   C52       1.0  0.20015  0.13924  0.3581  1.0000
  C   C53       1.0  0.21752999999999995  0.7943499999999998  0.27227000000000007  1.0000
  C   C54       1.0  0.12989  0.69307  0.25119  1.0000
  C   C55       1.0  0.40323  0.53143  0.60142  1.0000
  C   C56       1.0  0.79423  0.23846000000000003  0.8439600000000003  1.0000
  C   C57       1.0  0.8096800000000002  0.55836  0.43832  1.0000
  C   C58       1.0  0.5496000000000001  0.7044499999999999  0.9440200000000002  1.0000
  C   C59       1.0  0.3038700000000001  0.90644  0.37483000000000005  1.0000
  C   C60       1.0  0.59676  0.46857000000000004  0.39858000000000005  1.0000
  C   C61       1.0  0.03175999999999994  0.9290699999999997  0.12531  1.0000
  C   C62       1.0  0.10555999999999999  0.04977999999999996  0.34387  1.0000
  C   C63       1.0  0.5498800000000001  0.29393  0.41550000000000004  1.0000
  C   C64       1.0  0.87011  0.3069199999999999  0.74881  1.0000
  N   N1        1.0  0.07173  0.60792  0.13292  1.0000
  N   N2        1.0  0.43951  0.57104  0.96493  1.0000
  N   N3        1.0  0.9282700000000002  0.39207999999999993  0.8670700000000001  1.0000
  N   N4        1.0  0.8529600000000003  0.42577999999999994  0.46743000000000007  1.0000
  N   N5        1.0  0.07425  0.04204000000000001  0.42696  1.0000
  N   N6        1.0  0.024689999999999993  0.06124  0.63277  1.0000
  N   N7        1.0  0.8936400000000003  0.52524  0.4648700000000001  1.0000
  N   N8        1.0  0.8850800000000003  0.3528800000000001  0.9270400000000001  1.0000
  N   N9        1.0  0.92574  0.95795  0.57304  1.0000
  N   N10       1.0  0.11491  0.64712  0.07296000000000001  1.0000
  N   N11       1.0  0.14703  0.57422  0.53256  1.0000
  N   N12       1.0  0.54165  0.6141500000000001  0.9675000000000001  1.0000
  N   N13       1.0  0.45834  0.38585  0.0325  1.0000
  N   N14       1.0  0.9753099999999999  0.9387599999999998  0.36723  1.0000
  N   N15       1.0  0.5604900000000002  0.4289599999999999  0.03507  1.0000
  N   N16       1.0  0.10634999999999997  0.4747599999999999  0.53513  1.0000
  O   O1        1.0  0.8609799999999999  0.26675  0.56124  1.0000
  O   O2        1.0  0.13901999999999995  0.7332499999999997  0.43876  1.0000
  O   O3        1.0  0.99333  0.44369000000000003  0.7271300000000002  1.0000
  O   O4        1.0  0.7622799999999998  0.49157999999999996  0.04314  1.0000
  O   O5        1.0  0.20222999999999997  0.6359599999999999  0.9067  1.0000
  O   O6        1.0  0.20533999999999997  0.30015  0.93865  1.0000
  O   O7        1.0  0.79465  0.69985  0.06135000000000001  1.0000
  O   O8        1.0  0.21611  0.2662099999999999  0.77251  1.0000
  O   O9        1.0  0.77093  0.7043799999999999  0.40671000000000007  1.0000
  O   O10       1.0  0.79777  0.36403  0.0933  1.0000
  O   O11       1.0  0.2377200000000001  0.5084200000000001  0.9568500000000002  1.0000
  O   O12       1.0  0.0066600000000000366  0.55631  0.27286  1.0000
  O   O13       1.0  0.9486700000000001  0.71888  0.4566700000000001  1.0000
  O   O14       1.0  0.22906  0.29562  0.59329  1.0000
  O   O15       1.0  0.7838800000000002  0.7337800000000001  0.22748000000000004  1.0000
  O   O16       1.0  0.051329999999999994  0.28112  0.54332  1.0000
