data_image0
_chemical_formula_structural       Li8Si2H32C56O16
_chemical_formula_sum              "Li8 Si2 H32 C56 O16"
_cell_length_a       13.35216
_cell_length_b       14.25799
_cell_length_c       14.20755
_cell_angle_alpha    116.94133
_cell_angle_beta     112.80065999999998
_cell_angle_gamma    94.06199

_space_group_name_H-M_alt    "P 1"
_space_group_IT_number       1

loop_
  _space_group_symop_operation_xyz
  'x, y, z'

loop_
  _atom_site_type_symbol
  _atom_site_label
  _atom_site_symmetry_multiplicity
  _atom_site_fract_x
  _atom_site_fract_y
  _atom_site_fract_z
  _atom_site_occupancy
  Li  Li1       1.0  0.19293000000000005  0.9199999999999998  0.8393  1.0000
  Li  Li2       1.0  0.98995  0.89099  0.46962  1.0000
  Li  Li3       1.0  0.9490700000000002  0.56785  0.45994000000000007  1.0000
  Li  Li4       1.0  0.043890000000000026  0.8064999999999999  0.6008700000000001  1.0000
  Li  Li5       1.0  0.80707  0.07999000000000002  0.16070000000000004  1.0000
  Li  Li6       1.0  0.010060000000000024  0.10900999999999998  0.53038  1.0000
  Li  Li7       1.0  0.05093  0.43214  0.54006  1.0000
  Li  Li8       1.0  0.95611  0.19349999999999995  0.39913  1.0000
  Si  Si1       1.0  0.32628000000000007  0.5583899999999999  0.09708000000000001  1.0000
  Si  Si2       1.0  0.67373  0.44160000000000005  0.9029100000000001  1.0000
  H   H1        1.0  0.4194  0.36078000000000005  0.07633000000000001  1.0000
  H   H2        1.0  0.33294000000000007  0.15945000000000012  0.9280800000000001  1.0000
  H   H3        1.0  0.025790000000000132  0.21649000000000004  0.7414700000000001  1.0000
  H   H4        1.0  0.11064  0.41566999999999993  0.88653  1.0000
  H   H5        1.0  0.5369900000000001  0.7034799999999998  0.14293000000000003  1.0000
  H   H6        1.0  0.7387  0.7773199999999999  0.30141  1.0000
  H   H7        1.0  0.6609400000000001  0.58754  0.4412100000000001  1.0000
  H   H8        1.0  0.45603000000000005  0.52105  0.29014  1.0000
  H   H9        1.0  0.36608000000000007  0.76494  0.3177  1.0000
  H   H10       1.0  0.2595100000000001  0.8220400000000001  0.43476000000000004  1.0000
  H   H11       1.0  0.012599999999999998  0.50224  0.19724  1.0000
  H   H12       1.0  0.11146  0.44639000000000006  0.07279000000000001  1.0000
  H   H13       1.0  0.35462  0.50402  0.88158  1.0000
  H   H14       1.0  0.27072000000000007  0.54504  0.7220300000000001  1.0000
  H   H15       1.0  0.13481  0.77449  0.92265  1.0000
  H   H16       1.0  0.21395  0.7300699999999998  0.08148  1.0000
  H   H17       1.0  0.58061  0.6392199999999999  0.9236700000000001  1.0000
  H   H18       1.0  0.66706  0.84054  0.07192  1.0000
  H   H19       1.0  0.9742100000000001  0.7835000000000001  0.25853000000000004  1.0000
  H   H20       1.0  0.88937  0.58432  0.11347000000000002  1.0000
  H   H21       1.0  0.4630200000000001  0.29651000000000005  0.8570700000000001  1.0000
  H   H22       1.0  0.2613  0.22268  0.69859  1.0000
  H   H23       1.0  0.33906000000000003  0.41246000000000005  0.5587800000000002  1.0000
  H   H24       1.0  0.54397  0.47895  0.70986  1.0000
  H   H25       1.0  0.6339300000000001  0.23506000000000005  0.6823000000000001  1.0000
  H   H26       1.0  0.7405  0.17796000000000006  0.5652400000000001  1.0000
  H   H27       1.0  0.9874100000000002  0.4977600000000001  0.8027600000000003  1.0000
  H   H28       1.0  0.8885400000000002  0.55361  0.9272100000000002  1.0000
  H   H29       1.0  0.64538  0.49598  0.11842000000000001  1.0000
  H   H30       1.0  0.7292800000000003  0.4549599999999999  0.27797  1.0000
  H   H31       1.0  0.86519  0.22550999999999996  0.07735000000000002  1.0000
  H   H32       1.0  0.78605  0.26992  0.91852  1.0000
  C   C1        1.0  0.27163000000000015  0.40401000000000004  0.9937000000000001  1.0000
  C   C2        1.0  0.33259  0.32968  0.00405  1.0000
  C   C3        1.0  0.2841500000000002  0.21616000000000007  0.9209900000000002  1.0000
  C   C4        1.0  0.17429000000000003  0.17486999999999997  0.8243900000000001  1.0000
  C   C5        1.0  0.11214000000000011  0.2482200000000001  0.8145500000000002  1.0000
  C   C6        1.0  0.16023999999999994  0.3606799999999999  0.89788  1.0000
  C   C7        1.0  0.12411999999999998  0.05619000000000002  0.72616  1.0000
  C   C8        1.0  0.48142  0.6068999999999998  0.20479000000000003  1.0000
  C   C9        1.0  0.56287  0.67896  0.20897  1.0000
  C   C10       1.0  0.6764499999999999  0.7200799999999996  0.29725  1.0000
  C   C11       1.0  0.71186  0.68693  0.3809100000000001  1.0000
  C   C12       1.0  0.6321  0.6130099999999998  0.37605  1.0000
  C   C13       1.0  0.5180400000000001  0.5751899999999999  0.29035000000000005  1.0000
  C   C14       1.0  0.83403  0.72964  0.47458  1.0000
  C   C15       1.0  0.24642000000000006  0.6014  0.18563000000000002  1.0000
  C   C16       1.0  0.28697  0.70763  0.28854  1.0000
  C   C17       1.0  0.22838000000000006  0.7401499999999998  0.35525  1.0000
  C   C18       1.0  0.12942999999999993  0.6655699999999998  0.32244  1.0000
  C   C19       1.0  0.08843000000000001  0.55966  0.22033000000000005  1.0000
  C   C20       1.0  0.14520000000000008  0.52871  0.15200000000000002  1.0000
  C   C21       1.0  0.06887000000000004  0.69442  0.39716000000000007  1.0000
  C   C22       1.0  0.29069999999999996  0.6140799999999998  0.99446  1.0000
  C   C23       1.0  0.30827000000000004  0.56485  0.8931500000000001  1.0000
  C   C24       1.0  0.26103999999999994  0.58748  0.80234  1.0000
  C   C25       1.0  0.19776000000000007  0.66268  0.8121100000000001  1.0000
  C   C26       1.0  0.18550000000000005  0.7174000000000001  0.9157400000000001  1.0000
  C   C27       1.0  0.22995999999999997  0.6919  0.00489  1.0000
  C   C28       1.0  0.13642  0.67676  0.70842  1.0000
  C   C29       1.0  0.72838  0.59599  0.0063  1.0000
  C   C30       1.0  0.6674100000000001  0.6703099999999997  0.99595  1.0000
  C   C31       1.0  0.71586  0.7838399999999998  0.07901  1.0000
  C   C32       1.0  0.8257100000000002  0.82513  0.17561  1.0000
  C   C33       1.0  0.88786  0.75178  0.18545  1.0000
  C   C34       1.0  0.8397699999999999  0.63932  0.10212000000000002  1.0000
  C   C35       1.0  0.87589  0.9438099999999999  0.27384  1.0000
  C   C36       1.0  0.51858  0.3931  0.79521  1.0000
  C   C37       1.0  0.43713  0.32104  0.79103  1.0000
  C   C38       1.0  0.32355  0.27992  0.70275  1.0000
  C   C39       1.0  0.28814  0.31306  0.61909  1.0000
  C   C40       1.0  0.36791000000000007  0.38698000000000005  0.6239500000000001  1.0000
  C   C41       1.0  0.4819600000000001  0.4248100000000001  0.7096500000000001  1.0000
  C   C42       1.0  0.16597  0.27035999999999993  0.52542  1.0000
  C   C43       1.0  0.75359  0.39860000000000007  0.8143700000000001  1.0000
  C   C44       1.0  0.71303  0.29237  0.7114600000000001  1.0000
  C   C45       1.0  0.77162  0.25985  0.64475  1.0000
  C   C46       1.0  0.87057  0.33442000000000005  0.6775600000000002  1.0000
  C   C47       1.0  0.9115700000000002  0.4403400000000001  0.7796700000000002  1.0000
  C   C48       1.0  0.85481  0.4712899999999999  0.848  1.0000
  C   C49       1.0  0.9311300000000001  0.30558  0.60284  1.0000
  C   C50       1.0  0.7093100000000001  0.3859199999999999  0.00553  1.0000
  C   C51       1.0  0.69173  0.43515  0.10684000000000003  1.0000
  C   C52       1.0  0.7389700000000002  0.4125099999999999  0.19766000000000006  1.0000
  C   C53       1.0  0.8022500000000001  0.33731  0.18789000000000003  1.0000
  C   C54       1.0  0.81451  0.28259999999999996  0.08425  1.0000
  C   C55       1.0  0.7700500000000001  0.3081  0.99511  1.0000
  C   C56       1.0  0.86358  0.32323  0.29158  1.0000
  O   O1        1.0  0.14285000000000006  0.9808799999999998  0.75065  1.0000
  O   O2        1.0  0.06474000000000005  0.0355  0.6205600000000001  1.0000
  O   O3        1.0  0.8938600000000002  0.82216  0.5051  1.0000
  O   O4        1.0  0.8736400000000001  0.6730999999999998  0.52049  1.0000
  O   O5        1.0  0.09497  0.7964199999999999  0.47853000000000007  1.0000
  O   O6        1.0  0.99615  0.6157999999999998  0.37552  1.0000
  O   O7        1.0  0.09095000000000006  0.5926199999999999  0.6037800000000001  1.0000
  O   O8        1.0  0.13115  0.7738800000000001  0.7301300000000001  1.0000
  O   O9        1.0  0.8571600000000001  0.019119999999999998  0.24934  1.0000
  O   O10       1.0  0.93526  0.9644999999999999  0.37944  1.0000
  O   O11       1.0  0.10615000000000005  0.17783000000000002  0.49489000000000005  1.0000
  O   O12       1.0  0.12635999999999994  0.3268999999999999  0.47951  1.0000
  O   O13       1.0  0.90503  0.20357999999999996  0.52147  1.0000
  O   O14       1.0  0.003850000000000033  0.38419999999999993  0.6244800000000001  1.0000
  O   O15       1.0  0.9090500000000001  0.4073799999999999  0.39622  1.0000
  O   O16       1.0  0.86885  0.22612  0.26987000000000005  1.0000
