data_image0
_chemical_formula_structural       In6H30C48O30
_chemical_formula_sum              "In6 H30 C48 O30"
_cell_length_a       7.42538
_cell_length_b       21.96338
_cell_length_c       21.9417
_cell_angle_alpha    119.43820000000001
_cell_angle_beta     90.01413000000001
_cell_angle_gamma    90.01321

_symmetry_space_group_name_H-M    'P 1'
_symmetry_Int_Tables_number       1

loop_
  _symmetry_equiv_pos_as_xyz
  'x,y,z'

loop_
  _atom_site_type_symbol
  _atom_site_label
  _atom_site_symmetry_multiplicity
  _atom_site_fract_x
  _atom_site_fract_y
  _atom_site_fract_z
  _atom_site_occupancy
  In  In1       1.0  0.99911  0.0005300000000000177  0.49899  1.0000
  In  In2       1.0  0.49866  0.00037999999999998365  0.49923  1.0000
  In  In3       1.0  0.49617000000000006  0.49807999999999997  0.0002  1.0000
  In  In4       1.0  0.9959300000000001  0.49798  0.99895  1.0000
  In  In5       1.0  0.003540000000000001  0.00186  0.00104  1.0000
  In  In6       1.0  0.50386  0.00119  0.00151  1.0000
  H   H1        1.0  0.53798  0.20549999999999996  0.68214  1.0000
  H   H2        1.0  0.96169  0.02884000000000001  0.31965  1.0000
  H   H3        1.0  0.9623000000000002  0.03431999999999999  0.20739  1.0000
  H   H4        1.0  0.03823  0.7943999999999999  0.31745  1.0000
  H   H5        1.0  0.4615300000000001  0.9701599999999999  0.6778  1.0000
  H   H6        1.0  0.4626900000000001  0.9666399999999999  0.79078  1.0000
  H   H7        1.0  0.9592100000000002  0.31855  0.79474  1.0000
  H   H8        1.0  0.53616  0.6774999999999999  0.97075  1.0000
  H   H9        1.0  0.53923  0.7899899999999999  0.96684  1.0000
  H   H10       1.0  0.45949  0.6807499999999999  0.2058  1.0000
  H   H11       1.0  0.03635  0.31982999999999995  0.027200000000000002  1.0000
  H   H12       1.0  0.03918  0.20867999999999995  0.03443  1.0000
  H   H13       1.0  0.4612500000000001  0.79538  0.31842  1.0000
  H   H14       1.0  0.03808000000000002  0.97018  0.67689  1.0000
  H   H15       1.0  0.03975  0.96665  0.78992  1.0000
  H   H16       1.0  0.96066  0.20451  0.68111  1.0000
  H   H17       1.0  0.53843  0.02881999999999999  0.32036  1.0000
  H   H18       1.0  0.5397  0.03429999999999999  0.20809  1.0000
  H   H19       1.0  0.036420000000000015  0.6798599999999999  0.2048  1.0000
  H   H20       1.0  0.45949  0.31824  0.02733  1.0000
  H   H21       1.0  0.4620100000000001  0.20706999999999998  0.03454  1.0000
  H   H22       1.0  0.53627  0.3195  0.79576  1.0000
  H   H23       1.0  0.9595500000000002  0.6791799999999998  0.97062  1.0000
  H   H24       1.0  0.96265  0.7916800000000002  0.9667300000000001  1.0000
  H   H25       1.0  0.24384000000000003  0.53403  0.0991  1.0000
  H   H26       1.0  0.7490900000000003  0.09937  0.53139  1.0000
  H   H27       1.0  0.24875000000000003  0.9013399999999999  0.46809  1.0000
  H   H28       1.0  0.74381  0.5342400000000002  0.9353899999999999  1.0000
  H   H29       1.0  0.75448  0.9213999999999998  0.013800000000000002  1.0000
  H   H30       1.0  0.25452  0.014500000000000022  0.92133  1.0000
  C   C1        1.0  0.41252  0.23089000000000004  0.70702  1.0000
  C   C2        1.0  0.0865  0.03045  0.29475  1.0000
  C   C3        1.0  0.08702  0.03363  0.23293  1.0000
  C   C4        1.0  0.9127600000000002  0.7688099999999999  0.29269  1.0000
  C   C5        1.0  0.58652  0.96912  0.70291  1.0000
  C   C6        1.0  0.5875700000000001  0.96718  0.76539  1.0000
  C   C7        1.0  0.08433000000000003  0.2932100000000001  0.7693000000000001  1.0000
  C   C8        1.0  0.41184  0.7026599999999998  0.96935  1.0000
  C   C9        1.0  0.4136400000000001  0.76498  0.96727  1.0000
  C   C10       1.0  0.58492  0.70596  0.23093000000000002  1.0000
  C   C11       1.0  0.9122200000000003  0.29486  0.029300000000000003  1.0000
  C   C12       1.0  0.9138500000000003  0.23369999999999996  0.03355  1.0000
  C   C13       1.0  0.58589  0.7693699999999999  0.29327  1.0000
  C   C14       1.0  0.9135900000000002  0.96913  0.70226  1.0000
  C   C15       1.0  0.9144800000000002  0.96718  0.76472  1.0000
  C   C16       1.0  0.08535  0.23036000000000004  0.70645  1.0000
  C   C17       1.0  0.41395  0.030429999999999964  0.29526  1.0000
  C   C18       1.0  0.41476  0.03361  0.23347  1.0000
  C   C19       1.0  0.9117200000000002  0.70542  0.23032  1.0000
  C   C20       1.0  0.58484  0.29391  0.02938  1.0000
  C   C21       1.0  0.5862400000000001  0.23271  0.03361  1.0000
  C   C22       1.0  0.41177  0.29376999999999986  0.7699  1.0000
  C   C23       1.0  0.08526  0.70365  0.9692800000000001  1.0000
  C   C24       1.0  0.08701000000000003  0.7659900000000002  0.9672100000000001  1.0000
  C   C25       1.0  0.24968  0.12936999999999996  0.60888  1.0000
  C   C26       1.0  0.24932  0.19856999999999997  0.67513  1.0000
  C   C27       1.0  0.24851000000000006  0.023259999999999968  0.39153  1.0000
  C   C28       1.0  0.24979000000000007  0.028560000000000002  0.32599  1.0000
  C   C29       1.0  0.25137  0.03496  0.20198  1.0000
  C   C30       1.0  0.25338  0.03399999999999999  0.13331  1.0000
  C   C31       1.0  0.7509500000000002  0.87086  0.39039  1.0000
  C   C32       1.0  0.7498800000000002  0.8013199999999999  0.32443  1.0000
  C   C33       1.0  0.7476600000000002  0.97642  0.60599  1.0000
  C   C34       1.0  0.74941  0.97085  0.67146  1.0000
  C   C35       1.0  0.7517100000000002  0.96702  0.7971000000000001  1.0000
  C   C36       1.0  0.75363  0.9705599999999998  0.8671400000000001  1.0000
  C   C37       1.0  0.24631000000000006  0.39067000000000013  0.8710700000000001  1.0000
  C   C38       1.0  0.24756  0.3248799999999999  0.80156  1.0000
  C   C39       1.0  0.24635000000000007  0.6063  0.9761900000000001  1.0000
  C   C40       1.0  0.24765  0.67189  0.97097  1.0000
  C   C41       1.0  0.2513  0.7974399999999999  0.9669499999999999  1.0000
  C   C42       1.0  0.25361000000000006  0.8674100000000002  0.9703300000000001  1.0000
  C   C43       1.0  0.74635  0.6067  0.13012  1.0000
  C   C44       1.0  0.74774  0.67368  0.19887  1.0000
  C   C45       1.0  0.74621  0.38993  0.02058  1.0000
  C   C46       1.0  0.74768  0.3250799999999999  0.02693  1.0000
  C   C47       1.0  0.75097  0.20223999999999998  0.03539  1.0000
  C   C48       1.0  0.75349  0.13371  0.03465  1.0000
  O   O1        1.0  0.09577000000000001  0.10287000000000002  0.58358  1.0000
  O   O2        1.0  0.09376000000000002  0.021480000000000006  0.41609  1.0000
  O   O3        1.0  0.10033  0.033349999999999984  0.10648  1.0000
  O   O4        1.0  0.59737  0.89747  0.41557  1.0000
  O   O5        1.0  0.59275  0.9784799999999999  0.58171  1.0000
  O   O6        1.0  0.5999700000000002  0.9726999999999999  0.89435  1.0000
  O   O7        1.0  0.39974  0.4157699999999999  0.89775  1.0000
  O   O8        1.0  0.4002000000000001  0.58154  0.97855  1.0000
  O   O9        1.0  0.4087400000000001  0.8938  0.9727300000000001  1.0000
  O   O10       1.0  0.89995  0.58174  0.1032  1.0000
  O   O11       1.0  0.8996000000000002  0.4149499999999999  0.01823  1.0000
  O   O12       1.0  0.90845  0.10781999999999999  0.03332  1.0000
  O   O13       1.0  0.90536  0.8970699999999998  0.41518  1.0000
  O   O14       1.0  0.9013500000000001  0.97854  0.58111  1.0000
  O   O15       1.0  0.9085700000000002  0.9727599999999998  0.89372  1.0000
  O   O16       1.0  0.40365  0.10303000000000001  0.58378  1.0000
  O   O17       1.0  0.40225  0.02138000000000001  0.41664  1.0000
  O   O18       1.0  0.40818  0.032479999999999995  0.10720999999999999  1.0000
  O   O19       1.0  0.5914300000000002  0.58119  0.10496  1.0000
  O   O20       1.0  0.59157  0.41433  0.01837  1.0000
  O   O21       1.0  0.60061  0.10668  0.03371  1.0000
  O   O22       1.0  0.09159  0.41514000000000006  0.8970500000000001  1.0000
  O   O23       1.0  0.09154  0.5815900000000002  0.9778200000000001  1.0000
  O   O24       1.0  0.10010000000000002  0.89449  0.97217  1.0000
  O   O25       1.0  0.24841000000000005  0.95153  0.49994000000000005  1.0000
  O   O26       1.0  0.7484500000000002  0.049369999999999976  0.49864  1.0000
  O   O27       1.0  0.24523000000000006  0.49964999999999987  0.04950000000000001  1.0000
  O   O28       1.0  0.74521  0.49995  0.95126  1.0000
  O   O29       1.0  0.25447  0.026910000000000014  0.97043  1.0000
  O   O30       1.0  0.7544700000000002  0.9706299999999999  0.026920000000000003  1.0000
