data_image0
_chemical_formula_structural       Eu8H16C48N16O40
_chemical_formula_sum              "Eu8 H16 C48 N16 O40"
_cell_length_a       7.44913
_cell_length_b       15.89429
_cell_length_c       17.31832
_cell_angle_alpha    90.64716
_cell_angle_beta     94.54443
_cell_angle_gamma    90.62218999999999

_symmetry_space_group_name_H-M    'P 1'
_symmetry_Int_Tables_number       1

loop_
  _symmetry_equiv_pos_as_xyz
  'x,y,z'

loop_
  _atom_site_type_symbol
  _atom_site_label
  _atom_site_symmetry_multiplicity
  _atom_site_fract_x
  _atom_site_fract_y
  _atom_site_fract_z
  _atom_site_occupancy
  Eu  Eu1       1.0  0.6470400000000001  0.8909599999999998  0.54784  1.0000
  Eu  Eu2       1.0  0.84114  0.05917999999999999  0.39195  1.0000
  Eu  Eu3       1.0  0.37760000000000005  0.39054  0.9581999999999999  1.0000
  Eu  Eu4       1.0  0.13634000000000002  0.55159  0.10021  1.0000
  Eu  Eu5       1.0  0.3544000000000001  0.10951  0.4495699999999999  1.0000
  Eu  Eu6       1.0  0.16014999999999993  0.94153  0.6073499999999997  1.0000
  Eu  Eu7       1.0  0.6321700000000002  0.60948  0.045949999999999984  1.0000
  Eu  Eu8       1.0  0.85816  0.44613  0.90442  1.0000
  H   H1        1.0  0.20615  0.69876  0.32276  1.0000
  H   H2        1.0  0.8330900000000002  0.7641  0.41264  1.0000
  H   H3        1.0  0.20253  0.82406  0.20788  1.0000
  H   H4        1.0  0.6115000000000003  0.92968  0.26328  1.0000
  H   H5        1.0  0.79556  0.19792  0.1786  1.0000
  H   H6        1.0  0.17415  0.26687  0.08859999999999997  1.0000
  H   H7        1.0  0.7979  0.3238  0.29305  1.0000
  H   H8        1.0  0.38793  0.43056  0.23549  1.0000
  H   H9        1.0  0.7921300000000002  0.30121  0.67714  1.0000
  H   H10       1.0  0.16589  0.23561  0.58656  1.0000
  H   H11       1.0  0.79942  0.17691  0.79336  1.0000
  H   H12       1.0  0.39049  0.07192  0.73686  1.0000
  H   H13       1.0  0.21011  0.80101  0.8244499999999998  1.0000
  H   H14       1.0  0.83506  0.73532  0.9101199999999999  1.0000
  H   H15       1.0  0.19838  0.6747  0.70949  1.0000
  H   H16       1.0  0.60271  0.5703  0.7641199999999998  1.0000
  C   C1        1.0  0.25177  0.81236  0.45409  1.0000
  C   C2        1.0  0.38987000000000005  0.76942  0.40583  1.0000
  C   C3        1.0  0.3454300000000001  0.71512  0.34254  1.0000
  C   C4        1.0  0.4900600000000001  0.6842  0.30387  1.0000
  C   C5        1.0  0.46113  0.63411  0.22774999999999995  1.0000
  C   C6        1.0  0.69337  0.75099  0.3908999999999999  1.0000
  C   C7        1.0  0.21225000000000002  0.9551099999999998  0.31889999999999996  1.0000
  C   C8        1.0  0.052800000000000014  0.91152  0.27452  1.0000
  C   C9        1.0  0.07038000000000003  0.8479500000000001  0.21957  1.0000
  C   C10       1.0  0.91008  0.81735  0.18096  1.0000
  C   C11       1.0  0.91357  0.74609  0.12235  1.0000
  C   C12       1.0  0.74303  0.90615  0.25014  1.0000
  C   C13       1.0  0.75927  0.30741  0.04872  1.0000
  C   C14       1.0  0.61749  0.26719  0.09616  1.0000
  C   C15       1.0  0.6568800000000002  0.21381999999999995  0.15888  1.0000
  C   C16       1.0  0.50744  0.18419  0.1955  1.0000
  C   C17       1.0  0.53119  0.13069  0.26708  1.0000
  C   C18       1.0  0.31178  0.25218  0.11042999999999997  1.0000
  C   C19       1.0  0.7875800000000002  0.45107999999999987  0.18179999999999993  1.0000
  C   C20       1.0  0.9486  0.41102  0.22603999999999994  1.0000
  C   C21       1.0  0.92991  0.34834  0.28089  1.0000
  C   C22       1.0  0.08995  0.31948  0.3190699999999999  1.0000
  C   C23       1.0  0.08490000000000003  0.24979  0.37796  1.0000
  C   C24       1.0  0.25676  0.40702  0.24941999999999998  1.0000
  C   C25       1.0  0.7474200000000002  0.18718  0.54628  1.0000
  C   C26       1.0  0.6092200000000002  0.23038  0.5941399999999998  1.0000
  C   C27       1.0  0.6527200000000001  0.28474  0.6575499999999999  1.0000
  C   C28       1.0  0.5074300000000002  0.31508  0.69634  1.0000
  C   C29       1.0  0.53486  0.36411  0.77304  1.0000
  C   C30       1.0  0.30561  0.24878  0.6084199999999997  1.0000
  C   C31       1.0  0.78921  0.04448  0.68291  1.0000
  C   C32       1.0  0.9497700000000004  0.08898  0.72698  1.0000
  C   C33       1.0  0.93151  0.15301  0.78156  1.0000
  C   C34       1.0  0.09211  0.18439  0.81983  1.0000
  C   C35       1.0  0.08672999999999996  0.25695  0.8777899999999997  1.0000
  C   C36       1.0  0.25917  0.09542  0.75023  1.0000
  C   C37       1.0  0.25055  0.68998  0.95045  1.0000
  C   C38       1.0  0.39240000000000014  0.73179  0.90385  1.0000
  C   C39       1.0  0.35027  0.78578  0.84216  1.0000
  C   C40       1.0  0.4972800000000002  0.81593  0.80422  1.0000
  C   C41       1.0  0.47102999999999995  0.86915  0.73202  1.0000
  C   C42       1.0  0.6968200000000002  0.74883  0.8892699999999998  1.0000
  C   C43       1.0  0.20647000000000004  0.54728  0.8216  1.0000
  C   C44       1.0  0.044819999999999985  0.58891  0.7769399999999997  1.0000
  C   C45       1.0  0.06552  0.65115  0.72142  1.0000
  C   C46       1.0  0.90697  0.6807499999999997  0.68216  1.0000
  C   C47       1.0  0.9124600000000003  0.7496  0.62176  1.0000
  C   C48       1.0  0.73599  0.59305  0.75187  1.0000
  N   N1        1.0  0.5632700000000003  0.7879799999999998  0.4283899999999999  1.0000
  N   N2        1.0  0.6621000000000002  0.7012  0.32883  1.0000
  N   N3        1.0  0.88873  0.93811  0.29171  1.0000
  N   N4        1.0  0.7479  0.8479  0.19427999999999995  1.0000
  N   N5        1.0  0.44546000000000013  0.28677  0.0734  1.0000
  N   N6        1.0  0.33593  0.20201  0.17163  1.0000
  N   N7        1.0  0.11177000000000002  0.43804  0.20853  1.0000
  N   N8        1.0  0.25279  0.34985  0.3050199999999999  1.0000
  N   N9        1.0  0.4357200000000001  0.2112999999999999  0.5715299999999999  1.0000
  N   N10       1.0  0.33540000000000003  0.29884  0.6703599999999997  1.0000
  N   N11       1.0  0.11287000000000003  0.0626  0.7094  1.0000
  N   N12       1.0  0.25295  0.15421  0.80547  1.0000
  N   N13       1.0  0.56369  0.71351  0.92641  1.0000
  N   N14       1.0  0.6682400000000002  0.79789  0.8276799999999997  1.0000
  N   N15       1.0  0.8812700000000002  0.56232  0.79352  1.0000
  N   N16       1.0  0.74466  0.65051  0.69657  1.0000
  O   O1        1.0  0.3183600000000001  0.84135  0.52081  1.0000
  O   O2        1.0  0.09374999999999999  0.81736  0.42626  1.0000
  O   O3        1.0  0.3240400000000001  0.58486  0.2217  1.0000
  O   O4        1.0  0.57136  0.6485  0.17858999999999994  1.0000
  O   O5        1.0  0.16681  0.01611  0.3634299999999999  1.0000
  O   O6        1.0  0.36699  0.93048  0.31084  1.0000
  O   O7        1.0  0.03845  0.69335  0.13654  1.0000
  O   O8        1.0  0.7937300000000003  0.7442999999999997  0.06642  1.0000
  O   O9        1.0  0.9555000000000002  0.96264  0.4957799999999999  1.0000
  O   O10       1.0  0.56374  0.99361  0.4468399999999999  1.0000
  O   O11       1.0  0.6965300000000002  0.34118  0.9842999999999998  1.0000
  O   O12       1.0  0.9185800000000002  0.30599  0.07435  1.0000
  O   O13       1.0  0.6658600000000002  0.08174  0.27042  1.0000
  O   O14       1.0  0.42122  0.14019  0.31776  1.0000
  O   O15       1.0  0.8265500000000002  0.51118  0.13624  1.0000
  O   O16       1.0  0.6366500000000002  0.42203  0.19238  1.0000
  O   O17       1.0  0.95541  0.19677999999999995  0.36532  1.0000
  O   O18       1.0  0.20545  0.24651  0.4332  1.0000
  O   O19       1.0  0.08988  0.4275599999999999  0.0058699999999999985  1.0000
  O   O20       1.0  0.42335  0.49510999999999994  0.05964  1.0000
  O   O21       1.0  0.68116  0.1578  0.47967  1.0000
  O   O22       1.0  0.90532  0.18205  0.57426  1.0000
  O   O23       1.0  0.6701200000000003  0.41387  0.7806  1.0000
  O   O24       1.0  0.42462  0.34937  0.82288  1.0000
  O   O25       1.0  0.83182  0.9844899999999999  0.63718  1.0000
  O   O26       1.0  0.63613  0.06939  0.69375  1.0000
  O   O27       1.0  0.9581300000000003  0.30707  0.86184  1.0000
  O   O28       1.0  0.20597000000000004  0.2613  0.93343  1.0000
  O   O29       1.0  0.04249  0.03775  0.50413  1.0000
  O   O30       1.0  0.4326800000000001  0.00617  0.55011  1.0000
  O   O31       1.0  0.3134400000000001  0.6511099999999997  0.01153  1.0000
  O   O32       1.0  0.08939000000000005  0.69532  0.92658  1.0000
  O   O33       1.0  0.33687  0.9180199999999996  0.7296399999999997  1.0000
  O   O34       1.0  0.57897  0.85885  0.68075  1.0000
  O   O35       1.0  0.16908  0.49153999999999987  0.87146  1.0000
  O   O36       1.0  0.35876  0.5705  0.8058799999999999  1.0000
  O   O37       1.0  0.040689999999999955  0.80329  0.6353499999999997  1.0000
  O   O38       1.0  0.7943600000000002  0.75043  0.56557  1.0000
  O   O39       1.0  0.91106  0.56172  0.9976299999999999  1.0000
  O   O40       1.0  0.58436  0.50547  0.9490799999999999  1.0000
