data_image0
_chemical_formula_structural       Cu4H44C72N8O16
_chemical_formula_sum              "Cu4 H44 C72 N8 O16"
_cell_length_a       14.04481
_cell_length_b       13.632640000000002
_cell_length_c       15.84184
_cell_angle_alpha    104.61745
_cell_angle_beta     89.97887
_cell_angle_gamma    90.00234

_symmetry_space_group_name_H-M    'P 1'
_symmetry_Int_Tables_number       1

loop_
  _symmetry_equiv_pos_as_xyz
  'x,y,z'

loop_
  _atom_site_type_symbol
  _atom_site_label
  _atom_site_symmetry_multiplicity
  _atom_site_fract_x
  _atom_site_fract_y
  _atom_site_fract_z
  _atom_site_occupancy
  Cu  Cu1       1.0  0.05312  0.5239400000000001  0.5721099999999999  1.0000
  Cu  Cu2       1.0  0.55335  0.9759100000000002  0.4278699999999999  1.0000
  Cu  Cu3       1.0  0.9468699999999998  0.47606000000000004  0.42789  1.0000
  Cu  Cu4       1.0  0.4466499999999999  0.024089999999999997  0.57213  1.0000
  H   H1        1.0  0.25417999999999996  0.26302  0.50772  1.0000
  H   H2        1.0  0.39628  0.11069000000000004  0.27087  1.0000
  H   H3        1.0  0.15625999999999998  0.3076500000000001  0.26298  1.0000
  H   H4        1.0  0.44074  0.20227  0.17794  1.0000
  H   H5        1.0  0.4748599999999999  0.15887000000000004  0.02207  1.0000
  H   H6        1.0  0.16927  0.13427  0.97457  1.0000
  H   H7        1.0  0.14606  0.17725  0.13321  1.0000
  H   H8        1.0  0.49893  0.09094999999999993  0.8989199999999998  1.0000
  H   H9        1.0  0.53026  0.05111000000000002  0.74216  1.0000
  H   H10       1.0  0.24596  0.0769  0.68349  1.0000
  H   H11       1.0  0.20043999999999998  0.12195  0.83848  1.0000
  H   H12       1.0  0.75443  0.23675000000000004  0.49224  1.0000
  H   H13       1.0  0.89607  0.3896700000000001  0.72912  1.0000
  H   H14       1.0  0.6564699999999998  0.19222  0.73709  1.0000
  H   H15       1.0  0.9407999999999997  0.29753000000000007  0.82198  1.0000
  H   H16       1.0  0.9748699999999998  0.34082  0.97787  1.0000
  H   H17       1.0  0.6693199999999998  0.36592  0.02549  1.0000
  H   H18       1.0  0.64615  0.32302  0.86684  1.0000
  H   H19       1.0  0.9989299999999999  0.40896000000000005  0.101  1.0000
  H   H20       1.0  0.030209999999999994  0.44889  0.25775  1.0000
  H   H21       1.0  0.7458899999999998  0.4231600000000001  0.3165599999999999  1.0000
  H   H22       1.0  0.70043  0.37801  0.16157  1.0000
  H   H23       1.0  0.7458199999999998  0.7369800000000002  0.49228  1.0000
  H   H24       1.0  0.6037099999999999  0.8893  0.72913  1.0000
  H   H25       1.0  0.84374  0.6923500000000001  0.73702  1.0000
  H   H26       1.0  0.55925  0.7977300000000003  0.8220499999999997  1.0000
  H   H27       1.0  0.52514  0.84113  0.97792  1.0000
  H   H28       1.0  0.8307199999999998  0.86573  0.02543  1.0000
  H   H29       1.0  0.8539299999999997  0.8227500000000002  0.86679  1.0000
  H   H30       1.0  0.50106  0.90904  0.10107  1.0000
  H   H31       1.0  0.46972999999999987  0.9488900000000002  0.25783  1.0000
  H   H32       1.0  0.75403  0.9230900000000001  0.31651  1.0000
  H   H33       1.0  0.7995499999999999  0.8780500000000002  0.16152  1.0000
  H   H34       1.0  0.24556  0.7632400000000003  0.50776  1.0000
  H   H35       1.0  0.10391999999999997  0.61033  0.27088  1.0000
  H   H36       1.0  0.3435299999999999  0.8077800000000002  0.26291  1.0000
  H   H37       1.0  0.05918999999999999  0.70247  0.17802  1.0000
  H   H38       1.0  0.02512  0.6591700000000003  0.02212  1.0000
  H   H39       1.0  0.33068  0.6340700000000001  0.9745  1.0000
  H   H40       1.0  0.35384  0.67698  0.13315  1.0000
  H   H41       1.0  0.00106  0.5910400000000002  0.8989899999999997  1.0000
  H   H42       1.0  0.9697799999999998  0.5511  0.74224  1.0000
  H   H43       1.0  0.2541  0.57683  0.6834399999999998  1.0000
  H   H44       1.0  0.2995599999999999  0.62199  0.83842  1.0000
  C   C1        1.0  0.19845  0.29172  0.38901  1.0000
  C   C2        1.0  0.26091  0.24695000000000006  0.43723  1.0000
  C   C3        1.0  0.33123999999999987  0.18054000000000006  0.39358  1.0000
  C   C4        1.0  0.3408299999999999  0.16228  0.30308  1.0000
  C   C5        1.0  0.27852  0.20758000000000001  0.25525  1.0000
  C   C6        1.0  0.20573  0.27103  0.2980699999999999  1.0000
  C   C7        1.0  0.3842299999999999  0.18357000000000004  0.12994  1.0000
  C   C8        1.0  0.40093  0.15954  0.04245  1.0000
  C   C9        1.0  0.32559  0.13953000000000004  0.97945  1.0000
  C   C10       1.0  0.23181999999999994  0.14901  0.01637  1.0000
  C   C11       1.0  0.21658  0.17313  0.10452  1.0000
  C   C12       1.0  0.34532  0.11266000000000001  0.887  1.0000
  C   C13       1.0  0.43956999999999996  0.09095  0.85496  1.0000
  C   C14       1.0  0.45806  0.06729000000000003  0.76654  1.0000
  C   C15       1.0  0.2999099999999999  0.08136  0.73369  1.0000
  C   C16       1.0  0.27488  0.10622  0.82138  1.0000
  C   C17       1.0  0.12485  0.36635  0.43397  1.0000
  C   C18       1.0  0.39596  0.12381  0.44019  1.0000
  C   C19       1.0  0.69865  0.20821  0.61096  1.0000
  C   C20       1.0  0.7611199999999998  0.25307  0.56274  1.0000
  C   C21       1.0  0.8313799999999999  0.3196  0.60636  1.0000
  C   C22       1.0  0.84076  0.33795  0.69689  1.0000
  C   C23       1.0  0.7785299999999998  0.29252  0.74471  1.0000
  C   C24       1.0  0.7058399999999998  0.2289  0.70191  1.0000
  C   C25       1.0  0.8842699999999999  0.31629  0.86999  1.0000
  C   C26       1.0  0.90096  0.34026  0.9574999999999998  1.0000
  C   C27       1.0  0.8256199999999998  0.3604  0.020519999999999997  1.0000
  C   C28       1.0  0.73186  0.35110000000000013  0.98367  1.0000
  C   C29       1.0  0.7166499999999998  0.32705  0.8955  1.0000
  C   C30       1.0  0.84532  0.3873  0.11300999999999999  1.0000
  C   C31       1.0  0.9395499999999998  0.40899000000000013  0.14497  1.0000
  C   C32       1.0  0.9580299999999998  0.43270000000000014  0.23342  1.0000
  C   C33       1.0  0.79987  0.41866000000000003  0.2663399999999999  1.0000
  C   C34       1.0  0.77485  0.39374000000000003  0.17863  1.0000
  C   C35       1.0  0.6249099999999997  0.13369  0.56596  1.0000
  C   C36       1.0  0.89661  0.37606  0.55986  1.0000
  C   C37       1.0  0.8015399999999998  0.70828  0.61099  1.0000
  C   C38       1.0  0.7390799999999997  0.7530500000000002  0.56276  1.0000
  C   C39       1.0  0.6687499999999997  0.81946  0.60641  1.0000
  C   C40       1.0  0.65917  0.8377099999999998  0.6969199999999999  1.0000
  C   C41       1.0  0.7214699999999998  0.79242  0.74475  1.0000
  C   C42       1.0  0.7942599999999997  0.72896  0.70193  1.0000
  C   C43       1.0  0.61577  0.81643  0.87005  1.0000
  C   C44       1.0  0.59906  0.8404500000000003  0.95755  1.0000
  C   C45       1.0  0.6744  0.8604700000000002  0.02054  1.0000
  C   C46       1.0  0.76817  0.8509900000000002  0.98363  1.0000
  C   C47       1.0  0.78341  0.82687  0.89548  1.0000
  C   C48       1.0  0.65467  0.8873400000000002  0.11299999999999998  1.0000
  C   C49       1.0  0.56042  0.90904  0.14503999999999995  1.0000
  C   C50       1.0  0.54193  0.93271  0.23345  1.0000
  C   C51       1.0  0.7000799999999998  0.91864  0.2663  1.0000
  C   C52       1.0  0.72511  0.89378  0.17861999999999995  1.0000
  C   C53       1.0  0.87514  0.63365  0.5660299999999998  1.0000
  C   C54       1.0  0.60404  0.87618  0.5598  1.0000
  C   C55       1.0  0.30134999999999995  0.79179  0.38903999999999994  1.0000
  C   C56       1.0  0.23886999999999994  0.7469300000000001  0.43726  1.0000
  C   C57       1.0  0.16861  0.6804  0.39364  1.0000
  C   C58       1.0  0.15922999999999995  0.66205  0.3031  1.0000
  C   C59       1.0  0.22146  0.7074800000000001  0.25529  1.0000
  C   C60       1.0  0.29415  0.7711  0.29808  1.0000
  C   C61       1.0  0.11571999999999999  0.6837  0.13001  1.0000
  C   C62       1.0  0.09902999999999998  0.6597400000000002  0.04249  1.0000
  C   C63       1.0  0.17437  0.6395900000000002  0.9794799999999998  1.0000
  C   C64       1.0  0.26813  0.6489  0.01633  1.0000
  C   C65       1.0  0.28334  0.6729500000000003  0.10448999999999997  1.0000
  C   C66       1.0  0.15467  0.6127000000000001  0.88699  1.0000
  C   C67       1.0  0.06044  0.591  0.85502  1.0000
  C   C68       1.0  0.04195999999999999  0.5673  0.7665799999999998  1.0000
  C   C69       1.0  0.20012  0.5813400000000001  0.73366  1.0000
  C   C70       1.0  0.22514  0.6062600000000002  0.82136  1.0000
  C   C71       1.0  0.37508  0.8663100000000002  0.43403  1.0000
  C   C72       1.0  0.10338  0.62394  0.44013  1.0000
  N   N1        1.0  0.39039  0.06201000000000001  0.70463  1.0000
  N   N2        1.0  0.29215  0.1897  0.16351  1.0000
  N   N3        1.0  0.8903199999999998  0.43799999999999994  0.29532  1.0000
  N   N4        1.0  0.7922099999999997  0.31035000000000007  0.83648  1.0000
  N   N5        1.0  0.6096  0.9379900000000002  0.29536  1.0000
  N   N6        1.0  0.70784  0.8103  0.83648  1.0000
  N   N7        1.0  0.10966999999999999  0.562  0.70468  1.0000
  N   N8        1.0  0.20779  0.6896500000000002  0.16352  1.0000
  O   O1        1.0  0.14253  0.41441  0.51236  1.0000
  O   O2        1.0  0.05222  0.3757200000000001  0.38823  1.0000
  O   O3        1.0  0.4671  0.08094  0.39595  1.0000
  O   O4        1.0  0.37354  0.12070000000000006  0.51728  1.0000
  O   O5        1.0  0.6426  0.08566  0.48759  1.0000
  O   O6        1.0  0.55215  0.12458  0.61169  1.0000
  O   O7        1.0  0.96734  0.4192500000000001  0.60445  1.0000
  O   O8        1.0  0.8753499999999999  0.37851  0.4824  1.0000
  O   O9        1.0  0.85746  0.5855900000000002  0.4876299999999999  1.0000
  O   O10       1.0  0.9477699999999998  0.6242800000000001  0.61176  1.0000
  O   O11       1.0  0.53289  0.91905  0.60405  1.0000
  O   O12       1.0  0.6264499999999998  0.8793000000000002  0.48272  1.0000
  O   O13       1.0  0.35739  0.91434  0.51241  1.0000
  O   O14       1.0  0.4478399999999999  0.8754200000000001  0.3883099999999999  1.0000
  O   O15       1.0  0.03266  0.58075  0.39555  1.0000
  O   O16       1.0  0.12464  0.62149  0.5176  1.0000
