data_image0
_chemical_formula_structural       Pr4H18C48O30
_chemical_formula_sum              "Pr4 H18 C48 O30"
_cell_length_a       14.11949
_cell_length_b       14.18152
_cell_length_c       14.180829999999998
_cell_angle_alpha    60.37652
_cell_angle_beta     75.35282
_cell_angle_gamma    104.64692

_space_group_name_H-M_alt    "P 1"
_space_group_IT_number       1

loop_
  _space_group_symop_operation_xyz
  'x, y, z'

loop_
  _atom_site_type_symbol
  _atom_site_label
  _atom_site_symmetry_multiplicity
  _atom_site_fract_x
  _atom_site_fract_y
  _atom_site_fract_z
  _atom_site_occupancy
  Pr  Pr1       1.0  0.5464199999999999  0.7003  0.43913000000000013  1.0000
  Pr  Pr2       1.0  0.45230999999999993  0.013919999999999882  0.8433400000000002  1.0000
  Pr  Pr3       1.0  0.63884  0.90611  0.04798000000000001  1.0000
  Pr  Pr4       1.0  0.35847999999999997  0.31081000000000003  0.73515  1.0000
  H   H1        1.0  0.4123999999999999  0.67497  0.2822  1.0000
  H   H2        1.0  0.21946999999999992  0.56907  0.12908000000000003  1.0000
  H   H3        1.0  0.19033999999999995  0.29801  0.47969  1.0000
  H   H4        1.0  0.43038999999999983  0.4010300000000001  0.9359600000000002  1.0000
  H   H5        1.0  0.58712  0.30529999999999996  0.7367600000000001  1.0000
  H   H6        1.0  0.7803999999999998  0.6509  0.65056  1.0000
  H   H7        1.0  0.80954  0.3297300000000002  0.89242  1.0000
  H   H8        1.0  0.56978  0.63374  0.029680000000000005  1.0000
  H   H9        1.0  0.45734999999999987  0.01354  0.07393  1.0000
  H   H10       1.0  0.19794000000000003  0.09984000000000005  0.18096  1.0000
  H   H11       1.0  0.27803999999999995  0.8579200000000001  0.45137  1.0000
  H   H12       1.0  0.8364199999999999  0.72045  0.34919  1.0000
  H   H13       1.0  0.54242  0.4681100000000002  0.44427  1.0000
  H   H14       1.0  0.8019600000000001  0.6212600000000003  0.09809  1.0000
  H   H15       1.0  0.7222900000000001  0.27114  0.4194400000000001  1.0000
  H   H16       1.0  0.16322000000000003  0.81452  0.11594000000000002  1.0000
  H   H17       1.0  0.50016  0.77892  0.72103  1.0000
  H   H18       1.0  0.9997299999999998  0.029199999999999955  0.97095  1.0000
  C   C1        1.0  0.3051199999999999  0.48221  0.39241  1.0000
  C   C2        1.0  0.3521099999999999  0.6039  0.28912  1.0000
  C   C3        1.0  0.3221200000000001  0.6349000000000001  0.19382  1.0000
  C   C4        1.0  0.24403999999999998  0.5458300000000001  0.20135  1.0000
  C   C5        1.0  0.19331999999999996  0.4202200000000001  0.30582000000000004  1.0000
  C   C6        1.0  0.22757  0.39200000000000007  0.40071  1.0000
  C   C7        1.0  0.3347799999999999  0.44802999999999993  0.4952  1.0000
  C   C8        1.0  0.3726899999999999  0.76334  0.08344  1.0000
  C   C9        1.0  0.46042999999999995  0.5873099999999999  0.8203200000000002  1.0000
  C   C10       1.0  0.4598599999999999  0.48980000000000007  0.9177600000000001  1.0000
  C   C11       1.0  0.42326999999999987  0.56848  0.7375500000000003  1.0000
  C   C12       1.0  0.69513  0.30324000000000007  0.82154  1.0000
  C   C13       1.0  0.64727  0.3589000000000001  0.7475400000000002  1.0000
  C   C14       1.0  0.6774499999999999  0.4838399999999999  0.6870600000000001  1.0000
  C   C15       1.0  0.7555999999999998  0.55413  0.69827  1.0000
  C   C16       1.0  0.8063100000000001  0.5002600000000003  0.77336  1.0000
  C   C17       1.0  0.7721699999999999  0.37152999999999997  0.83543  1.0000
  C   C18       1.0  0.6657599999999999  0.1711499999999999  0.8863000000000001  1.0000
  C   C19       1.0  0.6266700000000001  0.5430400000000001  0.60969  1.0000
  C   C20       1.0  0.5400799999999999  0.7194999999999998  0.8729400000000003  1.0000
  C   C21       1.0  0.54038  0.6226300000000001  0.97019  1.0000
  C   C22       1.0  0.5765599999999996  0.8391500000000001  0.85499  1.0000
  C   C23       1.0  0.37484  0.9280100000000002  0.26672  1.0000
  C   C24       1.0  0.39336  0.0029699999999999796  0.14493000000000003  1.0000
  C   C25       1.0  0.3285999999999999  0.06338999999999999  0.11420000000000001  1.0000
  C   C26       1.0  0.24724999999999997  0.052199999999999996  0.20364000000000002  1.0000
  C   C27       1.0  0.22622999999999993  0.9772499999999998  0.32925000000000004  1.0000
  C   C28       1.0  0.2929699999999999  0.91479  0.35731  1.0000
  C   C29       1.0  0.44323  0.8638700000000002  0.30077  1.0000
  C   C30       1.0  0.34644999999999987  0.14085999999999987  0.9860000000000002  1.0000
  C   C31       1.0  0.9070999999999998  0.87686  0.16268  1.0000
  C   C32       1.0  0.9069799999999998  0.7799499999999999  0.26018  1.0000
  C   C33       1.0  0.80513  0.8949500000000002  0.18155  1.0000
  C   C34       1.0  0.6251799999999995  0.35837  0.44658000000000003  1.0000
  C   C35       1.0  0.6069699999999999  0.4618099999999999  0.3905800000000001  1.0000
  C   C36       1.0  0.6713  0.5568600000000001  0.2652900000000001  1.0000
  C   C37       1.0  0.7529199999999999  0.5492100000000001  0.19488  1.0000
  C   C38       1.0  0.7742399999999998  0.44479  0.2484  1.0000
  C   C39       1.0  0.70741  0.35018  0.37742  1.0000
  C   C40       1.0  0.55733  0.25558000000000003  0.57944  1.0000
  C   C41       1.0  0.65291  0.66714  0.20688000000000004  1.0000
  C   C42       1.0  0.09255000000000001  0.93017  0.030170000000000002  1.0000
  C   C43       1.0  0.09268  0.83302  0.12716  1.0000
  C   C44       1.0  0.19421999999999992  0.012889999999999895  0.9103800000000001  1.0000
  C   C45       1.0  0.5001  0.50352  0.99669  1.0000
  C   C46       1.0  0.5000999999999999  0.70258  0.79744  1.0000
  C   C47       1.0  0.9999499999999999  0.75381  0.24641  1.0000
  C   C48       1.0  0.9996999999999999  0.9528200000000001  0.04717000000000001  1.0000
  O   O1        1.0  0.39251  0.53047  0.49972  1.0000
  O   O2        1.0  0.2994599999999999  0.3361800000000001  0.5786800000000001  1.0000
  O   O3        1.0  0.45555  0.8466200000000003  0.06504  1.0000
  O   O4        1.0  0.33457  0.7917100000000001  0.00708  1.0000
  O   O5        1.0  0.12216000000000002  0.33799000000000007  0.31378  1.0000
  O   O6        1.0  0.45546  0.66177  0.63001  1.0000
  O   O7        1.0  0.36703999999999987  0.46017  0.77607  1.0000
  O   O8        1.0  0.6074899999999998  0.10783000000000004  0.86267  1.0000
  O   O9        1.0  0.70093  0.12347999999999988  0.9633300000000002  1.0000
  O   O10       1.0  0.543  0.4778299999999999  0.6108300000000001  1.0000
  O   O11       1.0  0.6664499999999997  0.6575500000000001  0.54219  1.0000
  O   O12       1.0  0.87767  0.5631999999999999  0.7845800000000002  1.0000
  O   O13       1.0  0.54447  0.9143400000000002  0.7927600000000002  1.0000
  O   O14       1.0  0.6324899999999999  0.8570000000000003  0.90737  1.0000
  O   O15       1.0  0.5297499999999999  0.8888100000000002  0.21728  1.0000
  O   O16       1.0  0.4160099999999999  0.7870500000000002  0.41218000000000005  1.0000
  O   O17       1.0  0.41115999999999997  0.1398999999999999  0.9038300000000001  1.0000
  O   O18       1.0  0.29797999999999997  0.20707999999999993  0.9591900000000001  1.0000
  O   O19       1.0  0.15194000000000007  0.9660100000000004  0.41168  1.0000
  O   O20       1.0  0.7912600000000001  0.95594  0.08797  1.0000
  O   O21       1.0  0.7350699999999999  0.84274  0.28996  1.0000
  O   O22       1.0  0.46982  0.24957000000000004  0.64341  1.0000
  O   O23       1.0  0.58598  0.17236  0.62807  1.0000
  O   O24       1.0  0.5886800000000001  0.68352  0.274  1.0000
  O   O25       1.0  0.6992100000000001  0.7433800000000003  0.09262000000000001  1.0000
  O   O26       1.0  0.8484999999999998  0.4367900000000001  0.18510000000000004  1.0000
  O   O27       1.0  0.20755000000000007  0.12012000000000007  0.83608  1.0000
  O   O28       1.0  0.2643900000000001  0.9745200000000005  0.89192  1.0000
  O   O29       1.0  0.49998999999999993  0.4145500000000001  0.08553  1.0000
  O   O30       1.0  0.9998199999999999  0.6647600000000002  0.33522  1.0000
