data_image0
_chemical_formula_structural       Mn4H48C64N8O16
_chemical_formula_sum              "Mn4 H48 C64 N8 O16"
_cell_length_a       10.08329
_cell_length_b       11.61422
_cell_length_c       16.98384
_cell_angle_alpha    90.23934
_cell_angle_beta     90.23078
_cell_angle_gamma    95.00611

_space_group_name_H-M_alt    "P 1"
_space_group_IT_number       1

loop_
  _space_group_symop_operation_xyz
  'x, y, z'

loop_
  _atom_site_type_symbol
  _atom_site_label
  _atom_site_symmetry_multiplicity
  _atom_site_fract_x
  _atom_site_fract_y
  _atom_site_fract_z
  _atom_site_occupancy
  Mn  Mn1       1.0  0.25047  0.49985999999999997  0.9985  1.0000
  Mn  Mn2       1.0  0.74962  0.99775  0.49795999999999996  1.0000
  Mn  Mn3       1.0  0.74954  0.50014  0.00151  1.0000
  Mn  Mn4       1.0  0.25039  0.0022500000000000003  0.50204  1.0000
  H   H1        1.0  0.30372  0.47772  0.1838  1.0000
  H   H2        1.0  0.47500999999999993  0.37251  0.92534  1.0000
  H   H3        1.0  0.53242  0.2677  0.80514  1.0000
  H   H4        1.0  0.25497  0.56895  0.31307  1.0000
  H   H5        1.0  0.17953  0.7325  0.38674  1.0000
  H   H6        1.0  0.97232  0.8634399999999999  0.2986  1.0000
  H   H7        1.0  0.57476  0.20166  0.69375  1.0000
  H   H8        1.0  0.14964  0.33579  0.70867  1.0000
  H   H9        1.0  0.10536000000000001  0.4347  0.83582  1.0000
  H   H10       1.0  0.0744  0.83332  0.18211  1.0000
  H   H11       1.0  0.12988999999999998  0.7298399999999999  0.05956  1.0000
  H   H12       1.0  0.29196  0.22160999999999997  0.62885  1.0000
  H   H13       1.0  0.70043  0.018659999999999996  0.68115  1.0000
  H   H14       1.0  0.52747  0.12786  0.42395  1.0000
  H   H15       1.0  0.47093  0.23286  0.30374  1.0000
  H   H16       1.0  0.74618  0.92788  0.81079  1.0000
  H   H17       1.0  0.82096  0.7658  0.88502  1.0000
  H   H18       1.0  0.02648999999999999  0.6313  0.79841  1.0000
  H   H19       1.0  0.42551  0.29139  0.18998  1.0000
  H   H20       1.0  0.8527000000000001  0.16192  0.20897  1.0000
  H   H21       1.0  0.8957499999999999  0.06257  0.33562  1.0000
  H   H22       1.0  0.9249200000000001  0.66046  0.68128  1.0000
  H   H23       1.0  0.8723599999999999  0.76355  0.55824  1.0000
  H   H24       1.0  0.71221  0.28084  0.12976  1.0000
  H   H25       1.0  0.69629  0.52228  0.8162  1.0000
  H   H26       1.0  0.52499  0.62748  0.07466  1.0000
  H   H27       1.0  0.46758000000000005  0.7323  0.19486  1.0000
  H   H28       1.0  0.74503  0.43105  0.68693  1.0000
  H   H29       1.0  0.8204699999999999  0.2675  0.61327  1.0000
  H   H30       1.0  0.027680000000000003  0.13656  0.70141  1.0000
  H   H31       1.0  0.42524  0.7983399999999999  0.30625  1.0000
  H   H32       1.0  0.85037  0.66421  0.29133  1.0000
  H   H33       1.0  0.89464  0.56529  0.16418  1.0000
  H   H34       1.0  0.92561  0.16668  0.81789  1.0000
  H   H35       1.0  0.8701099999999999  0.27016  0.94045  1.0000
  H   H36       1.0  0.70804  0.77839  0.37115  1.0000
  H   H37       1.0  0.29957999999999996  0.98134  0.31885  1.0000
  H   H38       1.0  0.47253  0.8721399999999999  0.57605  1.0000
  H   H39       1.0  0.52907  0.76714  0.69626  1.0000
  H   H40       1.0  0.25383  0.07211  0.18921  1.0000
  H   H41       1.0  0.17905  0.2342  0.11498  1.0000
  H   H42       1.0  0.97351  0.3687  0.20159  1.0000
  H   H43       1.0  0.5745  0.7086099999999997  0.81003  1.0000
  H   H44       1.0  0.14729999999999996  0.8380799999999998  0.79103  1.0000
  H   H45       1.0  0.10425999999999999  0.9374199999999998  0.66438  1.0000
  H   H46       1.0  0.07508  0.33953  0.31872  1.0000
  H   H47       1.0  0.12764  0.23645  0.44176  1.0000
  H   H48       1.0  0.28779  0.7191599999999999  0.87024  1.0000
  C   C1        1.0  0.25207  0.55598  0.18674  1.0000
  C   C2        1.0  0.40510000000000007  0.36191999999999996  0.87616  1.0000
  C   C3        1.0  0.4366999999999999  0.30384  0.80828  1.0000
  C   C4        1.0  0.22456  0.60741  0.25825  1.0000
  C   C5        1.0  0.12578  0.76027  0.33533  1.0000
  C   C6        1.0  0.03331  0.83595  0.34701  1.0000
  C   C7        1.0  0.49041  0.19234999999999997  0.6534  1.0000
  C   C8        1.0  0.22419  0.34175  0.75539  1.0000
  C   C9        1.0  0.19907  0.39732  0.8258  1.0000
  C   C10       1.0  0.12446999999999998  0.75423  0.18604  1.0000
  C   C11       1.0  0.15727  0.70877  0.25981  1.0000
  C   C12       1.0  0.15593  0.69761  0.11715  1.0000
  C   C13       1.0  0.34595  0.29266  0.74503  1.0000
  C   C14       1.0  0.37315  0.23369  0.67156  1.0000
  C   C15       1.0  0.99459  0.87478  0.42682  1.0000
  C   C16       1.0  0.5143  0.13363999999999998  0.5776  1.0000
  C   C17       1.0  0.75075  0.93975  0.68455  1.0000
  C   C18       1.0  0.59707  0.13754  0.37494  1.0000
  C   C19       1.0  0.56597  0.19560999999999995  0.30711  1.0000
  C   C20       1.0  0.77673  0.88863  0.75621  1.0000
  C   C21       1.0  0.87411  0.73651  0.83393  1.0000
  C   C22       1.0  0.96626  0.66078  0.84639  1.0000
  C   C23       1.0  0.51187  0.30379  0.15164  1.0000
  C   C24       1.0  0.77796  0.15629  0.25517  1.0000
  C   C25       1.0  0.80239  0.10049999999999998  0.32541  1.0000
  C   C26       1.0  0.87582  0.74017  0.68465  1.0000
  C   C27       1.0  0.84293  0.78673  0.75816  1.0000
  C   C28       1.0  0.84587  0.7965999999999998  0.61557  1.0000
  C   C29       1.0  0.65679  0.20608  0.24433999999999997  1.0000
  C   C30       1.0  0.6301  0.2655  0.17121  1.0000
  C   C31       1.0  0.0047600000000000055  0.62399  0.92661  1.0000
  C   C32       1.0  0.49011999999999994  0.36463999999999996  0.07669  1.0000
  C   C33       1.0  0.74793  0.44401  0.81326  1.0000
  C   C34       1.0  0.5949  0.63808  0.12384  1.0000
  C   C35       1.0  0.5633  0.69615  0.19172  1.0000
  C   C36       1.0  0.77544  0.3925899999999999  0.74176  1.0000
  C   C37       1.0  0.87422  0.23973  0.66468  1.0000
  C   C38       1.0  0.9667  0.16404999999999997  0.653  1.0000
  C   C39       1.0  0.5095899999999999  0.80765  0.34661  1.0000
  C   C40       1.0  0.77581  0.65825  0.24461  1.0000
  C   C41       1.0  0.80093  0.60267  0.1742  1.0000
  C   C42       1.0  0.8755399999999999  0.24576  0.81397  1.0000
  C   C43       1.0  0.8427300000000001  0.29122  0.74019  1.0000
  C   C44       1.0  0.84408  0.30238  0.88285  1.0000
  C   C45       1.0  0.65405  0.70734  0.25497  1.0000
  C   C46       1.0  0.62685  0.76631  0.32844  1.0000
  C   C47       1.0  0.00541  0.12522  0.57318  1.0000
  C   C48       1.0  0.48571  0.8663599999999999  0.4224  1.0000
  C   C49       1.0  0.24926  0.06025  0.31545  1.0000
  C   C50       1.0  0.40293999999999996  0.8624499999999999  0.62506  1.0000
  C   C51       1.0  0.4340300000000001  0.8043799999999999  0.69289  1.0000
  C   C52       1.0  0.22326999999999997  0.11136  0.24379  1.0000
  C   C53       1.0  0.12589  0.26348  0.16607  1.0000
  C   C54       1.0  0.03374  0.33921  0.15362  1.0000
  C   C55       1.0  0.48813  0.69621  0.84836  1.0000
  C   C56       1.0  0.22204  0.84371  0.74483  1.0000
  C   C57       1.0  0.19761  0.8995  0.6746  1.0000
  C   C58       1.0  0.12418000000000001  0.25983  0.31536  1.0000
  C   C59       1.0  0.15707  0.21327  0.24184  1.0000
  C   C60       1.0  0.15413  0.20339999999999997  0.38443  1.0000
  C   C61       1.0  0.34321  0.79392  0.75566  1.0000
  C   C62       1.0  0.36991  0.7345  0.82879  1.0000
  C   C63       1.0  0.99524  0.37601  0.07339  1.0000
  C   C64       1.0  0.50988  0.63535  0.92332  1.0000
  N   N1        1.0  0.21815  0.59906  0.1164  1.0000
  N   N2        1.0  0.28749  0.40802  0.88571  1.0000
  N   N3        1.0  0.78495  0.8958799999999999  0.61447  1.0000
  N   N4        1.0  0.71404  0.09047  0.38488  1.0000
  N   N5        1.0  0.78185  0.40094  0.8836  1.0000
  N   N6        1.0  0.71251  0.59197  0.11429  1.0000
  N   N7        1.0  0.21505  0.10411999999999999  0.38553  1.0000
  N   N8        1.0  0.28597  0.90953  0.61513  1.0000
  O   O1        1.0  0.63236  0.10323999999999998  0.5677  1.0000
  O   O2        1.0  0.41979  0.11981  0.52738  1.0000
  O   O3        1.0  0.07892  0.88471  0.48288  1.0000
  O   O4        1.0  0.8707700000000002  0.8902399999999999  0.43273  1.0000
  O   O5        1.0  0.3737  0.39914  0.06762  1.0000
  O   O6        1.0  0.58484  0.37714  0.02702  1.0000
  O   O7        1.0  0.9208700000000001  0.6180499999999999  0.9826  1.0000
  O   O8        1.0  0.12788  0.60617  0.93297  1.0000
  O   O9        1.0  0.36765  0.89676  0.43231  1.0000
  O   O10       1.0  0.58021  0.8801899999999999  0.47262  1.0000
  O   O11       1.0  0.92108  0.11528999999999999  0.51712  1.0000
  O   O12       1.0  0.12923  0.10976  0.56727  1.0000
  O   O13       1.0  0.6263  0.60086  0.93238  1.0000
  O   O14       1.0  0.41516000000000003  0.62286  0.9729799999999998  1.0000
  O   O15       1.0  0.07913  0.38195  0.01741  1.0000
  O   O16       1.0  0.87213  0.39382999999999996  0.06704  1.0000
