data_image0
_chemical_formula_structural       Co4H56C68O24
_chemical_formula_sum              "Co4 H56 C68 O24"
_cell_length_a       10.06638
_cell_length_b       13.789510000000002
_cell_length_c       14.15535
_cell_angle_alpha    60.69180000000001
_cell_angle_beta     83.02297
_cell_angle_gamma    75.68166

_space_group_name_H-M_alt    "P 1"
_space_group_IT_number       1

loop_
  _space_group_symop_operation_xyz
  'x, y, z'

loop_
  _atom_site_type_symbol
  _atom_site_label
  _atom_site_symmetry_multiplicity
  _atom_site_fract_x
  _atom_site_fract_y
  _atom_site_fract_z
  _atom_site_occupancy
  Co  Co1       1.0  0.74988  0.5766  0.84803  1.0000
  Co  Co2       1.0  0.2501700000000001  0.42307999999999996  0.15268999999999996  1.0000
  Co  Co3       1.0  0.50043  0.49915  0.0005599999999999998  1.0000
  Co  Co4       1.0  0.9997600000000001  0.5001599999999999  0.00033999999999999997  1.0000
  H   H1        1.0  0.71218  0.15776999999999997  0.15473999999999996  1.0000
  H   H2        1.0  0.83489  0.95692  0.21852999999999995  1.0000
  H   H3        1.0  0.27434000000000003  0.51216  0.76666  1.0000
  H   H4        1.0  0.6059500000000001  0.6335699999999997  0.5530199999999998  1.0000
  H   H5        1.0  0.19173  0.07159  0.037149999999999996  1.0000
  H   H6        1.0  0.06556000000000002  0.27324999999999994  0.97329  1.0000
  H   H7        1.0  0.14446999999999996  0.5450100000000001  0.6100499999999999  1.0000
  H   H8        1.0  0.4771800000000001  0.6677299999999999  0.39658999999999994  1.0000
  H   H9        1.0  0.10868999999999998  0.61819  0.26939  1.0000
  H   H10       1.0  0.19103  0.70937  0.15377  1.0000
  H   H11       1.0  0.006280000000000079  0.7921  0.3008  1.0000
  H   H12       1.0  0.9493700000000002  0.80551  0.17858  1.0000
  H   H13       1.0  0.29940000000000005  0.7538799999999999  0.28135999999999994  1.0000
  H   H14       1.0  0.35882000000000014  0.6133499999999998  0.29814999999999997  1.0000
  H   H15       1.0  0.7883200000000001  0.68713  0.15449  1.0000
  H   H16       1.0  0.6655700000000001  0.8238999999999997  0.21829  1.0000
  H   H17       1.0  0.22642  0.7218600000000001  0.7665499999999998  1.0000
  H   H18       1.0  0.8943300000000001  0.81338  0.55447  1.0000
  H   H19       1.0  0.3083800000000001  0.8909599999999998  0.03758999999999999  1.0000
  H   H20       1.0  0.4344600000000001  0.7534000000000001  0.9738299999999999  1.0000
  H   H21       1.0  0.3563  0.8457899999999999  0.60914  1.0000
  H   H22       1.0  0.02298000000000008  0.9356999999999999  0.3967  1.0000
  H   H23       1.0  0.39212000000000014  0.11259000000000001  0.26831999999999995  1.0000
  H   H24       1.0  0.31001  0.13708999999999993  0.15284  1.0000
  H   H25       1.0  0.49401000000000006  0.90677  0.3004899999999999  1.0000
  H   H26       1.0  0.55125  0.015669999999999993  0.17805  1.0000
  H   H27       1.0  0.2008400000000001  0.96461  0.28136999999999995  1.0000
  H   H28       1.0  0.14173000000000002  0.08898000000000002  0.29699999999999993  1.0000
  H   H29       1.0  0.28833000000000014  0.8415399999999998  0.8456899999999999  1.0000
  H   H30       1.0  0.16549  0.04246000000000007  0.7815299999999998  1.0000
  H   H31       1.0  0.7259199999999999  0.48769  0.23365999999999995  1.0000
  H   H32       1.0  0.39405999999999997  0.36654000000000003  0.44704  1.0000
  H   H33       1.0  0.8087200000000001  0.9277399999999998  0.9634399999999997  1.0000
  H   H34       1.0  0.9350500000000002  0.7261999999999998  0.02733  1.0000
  H   H35       1.0  0.85584  0.45464999999999994  0.39022999999999997  1.0000
  H   H36       1.0  0.523  0.33175  0.6037899999999999  1.0000
  H   H37       1.0  0.89147  0.38136  0.7310799999999997  1.0000
  H   H38       1.0  0.8092400000000001  0.29008  0.84661  1.0000
  H   H39       1.0  0.9939400000000002  0.20768999999999999  0.69937  1.0000
  H   H40       1.0  0.05089000000000004  0.19404999999999992  0.8217  1.0000
  H   H41       1.0  0.70075  0.24570999999999998  0.71898  1.0000
  H   H42       1.0  0.6413200000000001  0.38627  0.7022899999999997  1.0000
  H   H43       1.0  0.21150000000000005  0.3129399999999999  0.8456099999999999  1.0000
  H   H44       1.0  0.33447999999999994  0.17648000000000005  0.7814899999999998  1.0000
  H   H45       1.0  0.7736  0.27815  0.23363999999999996  1.0000
  H   H46       1.0  0.10579999999999999  0.18618  0.4458  1.0000
  H   H47       1.0  0.69167  0.10916000000000013  0.9625699999999998  1.0000
  H   H48       1.0  0.56534  0.24639  0.026669999999999996  1.0000
  H   H49       1.0  0.64361  0.1541800000000001  0.3909499999999999  1.0000
  H   H50       1.0  0.9772500000000001  0.06370000000000005  0.60349  1.0000
  H   H51       1.0  0.60758  0.88767  0.7317399999999997  1.0000
  H   H52       1.0  0.6897  0.8629000000000001  0.84727  1.0000
  H   H53       1.0  0.50611  0.09348999999999995  0.6995499999999999  1.0000
  H   H54       1.0  0.4486099999999999  0.98462  0.8220399999999998  1.0000
  H   H55       1.0  0.79917  0.03532999999999997  0.71878  1.0000
  H   H56       1.0  0.8581000000000001  0.9108699999999998  0.7032  1.0000
  C   C1        1.0  0.87889  0.22881  0.05642  1.0000
  C   C2        1.0  0.020700000000000007  0.0017300000000000013  0.12891  1.0000
  C   C3        1.0  0.5226500000000001  0.55617  0.7613099999999998  1.0000
  C   C4        1.0  0.8163500000000001  0.13848999999999997  0.12766  1.0000
  C   C5        1.0  0.8856200000000001  0.025440000000000008  0.1639  1.0000
  C   C6        1.0  0.3012100000000001  0.6096599999999998  0.49426  1.0000
  C   C7        1.0  0.44926000000000005  0.5701199999999998  0.6697  1.0000
  C   C8        1.0  0.31886  0.54415  0.68594  1.0000
  C   C9        1.0  0.80081  0.3480099999999999  0.00914  1.0000
  C   C10       1.0  0.50463  0.6146999999999998  0.56476  1.0000
  C   C11       1.0  0.08583  0.09178999999999997  0.06053999999999998  1.0000
  C   C12       1.0  0.01557  0.20342  0.025199999999999993  1.0000
  C   C13       1.0  0.24610999999999997  0.56293  0.59945  1.0000
  C   C14       1.0  0.43188  0.6347999999999999  0.4769599999999999  1.0000
  C   C15       1.0  0.15130000000000002  0.6948499999999999  0.23433  1.0000
  C   C16       1.0  0.03879000000000015  0.7971099999999998  0.22172999999999995  1.0000
  C   C17       1.0  0.2689599999999999  0.6739600000000001  0.30457  1.0000
  C   C18       1.0  0.6213000000000001  0.7145599999999998  0.05652999999999998  1.0000
  C   C19       1.0  0.47973  0.8690399999999998  0.12888  1.0000
  C   C20       1.0  0.9776600000000001  0.6838400000000001  0.7621499999999999  1.0000
  C   C21       1.0  0.68408  0.73346  0.12753  1.0000
  C   C22       1.0  0.61487  0.8101899999999997  0.16373  1.0000
  C   C23       1.0  0.1991  0.89655  0.49388  1.0000
  C   C24       1.0  0.05135000000000013  0.7610199999999996  0.67019  1.0000
  C   C25       1.0  0.18192000000000003  0.77069  0.6858599999999999  1.0000
  C   C26       1.0  0.6990500000000001  0.6429299999999999  0.009029999999999998  1.0000
  C   C27       1.0  0.9957000000000003  0.82094  0.5654199999999999  1.0000
  C   C28       1.0  0.4143500000000001  0.8474299999999998  0.06082999999999999  1.0000
  C   C29       1.0  0.48453000000000007  0.7711799999999998  0.02559  1.0000
  C   C30       1.0  0.25456000000000006  0.8383699999999997  0.5989099999999999  1.0000
  C   C31       1.0  0.06837000000000013  0.8884699999999998  0.47705999999999993  1.0000
  C   C32       1.0  0.34943  0.07092000000000001  0.23351999999999998  1.0000
  C   C33       1.0  0.4616899999999999  0.98094  0.22126  1.0000
  C   C34       1.0  0.23147999999999994  0.021670000000000043  0.3038699999999999  1.0000
  C   C35       1.0  0.12168999999999994  0.7704700000000001  0.9442399999999997  1.0000
  C   C36       1.0  0.9797399999999998  0.9977199999999999  0.8713799999999999  1.0000
  C   C37       1.0  0.47745000000000004  0.4441099999999999  0.23886999999999994  1.0000
  C   C38       1.0  0.18421000000000007  0.8608099999999999  0.87287  1.0000
  C   C39       1.0  0.11487999999999995  0.97391  0.8364199999999999  1.0000
  C   C40       1.0  0.6989600000000001  0.38995  0.5060499999999999  1.0000
  C   C41       1.0  0.55081  0.43005  0.33051  1.0000
  C   C42       1.0  0.6813200000000001  0.45582000000000006  0.31433999999999995  1.0000
  C   C43       1.0  0.19943000000000016  0.6511  0.9918999999999998  1.0000
  C   C44       1.0  0.49541999999999997  0.38532  0.43545  1.0000
  C   C45       1.0  0.91463  0.9076599999999999  0.93993  1.0000
  C   C46       1.0  0.98501  0.7960100000000001  0.97537  1.0000
  C   C47       1.0  0.75416  0.43676999999999994  0.40088  1.0000
  C   C48       1.0  0.56827  0.36483000000000004  0.52338  1.0000
  C   C49       1.0  0.8488900000000001  0.3047  0.76601  1.0000
  C   C50       1.0  0.9614600000000001  0.20247999999999988  0.77852  1.0000
  C   C51       1.0  0.73115  0.3256500000000001  0.6957899999999998  1.0000
  C   C52       1.0  0.3784900000000001  0.2853700000000001  0.9438699999999998  1.0000
  C   C53       1.0  0.52019  0.1311900000000001  0.8711799999999997  1.0000
  C   C54       1.0  0.022330000000000023  0.31600999999999996  0.23825999999999994  1.0000
  C   C55       1.0  0.3157500000000001  0.26663000000000003  0.8726599999999998  1.0000
  C   C56       1.0  0.38502000000000003  0.19005  0.83627  1.0000
  C   C57       1.0  0.80084  0.10330999999999997  0.50628  1.0000
  C   C58       1.0  0.94864  0.2388299999999999  0.33012  1.0000
  C   C59       1.0  0.8180900000000001  0.22923000000000004  0.31434999999999996  1.0000
  C   C60       1.0  0.30079000000000006  0.35679999999999995  0.9916199999999997  1.0000
  C   C61       1.0  0.004360000000000003  0.17872  0.4348699999999999  1.0000
  C   C62       1.0  0.58563  0.1526600000000001  0.9393499999999998  1.0000
  C   C63       1.0  0.5153200000000002  0.22874  0.9747599999999997  1.0000
  C   C64       1.0  0.74536  0.16157  0.40122999999999986  1.0000
  C   C65       1.0  0.9316800000000001  0.11115000000000008  0.5231799999999999  1.0000
  C   C66       1.0  0.6504  0.9292  0.7666  1.0000
  C   C67       1.0  0.53823  0.019280000000000002  0.77881  1.0000
  C   C68       1.0  0.7684500000000002  0.9782799999999999  0.69629  1.0000
  O   O1        1.0  0.46002000000000004  0.5283  0.85195  1.0000
  O   O2        1.0  0.86638  0.42806000000000005  0.9435199999999998  1.0000
  O   O3        1.0  0.67341  0.3680499999999999  0.027089999999999996  1.0000
  O   O4        1.0  0.64492  0.5750699999999999  0.74344  1.0000
  O   O5        1.0  0.09862999999999994  0.8957000000000002  0.15716999999999998  1.0000
  O   O6        1.0  0.21918000000000004  0.62711  0.4150999999999999  1.0000
  O   O7        1.0  0.040559999999999964  0.6199700000000001  0.8525399999999997  1.0000
  O   O8        1.0  0.63309  0.6282899999999999  0.9440299999999999  1.0000
  O   O9        1.0  0.8266200000000001  0.60549  0.02582  1.0000
  O   O10       1.0  0.8545700000000002  0.6842199999999998  0.74474  1.0000
  O   O11       1.0  0.40190999999999993  0.94681  0.15703  1.0000
  O   O12       1.0  0.2810600000000001  0.95826  0.4143699999999999  1.0000
  O   O13       1.0  0.5401100000000001  0.4718899999999999  0.14830999999999997  1.0000
  O   O14       1.0  0.13322  0.57126  0.057  1.0000
  O   O15       1.0  0.32704000000000005  0.6303199999999999  0.97528  1.0000
  O   O16       1.0  0.3552300000000001  0.42518  0.25674  1.0000
  O   O17       1.0  0.9017700000000001  0.10376000000000006  0.8429999999999999  1.0000
  O   O18       1.0  0.78093  0.3725599999999999  0.58525  1.0000
  O   O19       1.0  0.95961  0.37965  0.14776999999999998  1.0000
  O   O20       1.0  0.36687000000000003  0.37151  0.05659999999999999  1.0000
  O   O21       1.0  0.17315  0.39411000000000007  0.97516  1.0000
  O   O22       1.0  0.14531  0.31576000000000004  0.25584999999999997  1.0000
  O   O23       1.0  0.59798  0.053400000000000065  0.8430499999999997  1.0000
  O   O24       1.0  0.7188400000000001  0.04165000000000001  0.5857999999999999  1.0000
