data_image0
_chemical_formula_structural       Ni8H24C48O26
_chemical_formula_sum              "Ni8 H24 C48 O26"
_cell_length_a       18.3504
_cell_length_b       18.16656
_cell_length_c       18.3441
_cell_angle_alpha    59.62071
_cell_angle_beta     59.88491999999998
_cell_angle_gamma    59.62189

_space_group_name_H-M_alt    "P 1"
_space_group_IT_number       1

loop_
  _space_group_symop_operation_xyz
  'x, y, z'

loop_
  _atom_site_type_symbol
  _atom_site_label
  _atom_site_symmetry_multiplicity
  _atom_site_fract_x
  _atom_site_fract_y
  _atom_site_fract_z
  _atom_site_occupancy
  Ni  Ni1       1.0  0.7918400000000002  0.7959699999999998  0.79194  1.0000
  Ni  Ni2       1.0  0.6156899999999998  0.7993  0.79371  1.0000
  Ni  Ni3       1.0  0.7868799999999999  0.6194  0.803  1.0000
  Ni  Ni4       1.0  0.7898400000000001  0.78948  0.62258  1.0000
  Ni  Ni5       1.0  0.37693  0.21042999999999998  0.21046  1.0000
  Ni  Ni6       1.0  0.2078  0.20339  0.20873000000000005  1.0000
  Ni  Ni7       1.0  0.19741  0.38035  0.21350000000000005  1.0000
  Ni  Ni8       1.0  0.20649  0.20030000000000003  0.38481  1.0000
  H   H1        1.0  0.66853  0.9391900000000001  0.96354  1.0000
  H   H2        1.0  0.43157  0.95228  0.9566300000000002  1.0000
  H   H3        1.0  0.9518500000000001  0.42026  0.67816  1.0000
  H   H4        1.0  0.9647200000000004  0.65924  0.4453  1.0000
  H   H5        1.0  0.9579099999999996  0.9384200000000004  0.6623500000000002  1.0000
  H   H6        1.0  0.94709  0.9561700000000001  0.42527  1.0000
  H   H7        1.0  0.4206299999999998  0.6765000000000002  0.95133  1.0000
  H   H8        1.0  0.6526400000000002  0.43665999999999994  0.93859  1.0000
  H   H9        1.0  0.9615600000000001  0.66775  0.94251  1.0000
  H   H10       1.0  0.9607499999999995  0.4323600000000001  0.94118  1.0000
  H   H11       1.0  0.66558  0.95139  0.43197  1.0000
  H   H12       1.0  0.43081  0.9504999999999999  0.66659  1.0000
  H   H13       1.0  0.5736300000000002  0.045279999999999994  0.05238000000000002  1.0000
  H   H14       1.0  0.33705  0.060200000000000004  0.04300000000000001  1.0000
  H   H15       1.0  0.06006999999999985  0.5633700000000003  0.3471100000000001  1.0000
  H   H16       1.0  0.04797000000000003  0.32388999999999996  0.58011  1.0000
  H   H17       1.0  0.5683300000000002  0.04627999999999997  0.3345200000000001  1.0000
  H   H18       1.0  0.33384  0.053089999999999984  0.56879  1.0000
  H   H19       1.0  0.05640000000000001  0.3321  0.0401  1.0000
  H   H20       1.0  0.06068000000000004  0.56725  0.03798  1.0000
  H   H21       1.0  0.55418  0.3408500000000001  0.03431  1.0000
  H   H22       1.0  0.32176  0.58071  0.04793  1.0000
  H   H23       1.0  0.04333999999999992  0.04726999999999992  0.5683800000000002  1.0000
  H   H24       1.0  0.03434000000000003  0.06361999999999998  0.33107  1.0000
  C   C1        1.0  0.5960500000000002  0.9658999999999999  0.98162  1.0000
  C   C2        1.0  0.46181  0.97355  0.97746  1.0000
  C   C3        1.0  0.9760800000000002  0.45055999999999996  0.60574  1.0000
  C   C4        1.0  0.98329  0.5858800000000002  0.47408  1.0000
  C   C5        1.0  0.9747999999999998  0.9663200000000001  0.58999  1.0000
  C   C6        1.0  0.9687700000000002  0.9763199999999999  0.45569  1.0000
  C   C7        1.0  0.4490099999999999  0.60311  0.96994  1.0000
  C   C8        1.0  0.5802999999999998  0.4674  0.96268  1.0000
  C   C9        1.0  0.98335  0.5943399999999999  0.96346  1.0000
  C   C10       1.0  0.9827499999999999  0.46094  0.96313  1.0000
  C   C11       1.0  0.59302  0.97288  0.46097  1.0000
  C   C12       1.0  0.4599999999999998  0.9730200000000001  0.5939800000000001  1.0000
  C   C13       1.0  0.5436500000000001  0.02474  0.03055  1.0000
  C   C14       1.0  0.4094999999999999  0.03316000000000001  0.02552  1.0000
  C   C15       1.0  0.03626999999999997  0.5326  0.41948  1.0000
  C   C16       1.0  0.029330000000000002  0.39722999999999997  0.55116  1.0000
  C   C17       1.0  0.53919  0.02588  0.40707  1.0000
  C   C18       1.0  0.40634  0.028990000000000005  0.53999  1.0000
  C   C19       1.0  0.03602999999999999  0.40545  0.01767  1.0000
  C   C20       1.0  0.037970000000000004  0.53874  0.01667  1.0000
  C   C21       1.0  0.5256  0.41425  0.01588  1.0000
  C   C22       1.0  0.39415999999999984  0.5500100000000002  0.0235  1.0000
  C   C23       1.0  0.02231999999999997  0.026349999999999953  0.5380300000000001  1.0000
  C   C24       1.0  0.01699  0.03577  0.40354  1.0000
  C   C25       1.0  0.61149  0.87558  0.9041  1.0000
  C   C26       1.0  0.55532  0.9393599999999999  0.95557  1.0000
  C   C27       1.0  0.8953499999999999  0.6030300000000002  0.62546  1.0000
  C   C28       1.0  0.9528000000000001  0.5452299999999999  0.56757  1.0000
  C   C29       1.0  0.8937699999999994  0.8793  0.60604  1.0000
  C   C30       1.0  0.94735  0.9413399999999998  0.54919  1.0000
  C   C31       1.0  0.60155  0.6188800000000001  0.8827300000000002  1.0000
  C   C32       1.0  0.5425  0.5621299999999999  0.9392300000000002  1.0000
  C   C33       1.0  0.8970699999999997  0.61487  0.8791900000000002  1.0000
  C   C34       1.0  0.95586  0.5556500000000001  0.93596  1.0000
  C   C35       1.0  0.61088  0.8877600000000003  0.61243  1.0000
  C   C36       1.0  0.55358  0.94551  0.55464  1.0000
  C   C37       1.0  0.3933199999999999  0.11968000000000002  0.10726000000000002  1.0000
  C   C38       1.0  0.45015  0.05845000000000002  0.0529  1.0000
  C   C39       1.0  0.11614999999999996  0.38085  0.39885  1.0000
  C   C40       1.0  0.05970000000000006  0.43783999999999995  0.45762  1.0000
  C   C41       1.0  0.38748000000000005  0.11273000000000005  0.38935  1.0000
  C   C42       1.0  0.44561999999999996  0.05484000000000004  0.44638  1.0000
  C   C43       1.0  0.12139999999999998  0.3846600000000001  0.10292  1.0000
  C   C44       1.0  0.06440999999999995  0.44402000000000014  0.04433  1.0000
  C   C45       1.0  0.37437999999999994  0.39743  0.10479  1.0000
  C   C46       1.0  0.43218999999999996  0.45524  0.046730000000000015  1.0000
  C   C47       1.0  0.09566999999999996  0.12433  0.3889700000000001  1.0000
  C   C48       1.0  0.04361000000000003  0.061309999999999996  0.44458  1.0000
  O   O1        1.0  0.7457300000000002  0.75122  0.75295  1.0000
  O   O2        1.0  0.24682  0.24849  0.25453  1.0000
  O   O3        1.0  0.6964  0.8489400000000001  0.88315  1.0000
  O   O4        1.0  0.5712699999999998  0.8514900000000003  0.88387  1.0000
  O   O5        1.0  0.85947  0.56503  0.7088  1.0000
  O   O6        1.0  0.88554  0.6875900000000003  0.58678  1.0000
  O   O7        1.0  0.8832299999999996  0.8438700000000005  0.68981  1.0000
  O   O8        1.0  0.86086  0.86703  0.56771  1.0000
  O   O9        1.0  0.5631799999999997  0.7042300000000002  0.86705  1.0000
  O   O10       1.0  0.6860999999999998  0.5786800000000002  0.8543900000000001  1.0000
  O   O11       1.0  0.86416  0.69955  0.8673000000000002  1.0000
  O   O12       1.0  0.8829699999999998  0.5771099999999999  0.8467400000000003  1.0000
  O   O13       1.0  0.6927499999999998  0.8834900000000001  0.5765800000000002  1.0000
  O   O14       1.0  0.5745400000000002  0.84601  0.6946  1.0000
  O   O15       1.0  0.43155  0.13228  0.14  1.0000
  O   O16       1.0  0.3095399999999999  0.1544200000000001  0.11819  1.0000
  O   O17       1.0  0.14570999999999995  0.4209800000000001  0.31442  1.0000
  O   O18       1.0  0.13073  0.29565  0.43708  1.0000
  O   O19       1.0  0.42271000000000003  0.11624  0.30772  1.0000
  O   O20       1.0  0.30561  0.1552  0.4256900000000001  1.0000
  O   O21       1.0  0.1348  0.29973  0.13432  1.0000
  O   O22       1.0  0.15233  0.42274  0.11835  1.0000
  O   O23       1.0  0.41320999999999986  0.3125  0.11613  1.0000
  O   O24       1.0  0.29090000000000005  0.43583  0.13957  1.0000
  O   O25       1.0  0.11824000000000001  0.14549  0.42966  1.0000
  O   O26       1.0  0.11497999999999997  0.15297000000000008  0.30407  1.0000
