data_image0
_chemical_formula_structural       Cd4H36C44N24O16
_chemical_formula_sum              "Cd4 H36 C44 N24 O16"
_cell_length_a       10.37727
_cell_length_b       10.85747
_cell_length_c       16.90554
_cell_angle_alpha    102.34686
_cell_angle_beta     89.52318
_cell_angle_gamma    90.40793000000001

_space_group_name_H-M_alt    "P 1"
_space_group_IT_number       1

loop_
  _space_group_symop_operation_xyz
  'x, y, z'

loop_
  _atom_site_type_symbol
  _atom_site_label
  _atom_site_symmetry_multiplicity
  _atom_site_fract_x
  _atom_site_fract_y
  _atom_site_fract_z
  _atom_site_occupancy
  Cd  Cd1       1.0  0.32861  0.87092  0.67986  1.0000
  Cd  Cd2       1.0  0.67139  0.12908  0.32014  1.0000
  Cd  Cd3       1.0  0.8280299999999999  0.62673  0.8224  1.0000
  Cd  Cd4       1.0  0.17197  0.37326999999999994  0.17759  1.0000
  H   H1        1.0  0.8544200000000001  0.28918  0.78651  1.0000
  H   H2        1.0  0.23749000000000003  0.42368  0.67419  1.0000
  H   H3        1.0  0.29091  0.46396  0.00687  1.0000
  H   H4        1.0  0.20713  0.96062  0.51097  1.0000
  H   H5        1.0  0.8314900000000001  0.37437999999999994  0.55022  1.0000
  H   H6        1.0  0.67416  0.10574  0.92726  1.0000
  H   H7        1.0  0.63729  0.72983  0.68868  1.0000
  H   H8        1.0  0.76252  0.57632  0.32581  1.0000
  H   H9        1.0  0.58156  0.25868  0.51814  1.0000
  H   H10       1.0  0.13867  0.03204  0.08142  1.0000
  H   H11       1.0  0.17332  0.39092  0.57494  1.0000
  H   H12       1.0  0.6409899999999998  0.7885299999999998  0.2869  1.0000
  H   H13       1.0  0.9174700000000001  0.7572699999999999  0.02083  1.0000
  H   H14       1.0  0.16851  0.62562  0.44978000000000007  1.0000
  H   H15       1.0  0.2631  0.9254299999999999  0.17285  1.0000
  H   H16       1.0  0.0385  0.9263299999999999  0.12141  1.0000
  H   H17       1.0  0.63935  0.46958999999999995  0.41946  1.0000
  H   H18       1.0  0.53866  0.57403  0.38056  1.0000
  H   H19       1.0  0.86134  0.9679599999999999  0.91858  1.0000
  H   H20       1.0  0.35901  0.21147  0.71309  1.0000
  H   H21       1.0  0.36271  0.27017  0.31132  1.0000
  H   H22       1.0  0.46134000000000003  0.42597  0.61944  1.0000
  H   H23       1.0  0.41844  0.74132  0.48186  1.0000
  H   H24       1.0  0.86477  0.22737  0.18806  1.0000
  H   H25       1.0  0.33499  0.12177999999999999  0.94628  1.0000
  H   H26       1.0  0.8266800000000001  0.60908  0.42506  1.0000
  H   H27       1.0  0.7369  0.07457  0.82714  1.0000
  H   H28       1.0  0.9615000000000001  0.07367000000000001  0.87859  1.0000
  H   H29       1.0  0.32585  0.8942599999999999  0.07274  1.0000
  H   H30       1.0  0.08252999999999999  0.24272999999999997  0.97917  1.0000
  H   H31       1.0  0.70909  0.53604  0.99313  1.0000
  H   H32       1.0  0.36065  0.53041  0.58054  1.0000
  H   H33       1.0  0.14559  0.71082  0.21348  1.0000
  H   H34       1.0  0.66501  0.87822  0.05372  1.0000
  H   H35       1.0  0.13523  0.77263  0.81193  1.0000
  H   H36       1.0  0.79287  0.03937999999999997  0.48902  1.0000
  C   C1        1.0  0.9388900000000001  0.39996  0.44587  1.0000
  C   C2        1.0  0.09334  0.57118  0.47173  1.0000
  C   C3        1.0  0.68484  0.82764  0.34489  1.0000
  C   C4        1.0  0.31516  0.17236  0.65511  1.0000
  C   C5        1.0  0.53301  0.03252  0.08272  1.0000
  C   C6        1.0  0.01046  0.22012  0.02062  1.0000
  C   C7        1.0  0.58075  0.06557  0.16799  1.0000
  C   C8        1.0  0.39668  0.29006  0.37343  1.0000
  C   C9        1.0  0.40855  0.06908999999999998  0.9698899999999999  1.0000
  C   C10       1.0  0.24352  0.87799  0.11005  1.0000
  C   C11       1.0  0.89875  0.20786999999999997  0.12564  1.0000
  C   C12       1.0  0.87918  0.06759999999999994  0.91867  1.0000
  C   C13       1.0  0.25616  0.37577  0.61123  1.0000
  C   C14       1.0  0.76181  0.95288  0.4489  1.0000
  C   C15       1.0  0.8126  0.32677  0.84565  1.0000
  C   C16       1.0  0.49076000000000003  0.71987  0.52264  1.0000
  C   C17       1.0  0.46698999999999996  0.9674799999999999  0.91728  1.0000
  C   C18       1.0  0.60332  0.70994  0.62656  1.0000
  C   C19       1.0  0.98955  0.77987  0.9793800000000001  1.0000
  C   C20       1.0  0.9648700000000001  0.52809  0.58287  1.0000
  C   C21       1.0  0.8562499999999998  0.3036  0.39202000000000004  1.0000
  C   C22       1.0  0.37836  0.43101  0.58055  1.0000
  C   C23       1.0  0.26114  0.54983  0.04809  1.0000
  C   C24       1.0  0.10124999999999999  0.79213  0.87435  1.0000
  C   C25       1.0  0.7438400000000001  0.62423  0.38877  1.0000
  C   C26       1.0  0.62164  0.56899  0.41945  1.0000
  C   C27       1.0  0.1874  0.6732300000000001  0.15435  1.0000
  C   C28       1.0  0.03513  0.47190999999999994  0.41712  1.0000
  C   C29       1.0  0.23819  0.047119999999999995  0.5511  1.0000
  C   C30       1.0  0.91543  0.55862  0.66828  1.0000
  C   C31       1.0  0.64523  0.80035  0.89547  1.0000
  C   C32       1.0  0.59145  0.93091  0.0301  1.0000
  C   C33       1.0  0.41925  0.93443  0.83201  1.0000
  C   C34       1.0  0.12082000000000001  0.93239  0.08133  1.0000
  C   C35       1.0  0.08457  0.44138  0.33172  1.0000
  C   C36       1.0  0.73886  0.45016999999999996  0.95191  1.0000
  C   C37       1.0  0.06111  0.60004  0.55412  1.0000
  C   C38       1.0  0.9066699999999999  0.4288199999999999  0.52827  1.0000
  C   C39       1.0  0.50924  0.28013  0.47736  1.0000
  C   C40       1.0  0.75648  0.12201  0.88995  1.0000
  C   C41       1.0  0.56145  0.8976999999999999  0.94772  1.0000
  C   C42       1.0  0.14375  0.6964  0.60798  1.0000
  C   C43       1.0  0.35476  0.19965  0.10452  1.0000
  C   C44       1.0  0.43854999999999994  0.1023  0.05228  1.0000
  N   N1        1.0  0.34066  0.37201  0.43339  1.0000
  N   N2        1.0  0.71702  0.33605  0.96567  1.0000
  N   N3        1.0  0.65934  0.62799  0.56661  1.0000
  N   N4        1.0  0.08414  0.86631  0.00021  1.0000
  N   N5        1.0  0.28298  0.66395  0.03433  1.0000
  N   N6        1.0  0.79795  0.44912  0.87893  1.0000
  N   N7        1.0  0.84329  0.12476  0.06626  1.0000
  N   N8        1.0  0.2149  0.16064  0.5373  1.0000
  N   N9        1.0  0.00285  0.26835  0.10016  1.0000
  N   N10       1.0  0.73605  0.76019  0.39544  1.0000
  N   N11       1.0  0.26396  0.23981  0.60455  1.0000
  N   N12       1.0  0.23602  0.74188  0.10296  1.0000
  N   N13       1.0  0.7639799999999999  0.25812  0.89703  1.0000
  N   N14       1.0  0.99715  0.73165  0.89984  1.0000
  N   N15       1.0  0.7851  0.83936  0.4627  1.0000
  N   N16       1.0  0.50159  0.23172  0.39791  1.0000
  N   N17       1.0  0.58607  0.63536  0.5009  1.0000
  N   N18       1.0  0.20205000000000004  0.55088  0.12107  1.0000
  N   N19       1.0  0.9158600000000001  0.13368999999999998  0.9997899999999998  1.0000
  N   N20       1.0  0.4139300000000001  0.3646400000000001  0.49909000000000003  1.0000
  N   N21       1.0  0.15671000000000002  0.87523  0.93374  1.0000
  N   N22       1.0  0.69993  0.95039  0.37722  1.0000
  N   N23       1.0  0.49841  0.76827  0.60209  1.0000
  N   N24       1.0  0.30007  0.04961000000000004  0.62278  1.0000
  O   O1        1.0  0.09765999999999998  0.32563000000000003  0.29718  1.0000
  O   O2        1.0  0.31248  0.18075  0.17165  1.0000
  O   O3        1.0  0.40371  0.81882  0.79793  1.0000
  O   O4        1.0  0.8182699999999999  0.20848999999999998  0.42049  1.0000
  O   O5        1.0  0.90234  0.67437  0.70282  1.0000
  O   O6        1.0  0.61015  0.9751399999999999  0.20232  1.0000
  O   O7        1.0  0.31886  0.2933  0.07491  1.0000
  O   O8        1.0  0.68114  0.7067  0.92508  1.0000
  O   O9        1.0  0.59629  0.18118  0.20207  1.0000
  O   O10       1.0  0.8836400000000001  0.46823  0.70229  1.0000
  O   O11       1.0  0.81731  0.32435  0.32523  1.0000
  O   O12       1.0  0.6875  0.81924  0.82834  1.0000
  O   O13       1.0  0.18174  0.79151  0.57951  1.0000
  O   O14       1.0  0.3898499999999999  0.024859999999999997  0.79768  1.0000
  O   O15       1.0  0.1827  0.67565  0.67477  1.0000
  O   O16       1.0  0.11636  0.53177  0.29771  1.0000
