data_image0
_chemical_formula_structural       Sr4Zn4H32C64O32
_chemical_formula_sum              "Sr4 Zn4 H32 C64 O32"
_cell_length_a       10.45192
_cell_length_b       14.807130000000003
_cell_length_c       18.68642
_cell_angle_alpha    89.9741
_cell_angle_beta     90.02543
_cell_angle_gamma    101.05064

_symmetry_space_group_name_H-M    'P 1'
_symmetry_Int_Tables_number       1

loop_
  _symmetry_equiv_pos_as_xyz
  'x,y,z'

loop_
  _atom_site_type_symbol
  _atom_site_label
  _atom_site_symmetry_multiplicity
  _atom_site_fract_x
  _atom_site_fract_y
  _atom_site_fract_z
  _atom_site_occupancy
  Sr  Sr1       1.0  0.9013200000000001  0.6694099999999997  0.3016  1.0000
  Sr  Sr2       1.0  0.59843  0.8305599999999997  0.80058  1.0000
  Sr  Sr3       1.0  0.09868  0.33059  0.69839  1.0000
  Sr  Sr4       1.0  0.40157000000000004  0.16945  0.19941999999999993  1.0000
  Zn  Zn1       1.0  0.80311  0.44405  0.18063999999999997  1.0000
  Zn  Zn2       1.0  0.6967900000000001  0.05681999999999999  0.68165  1.0000
  Zn  Zn3       1.0  0.19688999999999995  0.5559499999999998  0.81935  1.0000
  Zn  Zn4       1.0  0.30321  0.9431799999999998  0.31835  1.0000
  H   H1        1.0  0.5823200000000001  0.10231  0.0774  1.0000
  H   H2        1.0  0.58042  0.011619999999999997  0.96469  1.0000
  H   H3        1.0  0.77836  0.25104999999999994  0.85398  1.0000
  H   H4        1.0  0.7864500000000001  0.34258  0.9672999999999998  1.0000
  H   H5        1.0  0.23357999999999993  0.6728499999999997  0.2657  1.0000
  H   H6        1.0  0.47172000000000003  0.6739899999999998  0.27996  1.0000
  H   H7        1.0  0.44595000000000007  0.45713  0.1254  1.0000
  H   H8        1.0  0.20367000000000005  0.45111  0.11453999999999999  1.0000
  H   H9        1.0  0.91759  0.39808  0.57717  1.0000
  H   H10       1.0  0.9198000000000001  0.4885699999999999  0.46448999999999996  1.0000
  H   H11       1.0  0.72168  0.249  0.35397  1.0000
  H   H12       1.0  0.71383  0.15784  0.46724  1.0000
  H   H13       1.0  0.26629  0.8270699999999997  0.76585  1.0000
  H   H14       1.0  0.028199999999999965  0.8259499999999997  0.77987  1.0000
  H   H15       1.0  0.05418  0.04291999999999999  0.62531  1.0000
  H   H16       1.0  0.29651  0.04892999999999999  0.6146499999999999  1.0000
  H   H17       1.0  0.41767999999999994  0.8976899999999999  0.9226  1.0000
  H   H18       1.0  0.41958  0.98838  0.035309999999999994  1.0000
  H   H19       1.0  0.22163999999999995  0.7489599999999997  0.14601  1.0000
  H   H20       1.0  0.21354999999999996  0.6574199999999998  0.0327  1.0000
  H   H21       1.0  0.76642  0.32715  0.7343  1.0000
  H   H22       1.0  0.52828  0.32601  0.7200399999999999  1.0000
  H   H23       1.0  0.55405  0.5428699999999999  0.8746  1.0000
  H   H24       1.0  0.7963400000000003  0.5488899999999998  0.8854599999999999  1.0000
  H   H25       1.0  0.08240999999999996  0.6019299999999997  0.42282  1.0000
  H   H26       1.0  0.08019999999999997  0.5114399999999999  0.5355099999999999  1.0000
  H   H27       1.0  0.27832999999999997  0.7510099999999997  0.6460299999999999  1.0000
  H   H28       1.0  0.28617  0.8421699999999998  0.53276  1.0000
  H   H29       1.0  0.7337100000000001  0.17293  0.23414999999999997  1.0000
  H   H30       1.0  0.9718000000000001  0.17405999999999994  0.22013  1.0000
  H   H31       1.0  0.9458200000000001  0.9570799999999998  0.37469  1.0000
  H   H32       1.0  0.7034900000000001  0.9510699999999997  0.38535  1.0000
  C   C1        1.0  0.6813300000000001  0.22913  0.028759999999999997  1.0000
  C   C2        1.0  0.62387  0.13537  0.028419999999999997  1.0000
  C   C3        1.0  0.62256  0.08442  0.96586  1.0000
  C   C4        1.0  0.67527  0.12638  0.9024899999999999  1.0000
  C   C5        1.0  0.73543  0.21956  0.90304  1.0000
  C   C6        1.0  0.7396600000000001  0.27036  0.96606  1.0000
  C   C7        1.0  0.6801400000000001  0.2845399999999999  0.09572999999999998  1.0000
  C   C8        1.0  0.66495  0.0709  0.83525  1.0000
  C   C9        1.0  0.20443000000000003  0.56121  0.18955999999999995  1.0000
  C   C10       1.0  0.27980999999999995  0.6247699999999998  0.23583  1.0000
  C   C11       1.0  0.41296  0.6261599999999998  0.24332  1.0000
  C   C12       1.0  0.47283  0.5658299999999998  0.20326  1.0000
  C   C13       1.0  0.39741  0.5029  0.15628  1.0000
  C   C14       1.0  0.26388999999999996  0.4998799999999999  0.15004  1.0000
  C   C15       1.0  0.06063999999999995  0.5571399999999997  0.18386  1.0000
  C   C16       1.0  0.61603  0.5669499999999997  0.2107  1.0000
  C   C17       1.0  0.81898  0.27109  0.52872  1.0000
  C   C18       1.0  0.8762800000000001  0.36486  0.52819  1.0000
  C   C19       1.0  0.8776300000000001  0.41575999999999996  0.46552  1.0000
  C   C20       1.0  0.82498  0.37378  0.40205  1.0000
  C   C21       1.0  0.76478  0.28068  0.40290999999999993  1.0000
  C   C22       1.0  0.7607  0.22997999999999993  0.46598  1.0000
  C   C23       1.0  0.8191300000000002  0.21525999999999995  0.5956899999999999  1.0000
  C   C24       1.0  0.8355900000000002  0.42888  0.3344199999999999  1.0000
  C   C25       1.0  0.29547999999999996  0.9386799999999997  0.68959  1.0000
  C   C26       1.0  0.22011999999999998  0.8750699999999998  0.73581  1.0000
  C   C27       1.0  0.08698999999999994  0.8736999999999998  0.7432  1.0000
  C   C28       1.0  0.027249999999999983  0.9341899999999999  0.70317  1.0000
  C   C29       1.0  0.10267999999999992  0.9970899999999998  0.65618  1.0000
  C   C30       1.0  0.23615  8.000000000000002e-05  0.65002  1.0000
  C   C31       1.0  0.43922000000000005  0.94294  0.68398  1.0000
  C   C32       1.0  0.8842  0.9332899999999997  0.71085  1.0000
  C   C33       1.0  0.31867  0.77087  0.97124  1.0000
  C   C34       1.0  0.37613  0.8646399999999999  0.9715799999999999  1.0000
  C   C35       1.0  0.37744  0.91559  0.03414  1.0000
  C   C36       1.0  0.32473  0.8736199999999997  0.09750999999999999  1.0000
  C   C37       1.0  0.2645700000000001  0.7804499999999999  0.09694999999999997  1.0000
  C   C38       1.0  0.26034000000000007  0.72965  0.03394  1.0000
  C   C39       1.0  0.3198599999999999  0.7154599999999998  0.9042699999999999  1.0000
  C   C40       1.0  0.33505  0.92911  0.16475  1.0000
  C   C41       1.0  0.7955700000000002  0.4387999999999999  0.8104399999999999  1.0000
  C   C42       1.0  0.7201900000000001  0.3752399999999999  0.76417  1.0000
  C   C43       1.0  0.5870400000000001  0.37384  0.7566799999999998  1.0000
  C   C44       1.0  0.52717  0.43418  0.79674  1.0000
  C   C45       1.0  0.60259  0.4971099999999999  0.84372  1.0000
  C   C46       1.0  0.73611  0.50012  0.84996  1.0000
  C   C47       1.0  0.9393600000000001  0.4428699999999999  0.81614  1.0000
  C   C48       1.0  0.38397  0.43306  0.7893  1.0000
  C   C49       1.0  0.1810199999999999  0.7289099999999997  0.4712799999999999  1.0000
  C   C50       1.0  0.12372000000000002  0.63515  0.47181  1.0000
  C   C51       1.0  0.12237999999999995  0.5842499999999998  0.53448  1.0000
  C   C52       1.0  0.17501999999999998  0.6262299999999997  0.59795  1.0000
  C   C53       1.0  0.23522  0.71933  0.59709  1.0000
  C   C54       1.0  0.23929999999999998  0.7700299999999998  0.53402  1.0000
  C   C55       1.0  0.18088  0.7847399999999998  0.4043099999999999  1.0000
  C   C56       1.0  0.16441999999999996  0.5711199999999997  0.66557  1.0000
  C   C57       1.0  0.70452  0.06132999999999999  0.31041  1.0000
  C   C58       1.0  0.77988  0.12493999999999997  0.26419  1.0000
  C   C59       1.0  0.91302  0.12630999999999995  0.2568  1.0000
  C   C60       1.0  0.9727500000000001  0.06581  0.29683  1.0000
  C   C61       1.0  0.8973200000000001  0.002919999999999999  0.34382  1.0000
  C   C62       1.0  0.7638500000000001  0.9999299999999999  0.34998  1.0000
  C   C63       1.0  0.5607800000000001  0.057059999999999986  0.31602  1.0000
  C   C64       1.0  0.11580000000000001  0.06671  0.28914  1.0000
  O   O1        1.0  0.59026  0.25958  0.1416  1.0000
  O   O2        1.0  0.77257  0.3543499999999999  0.10182  1.0000
  O   O3        1.0  0.7084100000000001  0.11365999999999998  0.77796  1.0000
  O   O4        1.0  0.61302  0.9858199999999998  0.83886  1.0000
  O   O5        1.0  0.9926800000000001  0.48207  0.16009999999999994  1.0000
  O   O6        1.0  0.014250000000000006  0.62687  0.20312  1.0000
  O   O7        1.0  0.6623799999999999  0.5135499999999997  0.16767  1.0000
  O   O8        1.0  0.6813300000000001  0.61912  0.25718  1.0000
  O   O9        1.0  0.90744  0.24039  0.6425999999999997  1.0000
  O   O10       1.0  0.7274700000000001  0.14486  0.60056  1.0000
  O   O11       1.0  0.7912100000000001  0.3865299999999999  0.27709  1.0000
  O   O12       1.0  0.88902  0.51374  0.33775  1.0000
  O   O13       1.0  0.50722  0.018789999999999998  0.6617799999999999  1.0000
  O   O14       1.0  0.4858099999999999  0.8726899999999997  0.70162  1.0000
  O   O15       1.0  0.8384  0.9886199999999998  0.6693399999999998  1.0000
  O   O16       1.0  0.8184800000000001  0.8793099999999998  0.75605  1.0000
  O   O17       1.0  0.40975  0.7404199999999997  0.8583999999999999  1.0000
  O   O18       1.0  0.22743  0.64566  0.8981799999999999  1.0000
  O   O19       1.0  0.29159999999999997  0.8863399999999998  0.22204  1.0000
  O   O20       1.0  0.38698  0.01419  0.16113999999999998  1.0000
  O   O21       1.0  0.007320000000000009  0.51794  0.8398999999999998  1.0000
  O   O22       1.0  0.98575  0.37314  0.79688  1.0000
  O   O23       1.0  0.33762  0.4864499999999999  0.83232  1.0000
  O   O24       1.0  0.31867000000000006  0.38089  0.74282  1.0000
  O   O25       1.0  0.09255999999999995  0.7596199999999997  0.3574  1.0000
  O   O26       1.0  0.2725399999999999  0.8551499999999997  0.39944  1.0000
  O   O27       1.0  0.20879  0.61348  0.7229  1.0000
  O   O28       1.0  0.11097999999999997  0.4862699999999999  0.66225  1.0000
  O   O29       1.0  0.49277999999999994  0.9812099999999998  0.33821  1.0000
  O   O30       1.0  0.51419  0.12731999999999993  0.29838  1.0000
  O   O31       1.0  0.1616  0.011389999999999997  0.33065  1.0000
  O   O32       1.0  0.18152000000000001  0.1207  0.24395  1.0000
