data_image0
_chemical_formula_structural       Y8H24C56N8O32
_chemical_formula_sum              "Y8 H24 C56 N8 O32"
_cell_length_a       18.01718
_cell_length_b       17.28468
_cell_length_c       17.49258
_cell_angle_alpha    74.54697
_cell_angle_beta     58.97403
_cell_angle_gamma    58.99488999999999

_space_group_name_H-M_alt    "P 1"
_space_group_IT_number       1

loop_
  _space_group_symop_operation_xyz
  'x, y, z'

loop_
  _atom_site_type_symbol
  _atom_site_label
  _atom_site_symmetry_multiplicity
  _atom_site_fract_x
  _atom_site_fract_y
  _atom_site_fract_z
  _atom_site_occupancy
  Y   Y1        1.0  0.46438  0.25776  0.03235  1.0000
  Y   Y2        1.0  0.75629  0.24  0.46553  1.0000
  Y   Y3        1.0  0.22131  0.029990000000000006  0.24280000000000004  1.0000
  Y   Y4        1.0  0.49459  0.46754  0.26036  1.0000
  Y   Y5        1.0  0.5356199999999998  0.74225  0.96766  1.0000
  Y   Y6        1.0  0.2437100000000001  0.76001  0.53447  1.0000
  Y   Y7        1.0  0.77868  0.97002  0.7572000000000001  1.0000
  Y   Y8        1.0  0.5054099999999997  0.53246  0.73964  1.0000
  H   H1        1.0  0.8469799999999995  0.05582  0.9274600000000002  1.0000
  H   H2        1.0  0.8547099999999999  0.12205  0.03433  1.0000
  H   H3        1.0  0.70152  0.24812  0.13639  1.0000
  H   H4        1.0  0.8243700000000002  0.45318000000000014  0.56693  1.0000
  H   H5        1.0  0.005129999999999969  0.38755  0.46294000000000013  1.0000
  H   H6        1.0  0.08374000000000001  0.25634  0.36514  1.0000
  H   H7        1.0  0.39412999999999987  0.93509  0.44934  1.0000
  H   H8        1.0  0.47375  0.03817000000000001  0.37737  1.0000
  H   H9        1.0  0.45298  0.13377  0.24662  1.0000
  H   H10       1.0  0.77428  0.56924  0.04883000000000001  1.0000
  H   H11       1.0  0.8877499999999998  0.46743  0.11745000000000003  1.0000
  H   H12       1.0  0.83429  0.37039  0.24922000000000005  1.0000
  H   H13       1.0  0.1530199999999999  0.94419  0.07254  1.0000
  H   H14       1.0  0.14528999999999986  0.87795  0.96567  1.0000
  H   H15       1.0  0.29847999999999997  0.75189  0.8636  1.0000
  H   H16       1.0  0.17562999999999995  0.54683  0.4330600000000001  1.0000
  H   H17       1.0  0.99487  0.61245  0.53706  1.0000
  H   H18       1.0  0.9162599999999997  0.7436600000000002  0.63486  1.0000
  H   H19       1.0  0.60587  0.06492  0.5506700000000002  1.0000
  H   H20       1.0  0.52625  0.96184  0.62263  1.0000
  H   H21       1.0  0.54702  0.86624  0.75338  1.0000
  H   H22       1.0  0.22571999999999992  0.43076  0.95117  1.0000
  H   H23       1.0  0.11225000000000004  0.53258  0.88255  1.0000
  H   H24       1.0  0.16570999999999997  0.62961  0.75078  1.0000
  C   C1        1.0  0.6931500000000002  0.13941  0.97632  1.0000
  C   C2        1.0  0.7821699999999997  0.10825  0.9748500000000002  1.0000
  C   C3        1.0  0.78599  0.14576  0.03412  1.0000
  C   C4        1.0  0.70068  0.21596  0.09134  1.0000
  C   C5        1.0  0.6135  0.24556  0.08963  1.0000
  C   C6        1.0  0.52018  0.3215  0.13943  1.0000
  C   C7        1.0  0.6769599999999998  0.10951  0.91798  1.0000
  C   C8        1.0  0.80654  0.36345  0.52113  1.0000
  C   C9        1.0  0.8608500000000001  0.39827  0.52159  1.0000
  C   C10       1.0  0.96146  0.3611  0.4639800000000001  1.0000
  C   C11       1.0  0.0056399999999999905  0.28811  0.4088700000000001  1.0000
  C   C12       1.0  0.9481799999999999  0.25554  0.41099  1.0000
  C   C13       1.0  0.9820599999999999  0.17788  0.36209  1.0000
  C   C14       1.0  0.7026500000000001  0.39183  0.57879  1.0000
  C   C15       1.0  0.32816  0.97911  0.36292  1.0000
  C   C16       1.0  0.3849799999999999  0.97946  0.39426  1.0000
  C   C17       1.0  0.42952999999999997  0.03652  0.3535700000000001  1.0000
  C   C18       1.0  0.41801  0.09012  0.2806  1.0000
  C   C19       1.0  0.3613799999999998  0.08664  0.25096  1.0000
  C   C20       1.0  0.34643  0.13332  0.1734  1.0000
  C   C21       1.0  0.2792200000000001  0.92242  0.3960700000000001  1.0000
  C   C22       1.0  0.6679099999999999  0.52284  0.13733000000000004  1.0000
  C   C23       1.0  0.7560699999999999  0.52404  0.10392  1.0000
  C   C24       1.0  0.81839  0.46776  0.14282  1.0000
  C   C25       1.0  0.78911  0.41335000000000005  0.21605000000000005  1.0000
  C   C26       1.0  0.6999599999999997  0.41482000000000013  0.24732000000000007  1.0000
  C   C27       1.0  0.6563699999999996  0.3663  0.3248700000000001  1.0000
  C   C28       1.0  0.5937999999999999  0.57901  0.10671000000000003  1.0000
  C   C29       1.0  0.3068499999999999  0.8606000000000003  0.023680000000000007  1.0000
  C   C30       1.0  0.21783000000000002  0.89176  0.025150000000000006  1.0000
  C   C31       1.0  0.21401000000000012  0.85424  0.96588  1.0000
  C   C32       1.0  0.29931999999999986  0.78405  0.9086500000000002  1.0000
  C   C33       1.0  0.3864999999999999  0.75445  0.9103700000000002  1.0000
  C   C34       1.0  0.47981999999999997  0.67851  0.8605700000000001  1.0000
  C   C35       1.0  0.32303  0.8905  0.08203000000000003  1.0000
  C   C36       1.0  0.19346  0.63655  0.47887  1.0000
  C   C37       1.0  0.13915000000000002  0.60174  0.47841  1.0000
  C   C38       1.0  0.0385399999999999  0.6389  0.5360200000000003  1.0000
  C   C39       1.0  0.9943599999999998  0.7118900000000001  0.5911300000000003  1.0000
  C   C40       1.0  0.05180999999999998  0.74446  0.58901  1.0000
  C   C41       1.0  0.01794000000000004  0.82213  0.63792  1.0000
  C   C42       1.0  0.29734999999999984  0.60818  0.42121  1.0000
  C   C43       1.0  0.6718299999999999  0.020900000000000005  0.63708  1.0000
  C   C44       1.0  0.61501  0.02055  0.60574  1.0000
  C   C45       1.0  0.5704599999999996  0.9634800000000001  0.64643  1.0000
  C   C46       1.0  0.5819899999999999  0.9098900000000002  0.71941  1.0000
  C   C47       1.0  0.6386199999999999  0.91337  0.7490400000000003  1.0000
  C   C48       1.0  0.6535699999999999  0.86669  0.8266000000000002  1.0000
  C   C49       1.0  0.7207799999999996  0.07758000000000001  0.6039300000000002  1.0000
  C   C50       1.0  0.33209  0.47717  0.86267  1.0000
  C   C51       1.0  0.24392999999999987  0.47597  0.8960900000000003  1.0000
  C   C52       1.0  0.18160999999999983  0.53225  0.8571900000000002  1.0000
  C   C53       1.0  0.21088999999999988  0.58665  0.78395  1.0000
  C   C54       1.0  0.3000300000000001  0.58519  0.7526800000000002  1.0000
  C   C55       1.0  0.3436299999999997  0.6337  0.6751300000000002  1.0000
  C   C56       1.0  0.40619999999999973  0.4210000000000001  0.8932900000000003  1.0000
  N   N1        1.0  0.6089699999999999  0.20587000000000005  0.03449  1.0000
  N   N2        1.0  0.8490000000000002  0.29432  0.46486  1.0000
  N   N3        1.0  0.31468  0.0333  0.29305  1.0000
  N   N4        1.0  0.6407  0.46735  0.20701000000000003  1.0000
  N   N5        1.0  0.39103  0.79413  0.96551  1.0000
  N   N6        1.0  0.151  0.7056900000000002  0.53514  1.0000
  N   N7        1.0  0.68531  0.96671  0.70695  1.0000
  N   N8        1.0  0.35929999999999995  0.53266  0.7930000000000003  1.0000
  O   O1        1.0  0.44734  0.33804  0.12884  1.0000
  O   O2        1.0  0.51294  0.37107  0.18906  1.0000
  O   O3        1.0  0.7482200000000001  0.04694  0.85938  1.0000
  O   O4        1.0  0.5889299999999997  0.14884  0.9279000000000002  1.0000
  O   O5        1.0  0.9164099999999997  0.15976000000000007  0.37183  1.0000
  O   O6        1.0  0.07400000000000002  0.12854  0.314  1.0000
  O   O7        1.0  0.6512900000000003  0.4565  0.63564  1.0000
  O   O8        1.0  0.66595  0.34898  0.57016  1.0000
  O   O9        1.0  0.29090999999999995  0.12120000000000002  0.15698  1.0000
  O   O10       1.0  0.38970999999999995  0.18208000000000002  0.12265000000000002  1.0000
  O   O11       1.0  0.2851499999999999  0.86659  0.46118  1.0000
  O   O12       1.0  0.23131000000000002  0.93052  0.35663  1.0000
  O   O13       1.0  0.5727300000000001  0.3763  0.34284  1.0000
  O   O14       1.0  0.69947  0.31757  0.37383  1.0000
  O   O15       1.0  0.60714  0.63582  0.04199000000000001  1.0000
  O   O16       1.0  0.51533  0.56935  0.14788  1.0000
  O   O17       1.0  0.5526600000000002  0.66196  0.87116  1.0000
  O   O18       1.0  0.48705999999999977  0.6289300000000002  0.8109400000000002  1.0000
  O   O19       1.0  0.25177  0.95307  0.14063  1.0000
  O   O20       1.0  0.41106999999999994  0.85116  0.07211  1.0000
  O   O21       1.0  0.0835899999999999  0.84024  0.6281700000000001  1.0000
  O   O22       1.0  0.9259899999999999  0.87146  0.68601  1.0000
  O   O23       1.0  0.34871  0.54351  0.36436  1.0000
  O   O24       1.0  0.33404999999999996  0.65102  0.4298400000000001  1.0000
  O   O25       1.0  0.7090899999999999  0.8788100000000002  0.84302  1.0000
  O   O26       1.0  0.6102899999999999  0.81792  0.8773500000000002  1.0000
  O   O27       1.0  0.71484  0.13341  0.53882  1.0000
  O   O28       1.0  0.76868  0.06949  0.64337  1.0000
  O   O29       1.0  0.42727000000000004  0.62371  0.65716  1.0000
  O   O30       1.0  0.3005300000000001  0.68243  0.62618  1.0000
  O   O31       1.0  0.39286  0.36419  0.95801  1.0000
  O   O32       1.0  0.4846699999999998  0.43066  0.8521200000000002  1.0000
