data_image0
_chemical_formula_structural       Ba4H32C56S4O24
_chemical_formula_sum              "Ba4 H32 C56 S4 O24"
_cell_length_a       4.65445
_cell_length_b       14.12997
_cell_length_c       23.392209999999995
_cell_angle_alpha    97.78672
_cell_angle_beta     90.02722000000001
_cell_angle_gamma    90.13202999999999

_symmetry_space_group_name_H-M    'P 1'
_symmetry_Int_Tables_number       1

loop_
  _symmetry_equiv_pos_as_xyz
  'x,y,z'

loop_
  _atom_site_type_symbol
  _atom_site_label
  _atom_site_symmetry_multiplicity
  _atom_site_fract_x
  _atom_site_fract_y
  _atom_site_fract_z
  _atom_site_occupancy
  Ba  Ba1       1.0  0.68781  0.88923  0.25848  1.0000
  Ba  Ba2       1.0  0.19069999999999998  0.6055999999999999  0.24082000000000003  1.0000
  Ba  Ba3       1.0  0.31217999999999996  0.11075999999999994  0.7415199999999998  1.0000
  Ba  Ba4       1.0  0.80929  0.39439  0.75918  1.0000
  H   H1        1.0  0.80627  0.06331  0.14951  1.0000
  H   H2        1.0  0.66596  0.20386  0.10124  1.0000
  H   H3        1.0  0.53717  0.21700999999999995  0.22449  1.0000
  H   H4        1.0  0.39855  0.35855  0.1781  1.0000
  H   H5        1.0  0.7538599999999998  0.24042  0.9058  1.0000
  H   H6        1.0  0.64321  0.27307  0.01127  1.0000
  H   H7        1.0  0.40254  0.44793  0.03615  1.0000
  H   H8        1.0  0.50885  0.4136  0.92999  1.0000
  H   H9        1.0  0.30942  0.43506  0.34947  1.0000
  H   H10       1.0  0.1608  0.29575  0.39846  1.0000
  H   H11       1.0  0.03343999999999999  0.27785  0.27548  1.0000
  H   H12       1.0  0.88884  0.13799  0.32342  1.0000
  H   H13       1.0  0.24972  0.26204  0.59373  1.0000
  H   H14       1.0  0.14034999999999997  0.22622  0.4885  1.0000
  H   H15       1.0  0.8955199999999999  0.050400000000000014  0.46610000000000007  1.0000
  H   H16       1.0  0.0010999999999999998  0.08769999999999997  0.57202  1.0000
  H   H17       1.0  0.19371999999999998  0.9366799999999997  0.85048  1.0000
  H   H18       1.0  0.33403  0.7961399999999998  0.8987600000000001  1.0000
  H   H19       1.0  0.46282  0.7829800000000001  0.7755  1.0000
  H   H20       1.0  0.6014399999999999  0.64144  0.8219  1.0000
  H   H21       1.0  0.24614  0.75958  0.0942  1.0000
  H   H22       1.0  0.35678  0.72692  0.98872  1.0000
  H   H23       1.0  0.59745  0.55206  0.96385  1.0000
  H   H24       1.0  0.4911499999999999  0.58639  0.07001  1.0000
  H   H25       1.0  0.6905799999999999  0.56493  0.65053  1.0000
  H   H26       1.0  0.8391999999999998  0.70425  0.60154  1.0000
  H   H27       1.0  0.96655  0.72214  0.72452  1.0000
  H   H28       1.0  0.11116  0.86201  0.67657  1.0000
  H   H29       1.0  0.7502699999999999  0.73795  0.40627  1.0000
  H   H30       1.0  0.8596399999999998  0.7737699999999997  0.5115  1.0000
  H   H31       1.0  0.10447  0.94959  0.5339  1.0000
  H   H32       1.0  0.99889  0.91229  0.42798  1.0000
  C   C1        1.0  0.29862999999999995  0.04672  0.21425  1.0000
  C   C2        1.0  0.19249  0.12863  0.18574000000000002  1.0000
  C   C3        1.0  0.94066  0.12675  0.15371  1.0000
  C   C4        1.0  0.85126  0.20772  0.12949  1.0000
  C   C5        1.0  0.35855  0.21321999999999994  0.19474  1.0000
  C   C6        1.0  0.27016  0.29413  0.17158  1.0000
  C   C7        1.0  0.025879999999999997  0.29022  0.13782  1.0000
  C   C8        1.0  0.20109  0.2979999999999999  0.84952  1.0000
  C   C9        1.0  0.14772  0.3183799999999999  0.91291  1.0000
  C   C10       1.0  0.90084  0.28203  0.93545  1.0000
  C   C11       1.0  0.83039  0.30469  0.99379  1.0000
  C   C12       1.0  0.01719  0.36517999999999995  0.0295  1.0000
  C   C13       1.0  0.25951  0.40378  0.00725  1.0000
  C   C14       1.0  0.32900999999999997  0.38005  0.9489100000000001  1.0000
  C   C15       1.0  0.8025099999999998  0.44849  0.28437  1.0000
  C   C16       1.0  0.69134  0.36763  0.31334  1.0000
  C   C17       1.0  0.43933999999999995  0.37086  0.34534  1.0000
  C   C18       1.0  0.34546  0.29069  0.37005  1.0000
  C   C19       1.0  0.85445  0.28261  0.30511  1.0000
  C   C20       1.0  0.76236  0.20264  0.3289  1.0000
  C   C21       1.0  0.51728  0.20777  0.36237  1.0000
  C   C22       1.0  0.69348  0.20647999999999997  0.65146  1.0000
  C   C23       1.0  0.64343  0.18430999999999995  0.58794  1.0000
  C   C24       1.0  0.39729  0.21979  0.5647  1.0000
  C   C25       1.0  0.32725  0.19543  0.50647  1.0000
  C   C26       1.0  0.5134  0.13429999999999995  0.47132  1.0000
  C   C27       1.0  0.75382  0.09596999999999997  0.49431  1.0000
  C   C28       1.0  0.8232599999999999  0.12138  0.55261  1.0000
  C   C29       1.0  0.70137  0.95328  0.78575  1.0000
  C   C30       1.0  0.80751  0.8713699999999998  0.81426  1.0000
  C   C31       1.0  0.05933  0.87324  0.8462800000000001  1.0000
  C   C32       1.0  0.14873  0.79227  0.87051  1.0000
  C   C33       1.0  0.64144  0.7867699999999997  0.80526  1.0000
  C   C34       1.0  0.72984  0.70586  0.82841  1.0000
  C   C35       1.0  0.97411  0.70977  0.86218  1.0000
  C   C36       1.0  0.7989  0.70199  0.15048  1.0000
  C   C37       1.0  0.85227  0.68161  0.08709  1.0000
  C   C38       1.0  0.09915999999999998  0.71796  0.06455  1.0000
  C   C39       1.0  0.16960999999999998  0.6953  0.006210000000000001  1.0000
  C   C40       1.0  0.98281  0.63481  0.9705000000000001  1.0000
  C   C41       1.0  0.74049  0.59621  0.99275  1.0000
  C   C42       1.0  0.6709899999999999  0.6199399999999999  0.05109  1.0000
  C   C43       1.0  0.19748  0.5515  0.71563  1.0000
  C   C44       1.0  0.30865  0.63236  0.68666  1.0000
  C   C45       1.0  0.5606599999999999  0.62914  0.65466  1.0000
  C   C46       1.0  0.65453  0.7093  0.62995  1.0000
  C   C47       1.0  0.14554  0.71738  0.69489  1.0000
  C   C48       1.0  0.23763999999999996  0.7973599999999998  0.6711  1.0000
  C   C49       1.0  0.48272  0.79222  0.63762  1.0000
  C   C50       1.0  0.30652  0.7935099999999999  0.34854000000000007  1.0000
  C   C51       1.0  0.35656999999999994  0.81568  0.41205  1.0000
  C   C52       1.0  0.60271  0.7802  0.43529  1.0000
  C   C53       1.0  0.6727399999999999  0.8045699999999999  0.49353  1.0000
  C   C54       1.0  0.48658999999999997  0.86569  0.52868  1.0000
  C   C55       1.0  0.24617  0.9040299999999999  0.50569  1.0000
  C   C56       1.0  0.17673  0.87861  0.44738  1.0000
  S   S1        1.0  0.9223099999999999  0.39114  0.10419  1.0000
  S   S2        1.0  0.4149  0.10759  0.39679  1.0000
  S   S3        1.0  0.07769  0.60886  0.89581  1.0000
  S   S4        1.0  0.5851  0.8924  0.6032  1.0000
  O   O1        1.0  0.53829  0.061900000000000004  0.24015000000000003  1.0000
  O   O2        1.0  0.02188  0.24299  0.8193  1.0000
  O   O3        1.0  0.0626  0.47915  0.13119  1.0000
  O   O4        1.0  0.15812  0.96734  0.21191000000000002  1.0000
  O   O5        1.0  0.41346  0.33813  0.82807  1.0000
  O   O6        1.0  0.6084  0.38573999999999997  0.10237  1.0000
  O   O7        1.0  0.04291999999999999  0.4325  0.25926  1.0000
  O   O8        1.0  0.51357  0.26225  0.68058  1.0000
  O   O9        1.0  0.55426  0.019770000000000003  0.36959  1.0000
  O   O10       1.0  0.6655599999999999  0.5282299999999998  0.28559  1.0000
  O   O11       1.0  0.90134  0.1665  0.67448  1.0000
  O   O12       1.0  0.10097  0.11394  0.39989  1.0000
  O   O13       1.0  0.46171000000000006  0.93809  0.75985  1.0000
  O   O14       1.0  0.9781099999999999  0.7569999999999999  0.18069  1.0000
  O   O15       1.0  0.9374  0.52084  0.8688000000000001  1.0000
  O   O16       1.0  0.84188  0.032649999999999985  0.78808  1.0000
  O   O17       1.0  0.5865399999999998  0.6618599999999998  0.17192  1.0000
  O   O18       1.0  0.3916  0.61425  0.89763  1.0000
  O   O19       1.0  0.9570699999999999  0.56749  0.74074  1.0000
  O   O20       1.0  0.48642  0.7377399999999998  0.31941  1.0000
  O   O21       1.0  0.44573  0.98022  0.6304  1.0000
  O   O22       1.0  0.33443  0.4717700000000001  0.71441  1.0000
  O   O23       1.0  0.09865  0.83349  0.32552  1.0000
  O   O24       1.0  0.8990299999999999  0.88605  0.6001  1.0000
