data_image0
_chemical_formula_structural       Zn4H32C52N4O16
_chemical_formula_sum              "Zn4 H32 C52 N4 O16"
_cell_length_a       11.02884
_cell_length_b       11.03747
_cell_length_c       14.04901
_cell_angle_alpha    88.71626999999998
_cell_angle_beta     89.76252
_cell_angle_gamma    80.48843

_space_group_name_H-M_alt    "P 1"
_space_group_IT_number       1

loop_
  _space_group_symop_operation_xyz
  'x, y, z'

loop_
  _atom_site_type_symbol
  _atom_site_label
  _atom_site_symmetry_multiplicity
  _atom_site_fract_x
  _atom_site_fract_y
  _atom_site_fract_z
  _atom_site_occupancy
  Zn  Zn1       1.0  0.7295900000000001  0.33679999999999993  0.8018800000000001  1.0000
  Zn  Zn2       1.0  0.7302099999999999  0.34213999999999994  0.59754  1.0000
  Zn  Zn3       1.0  0.27041  0.66319  0.19812000000000002  1.0000
  Zn  Zn4       1.0  0.26979  0.65785  0.40246  1.0000
  H   H1        1.0  0.77341  0.72316  0.55621  1.0000
  H   H2        1.0  0.7919899999999999  0.9461599999999999  0.55801  1.0000
  H   H3        1.0  0.69135  0.95822  0.85326  1.0000
  H   H4        1.0  0.67472  0.73363  0.85179  1.0000
  H   H5        1.0  0.33479000000000003  0.3892799999999999  0.54743  1.0000
  H   H6        1.0  0.10902999999999999  0.3861399999999999  0.54754  1.0000
  H   H7        1.0  0.1195  0.3050899999999999  0.84746  1.0000
  H   H8        1.0  0.347  0.30965999999999994  0.84826  1.0000
  H   H9        1.0  0.92365  0.31194  0.4497600000000001  1.0000
  H   H10       1.0  0.94011  0.30637999999999993  0.27243  1.0000
  H   H11       1.0  0.54267  0.3537799999999999  0.26324  1.0000
  H   H12       1.0  0.54316  0.3573799999999999  0.44071  1.0000
  H   H13       1.0  0.90213  0.18768999999999997  0.13142  1.0000
  H   H14       1.0  0.891  0.19754  0.95277  1.0000
  H   H15       1.0  0.59322  0.47823  0.95524  1.0000
  H   H16       1.0  0.58781  0.4798199999999999  0.13413  1.0000
  H   H17       1.0  0.22659000000000004  0.2768399999999999  0.44379  1.0000
  H   H18       1.0  0.20800999999999997  0.053829999999999996  0.44199  1.0000
  H   H19       1.0  0.30864  0.04177  0.14674  1.0000
  H   H20       1.0  0.32528  0.26635999999999993  0.14821  1.0000
  H   H21       1.0  0.66521  0.61071  0.45257  1.0000
  H   H22       1.0  0.89097  0.61385  0.45246000000000003  1.0000
  H   H23       1.0  0.8805  0.6948999999999999  0.15254000000000004  1.0000
  H   H24       1.0  0.653  0.6903299999999999  0.15174  1.0000
  H   H25       1.0  0.07635  0.68805  0.55024  1.0000
  H   H26       1.0  0.05988999999999999  0.69361  0.72757  1.0000
  H   H27       1.0  0.45732999999999996  0.6462199999999999  0.73676  1.0000
  H   H28       1.0  0.45684  0.64262  0.55929  1.0000
  H   H29       1.0  0.09787000000000003  0.8122999999999999  0.86858  1.0000
  H   H30       1.0  0.10899  0.80245  0.04723  1.0000
  H   H31       1.0  0.40677  0.52176  0.04476  1.0000
  H   H32       1.0  0.41218000000000005  0.52018  0.86587  1.0000
  C   C1        1.0  0.711  0.5813699999999999  0.70124  1.0000
  C   C2        1.0  0.7220300000000001  0.7150399999999999  0.7035100000000002  1.0000
  C   C3        1.0  0.7561899999999999  0.77491  0.62098  1.0000
  C   C4        1.0  0.76679  0.8988499999999998  0.62196  1.0000
  C   C5        1.0  0.7429399999999999  0.9651799999999998  0.7058500000000002  1.0000
  C   C6        1.0  0.71024  0.9052499999999999  0.7889900000000002  1.0000
  C   C7        1.0  0.7002  0.7809799999999999  0.78794  1.0000
  C   C8        1.0  0.74772  0.10037999999999997  0.7054300000000001  1.0000
  C   C9        1.0  0.49027  0.35078  0.69971  1.0000
  C   C10       1.0  0.35478  0.34884999999999994  0.69823  1.0000
  C   C11       1.0  0.28813000000000005  0.3700499999999999  0.61301  1.0000
  C   C12       1.0  0.16226  0.3677  0.61278  1.0000
  C   C13       1.0  0.10166999999999998  0.34256  0.69706  1.0000
  C   C14       1.0  0.16809  0.32287  0.78251  1.0000
  C   C15       1.0  0.29375  0.3259299999999999  0.78296  1.0000
  C   C16       1.0  0.96708  0.3364  0.69596  1.0000
  C   C17       1.0  0.8422400000000001  0.31953  0.40507  1.0000
  C   C18       1.0  0.85028  0.31593  0.3064  1.0000
  C   C19       1.0  0.7417799999999999  0.32963999999999993  0.2527  1.0000
  C   C20       1.0  0.62932  0.3439999999999999  0.30162  1.0000
  C   C21       1.0  0.62869  0.34555  0.40046  1.0000
  C   C22       1.0  0.74371  0.33178  0.14759  1.0000
  C   C23       1.0  0.8316999999999999  0.25339  0.09545000000000002  1.0000
  C   C24       1.0  0.8263000000000001  0.25778  0.99642  1.0000
  C   C25       1.0  0.6577600000000001  0.4143599999999999  0.9979400000000002  1.0000
  C   C26       1.0  0.65538  0.4143599999999999  0.09674  1.0000
  C   C27       1.0  0.289  0.41861999999999994  0.29877  1.0000
  C   C28       1.0  0.27796  0.2849499999999999  0.2964900000000001  1.0000
  C   C29       1.0  0.24381  0.22508999999999998  0.37902  1.0000
  C   C30       1.0  0.23321000000000003  0.10113999999999997  0.37804  1.0000
  C   C31       1.0  0.25706  0.03481  0.2941500000000001  1.0000
  C   C32       1.0  0.28976  0.09475  0.21101000000000003  1.0000
  C   C33       1.0  0.29980000000000007  0.21900999999999995  0.21206  1.0000
  C   C34       1.0  0.25228  0.8996099999999999  0.29457  1.0000
  C   C35       1.0  0.50972  0.6492099999999998  0.3003  1.0000
  C   C36       1.0  0.6452199999999999  0.65114  0.3017700000000001  1.0000
  C   C37       1.0  0.7118699999999999  0.62995  0.38699  1.0000
  C   C38       1.0  0.83774  0.63229  0.38722  1.0000
  C   C39       1.0  0.8983300000000001  0.6574399999999999  0.3029400000000001  1.0000
  C   C40       1.0  0.83191  0.67712  0.21749  1.0000
  C   C41       1.0  0.70625  0.6740599999999999  0.21704  1.0000
  C   C42       1.0  0.032920000000000026  0.6635899999999999  0.30404  1.0000
  C   C43       1.0  0.15775000000000003  0.68046  0.5949300000000002  1.0000
  C   C44       1.0  0.14971999999999996  0.68406  0.6936  1.0000
  C   C45       1.0  0.25822  0.67035  0.7473  1.0000
  C   C46       1.0  0.37068  0.65599  0.6983800000000001  1.0000
  C   C47       1.0  0.37131000000000003  0.6544399999999999  0.59954  1.0000
  C   C48       1.0  0.2562900000000001  0.66821  0.85241  1.0000
  C   C49       1.0  0.1683  0.7466099999999999  0.9045500000000001  1.0000
  C   C50       1.0  0.1737  0.74221  0.00358  1.0000
  C   C51       1.0  0.34224  0.58564  0.00206  1.0000
  C   C52       1.0  0.34462  0.58563  0.90326  1.0000
  N   N1        1.0  0.73353  0.33433999999999997  0.45147  1.0000
  N   N2        1.0  0.7403300000000002  0.33654  0.9483100000000002  1.0000
  N   N3        1.0  0.26647  0.6656499999999999  0.54853  1.0000
  N   N4        1.0  0.2596700000000001  0.6634499999999999  0.05169  1.0000
  O   O1        1.0  0.7036999999999999  0.52665  0.78164  1.0000
  O   O2        1.0  0.70965  0.53293  0.61969  1.0000
  O   O3        1.0  0.75189  0.15367999999999998  0.62451  1.0000
  O   O4        1.0  0.74508  0.1512  0.78643  1.0000
  O   O5        1.0  0.54022  0.3516799999999999  0.7815400000000001  1.0000
  O   O6        1.0  0.54492  0.35158  0.6195400000000002  1.0000
  O   O7        1.0  0.91529  0.34015  0.61462  1.0000
  O   O8        1.0  0.91489  0.32792  0.77638  1.0000
  O   O9        1.0  0.2963  0.47333999999999987  0.21836  1.0000
  O   O10       1.0  0.29034000000000004  0.46705999999999986  0.38031  1.0000
  O   O11       1.0  0.24811000000000002  0.8463099999999999  0.37549  1.0000
  O   O12       1.0  0.25492  0.8487899999999998  0.21357000000000007  1.0000
  O   O13       1.0  0.45978  0.6483099999999999  0.21846  1.0000
  O   O14       1.0  0.45508  0.64841  0.38046000000000013  1.0000
  O   O15       1.0  0.08471000000000001  0.6598399999999999  0.38538  1.0000
  O   O16       1.0  0.08511000000000003  0.6720699999999998  0.22362000000000007  1.0000
