data_image0
_chemical_formula_structural       Zn4H48C72N8O20
_chemical_formula_sum              "Zn4 H48 C72 N8 O20"
_cell_length_a       11.55908
_cell_length_b       12.03322
_cell_length_c       20.01505
_cell_angle_alpha    89.98163
_cell_angle_beta     90.0144
_cell_angle_gamma    101.84816

_space_group_name_H-M_alt    "P 1"
_space_group_IT_number       1

loop_
  _space_group_symop_operation_xyz
  'x, y, z'

loop_
  _atom_site_type_symbol
  _atom_site_label
  _atom_site_symmetry_multiplicity
  _atom_site_fract_x
  _atom_site_fract_y
  _atom_site_fract_z
  _atom_site_occupancy
  Zn  Zn1       1.0  0.50548  0.9191200000000002  0.9189700000000001  1.0000
  Zn  Zn2       1.0  0.4946399999999999  0.58165  0.41891  1.0000
  Zn  Zn3       1.0  0.49452  0.08089  0.08103  1.0000
  Zn  Zn4       1.0  0.5053600000000001  0.41836  0.58108  1.0000
  H   H1        1.0  0.53116  0.13956  0.63077  1.0000
  H   H2        1.0  0.5337899999999998  0.67273  0.68503  1.0000
  H   H3        1.0  0.52548  0.023350000000000003  0.72321  1.0000
  H   H4        1.0  0.88065  0.7397600000000002  0.94502  1.0000
  H   H5        1.0  0.9564699999999999  0.09758  0.8947900000000001  1.0000
  H   H6        1.0  0.53456  0.90485  0.52017  1.0000
  H   H7        1.0  0.27109  0.75182  0.94493  1.0000
  H   H8        1.0  0.33907000000000004  0.09105000000000002  0.8918199999999998  1.0000
  H   H9        1.0  0.05462999999999999  0.7406000000000001  0.94387  1.0000
  H   H10       1.0  0.6696200000000001  0.7493400000000002  0.94933  1.0000
  H   H11       1.0  0.12761999999999998  0.09705000000000001  0.89095  1.0000
  H   H12       1.0  0.7408499999999999  0.09027  0.90014  1.0000
  H   H13       1.0  0.4656699999999999  0.35960000000000003  0.13005  1.0000
  H   H14       1.0  0.46741  0.82725  0.18398  1.0000
  H   H15       1.0  0.47172999999999987  0.47577  0.22221  1.0000
  H   H16       1.0  0.11943000000000002  0.7603800000000002  0.44490999999999997  1.0000
  H   H17       1.0  0.04372000000000001  0.4024800000000001  0.39507  1.0000
  H   H18       1.0  0.46223  0.59395  0.01923  1.0000
  H   H19       1.0  0.72922  0.74847  0.44494000000000006  1.0000
  H   H20       1.0  0.6610099999999999  0.40926  0.39178  1.0000
  H   H21       1.0  0.9456299999999996  0.7595300000000001  0.44383  1.0000
  H   H22       1.0  0.33065999999999995  0.7511900000000001  0.44859  1.0000
  H   H23       1.0  0.8723799999999999  0.40309000000000006  0.39104  1.0000
  H   H24       1.0  0.25939000000000006  0.4100100000000001  0.40004000000000006  1.0000
  H   H25       1.0  0.4688399999999999  0.8604500000000002  0.36922  1.0000
  H   H26       1.0  0.46620999999999996  0.32728000000000007  0.31497  1.0000
  H   H27       1.0  0.47452  0.97665  0.27679  1.0000
  H   H28       1.0  0.11934999999999998  0.26024  0.054970000000000005  1.0000
  H   H29       1.0  0.04354000000000004  0.9024300000000002  0.10521000000000001  1.0000
  H   H30       1.0  0.4654499999999999  0.09515000000000003  0.47983  1.0000
  H   H31       1.0  0.72891  0.24818  0.05507  1.0000
  H   H32       1.0  0.66093  0.9089600000000002  0.10817  1.0000
  H   H33       1.0  0.94537  0.2594  0.05612999999999999  1.0000
  H   H34       1.0  0.33038  0.25066  0.05066999999999999  1.0000
  H   H35       1.0  0.87238  0.90295  0.10905000000000001  1.0000
  H   H36       1.0  0.25916000000000006  0.9097300000000001  0.09985  1.0000
  H   H37       1.0  0.53433  0.6404000000000001  0.86994  1.0000
  H   H38       1.0  0.5325999999999999  0.17275  0.81602  1.0000
  H   H39       1.0  0.52828  0.52424  0.77778  1.0000
  H   H40       1.0  0.8805799999999998  0.23963000000000007  0.55508  1.0000
  H   H41       1.0  0.9562899999999999  0.5975200000000002  0.60493  1.0000
  H   H42       1.0  0.5377699999999999  0.40605000000000013  0.9807600000000001  1.0000
  H   H43       1.0  0.27078  0.25154000000000004  0.55506  1.0000
  H   H44       1.0  0.33899000000000007  0.5907400000000002  0.60822  1.0000
  H   H45       1.0  0.05437  0.24047000000000004  0.55616  1.0000
  H   H46       1.0  0.66934  0.24882000000000004  0.55141  1.0000
  H   H47       1.0  0.12761999999999998  0.59692  0.60895  1.0000
  H   H48       1.0  0.74061  0.58999  0.59996  1.0000
  C   C1        1.0  0.5281699999999999  0.84559  0.71167  1.0000
  C   C2        1.0  0.53432  0.68531  0.54954  1.0000
  C   C3        1.0  0.94066  0.9187700000000002  0.9198899999999999  1.0000
  C   C4        1.0  0.53305  0.75762  0.66671  1.0000
  C   C5        1.0  0.5289  0.9554  0.68794  1.0000
  C   C6        1.0  0.85582  0.8205500000000001  0.9350600000000001  1.0000
  C   C7        1.0  0.8974699999999998  0.0177  0.90705  1.0000
  C   C8        1.0  0.5210199999999999  0.8230700000000002  0.78579  1.0000
  C   C9        1.0  0.53393  0.97816  0.61908  1.0000
  C   C10       1.0  0.53521  0.7799300000000002  0.59783  1.0000
  C   C11       1.0  0.06909000000000004  0.9189300000000002  0.91825  1.0000
  C   C12       1.0  0.53497  0.88947  0.57377  1.0000
  C   C13       1.0  0.23472  0.8261100000000001  0.9330500000000002  1.0000
  C   C14       1.0  0.27318  0.015400000000000004  0.9039900000000001  1.0000
  C   C15       1.0  0.11342000000000005  0.8210600000000002  0.9325100000000001  1.0000
  C   C16       1.0  0.7364  0.8246500000000002  0.9375000000000001  1.0000
  C   C17       1.0  0.15335999999999997  0.017530000000000004  0.9031300000000001  1.0000
  C   C18       1.0  0.7768  0.01507  0.90998  1.0000
  C   C19       1.0  0.47124000000000005  0.6542100000000001  0.21071000000000004  1.0000
  C   C20       1.0  0.46534  0.8142100000000001  0.04839  1.0000
  C   C21       1.0  0.0595  0.58136  0.41992000000000007  1.0000
  C   C22       1.0  0.4670499999999999  0.7422  0.16562  1.0000
  C   C23       1.0  0.46884999999999993  0.54409  0.18711  1.0000
  C   C24       1.0  0.14434  0.67968  0.43488  1.0000
  C   C25       1.0  0.10272999999999997  0.48245  0.4071199999999999  1.0000
  C   C26       1.0  0.47903  0.67742  0.28476  1.0000
  C   C27       1.0  0.46271000000000007  0.5210600000000001  0.11830000000000002  1.0000
  C   C28       1.0  0.4638899999999999  0.71957  0.09675  1.0000
  C   C29       1.0  0.9310399999999999  0.58117  0.41835000000000006  1.0000
  C   C30       1.0  0.46238999999999997  0.60967  0.07282  1.0000
  C   C31       1.0  0.76548  0.67413  0.43309  1.0000
  C   C32       1.0  0.7268899999999998  0.4848600000000001  0.40404  1.0000
  C   C33       1.0  0.88678  0.67908  0.43254999999999993  1.0000
  C   C34       1.0  0.26384  0.67579  0.437  1.0000
  C   C35       1.0  0.8467  0.48263  0.40325000000000005  1.0000
  C   C36       1.0  0.22346  0.48523  0.40981  1.0000
  C   C37       1.0  0.47182999999999997  0.15442  0.28833  1.0000
  C   C38       1.0  0.46568999999999994  0.3146900000000001  0.45046  1.0000
  C   C39       1.0  0.05934  0.08124  0.0801  1.0000
  C   C40       1.0  0.46695  0.24239000000000005  0.33329  1.0000
  C   C41       1.0  0.4710999999999999  0.04461000000000001  0.31206  1.0000
  C   C42       1.0  0.14418000000000003  0.17946  0.06493  1.0000
  C   C43       1.0  0.10253000000000004  0.9823100000000002  0.09295000000000002  1.0000
  C   C44       1.0  0.47897999999999996  0.17693  0.21420999999999998  1.0000
  C   C45       1.0  0.4660799999999999  0.021840000000000002  0.38092  1.0000
  C   C46       1.0  0.46479999999999994  0.22007  0.40217  1.0000
  C   C47       1.0  0.93091  0.08107000000000002  0.08174  1.0000
  C   C48       1.0  0.46503999999999995  0.11053000000000002  0.42623  1.0000
  C   C49       1.0  0.7652799999999998  0.17389000000000002  0.06694  1.0000
  C   C50       1.0  0.72682  0.9846  0.09601  1.0000
  C   C51       1.0  0.8865899999999998  0.17895000000000003  0.06749  1.0000
  C   C52       1.0  0.2636  0.17536000000000004  0.06249  1.0000
  C   C53       1.0  0.84664  0.98248  0.09686  1.0000
  C   C54       1.0  0.22321  0.9849300000000002  0.09001  1.0000
  C   C55       1.0  0.52876  0.34579  0.78928  1.0000
  C   C56       1.0  0.5346599999999999  0.18579000000000007  0.9516100000000001  1.0000
  C   C57       1.0  0.9405099999999997  0.41865  0.58007  1.0000
  C   C58       1.0  0.53295  0.25781  0.83438  1.0000
  C   C59       1.0  0.5311500000000001  0.4559100000000001  0.81289  1.0000
  C   C60       1.0  0.85566  0.32033000000000006  0.56512  1.0000
  C   C61       1.0  0.8972799999999999  0.51755  0.59287  1.0000
  C   C62       1.0  0.52097  0.32258  0.7152400000000001  1.0000
  C   C63       1.0  0.5373  0.4789500000000001  0.88169  1.0000
  C   C64       1.0  0.53611  0.28043  0.9032399999999999  1.0000
  C   C65       1.0  0.06896000000000001  0.4188300000000001  0.58164  1.0000
  C   C66       1.0  0.5376099999999999  0.39034  0.92718  1.0000
  C   C67       1.0  0.23451999999999995  0.32588000000000006  0.56691  1.0000
  C   C68       1.0  0.27311  0.51514  0.59596  1.0000
  C   C69       1.0  0.11321999999999997  0.32093  0.56745  1.0000
  C   C70       1.0  0.73617  0.32422000000000006  0.563  1.0000
  C   C71       1.0  0.1533  0.51738  0.59675  1.0000
  C   C72       1.0  0.77655  0.51477  0.59018  1.0000
  N   N1        1.0  0.31447  0.92199  0.91974  1.0000
  N   N2        1.0  0.69674  0.9205500000000002  0.92543  1.0000
  N   N3        1.0  0.68563  0.57831  0.41978  1.0000
  N   N4        1.0  0.3035399999999999  0.57993  0.42491  1.0000
  N   N5        1.0  0.6855399999999999  0.07802  0.08026  1.0000
  N   N6        1.0  0.30326  0.07946  0.07457  1.0000
  N   N7        1.0  0.31436999999999987  0.4217  0.58022  1.0000
  N   N8        1.0  0.6964599999999997  0.42008  0.57508  1.0000
  O   O1        1.0  0.5366899999999999  0.08392000000000001  0.59392  1.0000
  O   O2        1.0  0.5481099999999999  0.59013  0.57248  1.0000
  O   O3        1.0  0.5028199999999999  0.9074900000000001  0.8213  1.0000
  O   O4        1.0  0.53213  0.7278100000000001  0.80767  1.0000
  O   O5        1.0  0.52007  0.7058100000000002  0.48758000000000007  1.0000
  O   O6        1.0  0.45797  0.41491000000000006  0.09345  1.0000
  O   O7        1.0  0.45167  0.90955  0.07103  1.0000
  O   O8        1.0  0.49726  0.59342  0.3206  1.0000
  O   O9        1.0  0.4681399999999999  0.7730100000000002  0.30619  1.0000
  O   O10       1.0  0.47989  0.7938  0.9864400000000001  1.0000
  O   O11       1.0  0.46331  0.91608  0.40607999999999994  1.0000
  O   O12       1.0  0.45189  0.40988  0.42751999999999996  1.0000
  O   O13       1.0  0.49717999999999996  0.09252  0.1787  1.0000
  O   O14       1.0  0.46787  0.2722  0.19233  1.0000
  O   O15       1.0  0.47992999999999997  0.2942000000000001  0.51242  1.0000
  O   O16       1.0  0.54203  0.58509  0.90655  1.0000
  O   O17       1.0  0.54834  0.09046000000000001  0.9289699999999999  1.0000
  O   O18       1.0  0.5027399999999999  0.4065900000000001  0.67939  1.0000
  O   O19       1.0  0.53186  0.22699000000000005  0.69381  1.0000
  O   O20       1.0  0.5201199999999999  0.20620000000000005  0.01355  1.0000
