data_image0
_chemical_formula_structural       Mg8H28C52O32
_chemical_formula_sum              "Mg8 H28 C52 O32"
_cell_length_a       8.82796
_cell_length_b       12.04861
_cell_length_c       19.936990000000005
_cell_angle_alpha    85.21152
_cell_angle_beta     77.11298
_cell_angle_gamma    68.36631

_symmetry_space_group_name_H-M    'P 1'
_symmetry_Int_Tables_number       1

loop_
  _symmetry_equiv_pos_as_xyz
  'x,y,z'

loop_
  _atom_site_type_symbol
  _atom_site_label
  _atom_site_symmetry_multiplicity
  _atom_site_fract_x
  _atom_site_fract_y
  _atom_site_fract_z
  _atom_site_occupancy
  Mg  Mg1       1.0  0.45333  0.47371  0.9226399999999999  1.0000
  Mg  Mg2       1.0  0.16269000000000008  0.33864999999999995  0.9748  1.0000
  Mg  Mg3       1.0  0.84921  0.5262699999999999  0.07746  1.0000
  Mg  Mg4       1.0  0.47659000000000007  0.6611599999999999  0.02524  1.0000
  Mg  Mg5       1.0  0.62454  0.9740899999999999  0.57775  1.0000
  Mg  Mg6       1.0  0.38580000000000014  0.8393499999999999  0.52532  1.0000
  Mg  Mg7       1.0  0.17623999999999998  0.026599999999999995  0.42145  1.0000
  Mg  Mg8       1.0  0.74944  0.1618  0.47455  1.0000
  H   H1        1.0  0.3764600000000001  0.22068999999999997  0.74438  1.0000
  H   H2        1.0  0.14590999999999996  0.60138  0.10269  1.0000
  H   H3        1.0  0.24597999999999998  0.5906399999999999  0.79204  1.0000
  H   H4        1.0  0.47284999999999994  0.46162  0.58448  1.0000
  H   H5        1.0  0.8635  0.18296  0.96725  1.0000
  H   H6        1.0  0.34445  0.6308999999999999  0.66809  1.0000
  H   H7        1.0  0.34214000000000006  0.77971  0.25524  1.0000
  H   H8        1.0  0.8514100000000001  0.39802999999999994  0.89747  1.0000
  H   H9        1.0  0.6268000000000001  0.40877  0.20842  1.0000
  H   H10       1.0  0.51941  0.53922  0.41537  1.0000
  H   H11       1.0  0.014570000000000083  0.8157299999999998  0.03305  1.0000
  H   H12       1.0  0.6427000000000004  0.36942  0.33216  1.0000
  H   H13       1.0  0.3696900000000001  0.7212899999999999  0.75666  1.0000
  H   H14       1.0  0.49865  0.10254  0.39671  1.0000
  H   H15       1.0  0.28604  0.09161  0.70872  1.0000
  H   H16       1.0  0.30822999999999995  0.9616899999999999  0.91603  1.0000
  H   H17       1.0  0.07931999999999997  0.68239  0.53264  1.0000
  H   H18       1.0  0.26245999999999997  0.13112  0.8323999999999999  1.0000
  H   H19       1.0  0.84759  0.27934  0.24387999999999999  1.0000
  H   H20       1.0  0.9994699999999997  0.8983199999999999  0.60282  1.0000
  H   H21       1.0  0.0853900000000001  0.9084099999999999  0.29146  1.0000
  H   H22       1.0  0.18618000000000004  0.03837999999999999  0.08428  1.0000
  H   H23       1.0  0.29523000000000005  0.31542  0.4668800000000001  1.0000
  H   H24       1.0  0.22554000000000002  0.86894  0.16776  1.0000
  H   H25       1.0  0.07952000000000002  0.9991699999999999  0.00016  1.0000
  H   H26       1.0  0.5166700000000003  0.9996699999999998  0.9999499999999999  1.0000
  H   H27       1.0  0.3282  0.49816  0.50001  1.0000
  H   H28       1.0  0.7642300000000001  0.5003699999999999  0.49996999999999997  1.0000
  C   C1        1.0  0.24384000000000006  0.3816999999999999  0.84937  1.0000
  C   C2        1.0  0.67566  0.10379999999999998  0.98177  1.0000
  C   C3        1.0  0.5074499999999995  0.23164  0.60871  1.0000
  C   C4        1.0  0.42918000000000006  0.33197999999999994  0.65913  1.0000
  C   C5        1.0  0.54428  0.21668999999999997  0.96431  1.0000
  C   C6        1.0  0.36773  0.31065  0.72805  1.0000
  C   C7        1.0  0.1999  0.53954  0.058789999999999995  1.0000
  C   C8        1.0  0.2957199999999999  0.51939  0.75418  1.0000
  C   C9        1.0  0.30257999999999996  0.404  0.77579  1.0000
  C   C10       1.0  0.42189  0.44743999999999995  0.63799  1.0000
  C   C11       1.0  0.8356299999999999  0.10243999999999999  0.98142  1.0000
  C   C12       1.0  0.3532500000000002  0.54106  0.68517  1.0000
  C   C13       1.0  0.47443000000000013  0.6179099999999998  0.15063  1.0000
  C   C14       1.0  0.76179  0.89534  0.01835  1.0000
  C   C15       1.0  0.3478099999999998  0.7696299999999999  0.39083  1.0000
  C   C16       1.0  0.42038  0.66882  0.34064  1.0000
  C   C17       1.0  0.7260200000000002  0.7826499999999997  0.03572  1.0000
  C   C18       1.0  0.40657  0.68972  0.27173  1.0000
  C   C19       1.0  0.79861  0.45998999999999995  0.9413000000000001  1.0000
  C   C20       1.0  0.5682900000000004  0.48048999999999986  0.24603  1.0000
  C   C21       1.0  0.48199000000000003  0.59599  0.22418  1.0000
  C   C22       1.0  0.5073400000000005  0.5532999999999999  0.36193  1.0000
  C   C23       1.0  0.9201600000000001  0.8963299999999997  0.01882  1.0000
  C   C24       1.0  0.5788600000000004  0.45929  0.31498  1.0000
  C   C25       1.0  0.3408200000000002  0.8826799999999998  0.65139  1.0000
  C   C26       1.0  0.9057499999999999  0.6037099999999999  0.51826  1.0000
  C   C27       1.0  0.3655599999999999  0.73138  0.8919299999999999  1.0000
  C   C28       1.0  0.338  0.83219  0.84159  1.0000
  C   C29       1.0  0.7575100000000002  0.7169599999999999  0.53571  1.0000
  C   C30       1.0  0.3449200000000001  0.8112599999999999  0.77274  1.0000
  C   C31       1.0  0.5065  0.041479999999999996  0.44106000000000006  1.0000
  C   C32       1.0  0.29881  0.02002  0.74649  1.0000
  C   C33       1.0  0.3271799999999999  0.90474  0.72489  1.0000
  C   C34       1.0  0.31021  0.9475199999999998  0.86263  1.0000
  C   C35       1.0  0.06559000000000002  0.60193  0.51859  1.0000
  C   C36       1.0  0.28828  0.04132  0.8154  1.0000
  C   C37       1.0  0.87397  0.11801999999999999  0.34891  1.0000
  C   C38       1.0  0.027900000000000032  0.39567  0.48122  1.0000
  C   C39       1.0  0.9901500000000001  0.26864  0.10822  1.0000
  C   C40       1.0  0.012030000000000015  0.16818999999999998  0.15874  1.0000
  C   C41       1.0  0.009829999999999967  0.28337  0.46299000000000007  1.0000
  C   C42       1.0  0.9288299999999999  0.1893  0.22762000000000002  1.0000
  C   C43       1.0  0.9892400000000002  0.9599199999999998  0.55873  1.0000
  C   C44       1.0  0.06457000000000009  0.9801699999999998  0.25379  1.0000
  C   C45       1.0  0.95636  0.0957  0.27544  1.0000
  C   C46       1.0  0.12038000000000003  0.05262999999999999  0.1377  1.0000
  C   C47       1.0  0.18686000000000003  0.39615999999999996  0.48106000000000004  1.0000
  C   C48       1.0  0.14454000000000003  0.95879  0.18487  1.0000
  C   C49       1.0  0.95644  0.9992999999999999  0.00014  1.0000
  C   C50       1.0  0.63979  0.9996299999999999  3.0000000000000004e-05  1.0000
  C   C51       1.0  0.20493999999999996  0.4987  0.49995  1.0000
  C   C52       1.0  0.8876700000000002  0.4998999999999999  0.49988  1.0000
  O   O1        1.0  0.3407800000000001  0.53467  0.02287  1.0000
  O   O2        1.0  0.5548899999999999  0.2564199999999999  0.54583  1.0000
  O   O3        1.0  0.26365000000000005  0.44184999999999997  0.89603  1.0000
  O   O4        1.0  0.17405999999999994  0.30606  0.8689400000000002  1.0000
  O   O5        1.0  0.11811999999999999  0.4779  0.04737  1.0000
  O   O6        1.0  0.5234  0.12667  0.63195  1.0000
  O   O7        1.0  0.5912800000000001  0.30176  0.93589  1.0000
  O   O8        1.0  0.3938400000000001  0.22220999999999994  0.9797700000000001  1.0000
  O   O9        1.0  0.8982099999999997  0.46475999999999995  0.97742  1.0000
  O   O10       1.0  0.35656  0.7451  0.45379  1.0000
  O   O11       1.0  0.6006800000000001  0.5563  0.10397  1.0000
  O   O12       1.0  0.34903  0.69453  0.13105  1.0000
  O   O13       1.0  0.6434999999999998  0.52189  0.95247  1.0000
  O   O14       1.0  0.2824900000000001  0.8745999999999999  0.3673  1.0000
  O   O15       1.0  0.8298  0.69742  0.06421  1.0000
  O   O16       1.0  0.5968100000000001  0.7771999999999999  0.02019  1.0000
  O   O17       1.0  0.60747  0.03898  0.47837  1.0000
  O   O18       1.0  0.34942000000000006  0.7554599999999999  0.9549200000000001  1.0000
  O   O19       1.0  0.4079499999999999  0.9422999999999999  0.60423  1.0000
  O   O20       1.0  0.28890000000000005  0.80773  0.63241  1.0000
  O   O21       1.0  0.41548999999999997  0.9782199999999999  0.45143  1.0000
  O   O22       1.0  0.40516000000000024  0.6264899999999999  0.86862  1.0000
  O   O23       1.0  0.7781300000000001  0.8026099999999998  0.56248  1.0000
  O   O24       1.0  0.6210399999999999  0.7223  0.52185  1.0000
  O   O25       1.0  0.12489000000000008  0.9636899999999998  0.52159  1.0000
  O   O26       1.0  0.060870000000000035  0.24393999999999993  0.04521  1.0000
  O   O27       1.0  0.9528400000000001  0.05791999999999999  0.39622  1.0000
  O   O28       1.0  0.7281200000000001  0.19387999999999994  0.36774  1.0000
  O   O29       1.0  0.8446700000000001  0.022269999999999995  0.54845  1.0000
  O   O30       1.0  0.90262  0.3738799999999999  0.13137  1.0000
  O   O31       1.0  0.14251  0.19877999999999998  0.43415000000000004  1.0000
  O   O32       1.0  0.86497  0.27775  0.47819000000000006  1.0000
