data_image0
_chemical_formula_structural       Cu12H30C50N20O20
_chemical_formula_sum              "Cu12 H30 C50 N20 O20"
_cell_length_a       11.54093
_cell_length_b       13.03093
_cell_length_c       22.25328
_cell_angle_alpha    89.92925999999999
_cell_angle_beta     89.99550000000002
_cell_angle_gamma    109.93315000000001

_symmetry_space_group_name_H-M    'P 1'
_symmetry_Int_Tables_number       1

loop_
  _symmetry_equiv_pos_as_xyz
  'x,y,z'

loop_
  _atom_site_type_symbol
  _atom_site_label
  _atom_site_symmetry_multiplicity
  _atom_site_fract_x
  _atom_site_fract_y
  _atom_site_fract_z
  _atom_site_occupancy
  Cu  Cu1       1.0  0.03504000000000001  0.41068  0.45779000000000003  1.0000
  Cu  Cu2       1.0  0.7888200000000001  0.06613  0.94392  1.0000
  Cu  Cu3       1.0  0.72148  0.5434300000000001  0.96484  1.0000
  Cu  Cu4       1.0  0.12423000000000008  0.94091  0.48591  1.0000
  Cu  Cu5       1.0  0.40439  0.39031  0.32038  1.0000
  Cu  Cu6       1.0  0.46289000000000013  0.12525  0.78028  1.0000
  Cu  Cu7       1.0  0.5372900000000003  0.9117100000000002  0.5420400000000001  1.0000
  Cu  Cu8       1.0  0.29159000000000007  0.5674800000000001  0.05599000000000001  1.0000
  Cu  Cu9       1.0  0.22015000000000007  0.043620000000000006  0.03455  1.0000
  Cu  Cu10      1.0  0.6226200000000002  0.4409500000000001  0.51439  1.0000
  Cu  Cu11      1.0  0.90198  0.88999  0.6800700000000001  1.0000
  Cu  Cu12      1.0  0.96563  0.6251400000000001  0.21973000000000006  1.0000
  H   H1        1.0  0.5782300000000002  0.6596200000000002  0.9094800000000002  1.0000
  H   H2        1.0  0.9129  0.01391  0.5267200000000001  1.0000
  H   H3        1.0  0.1748800000000001  0.6154500000000002  0.37986  1.0000
  H   H4        1.0  0.8655500000000002  0.18678  0.5113300000000001  1.0000
  H   H5        1.0  0.20327  0.12399  0.40426000000000006  1.0000
  H   H6        1.0  0.22000000000000003  0.8163200000000002  0.40187000000000006  1.0000
  H   H7        1.0  0.014040000000000039  0.9642100000000001  0.8034700000000001  1.0000
  H   H8        1.0  0.90925  0.25478000000000006  0.02106  1.0000
  H   H9        1.0  0.9065500000000001  0.75362  0.00792  1.0000
  H   H10       1.0  0.6593400000000001  0.37641000000000013  0.8811  1.0000
  H   H11       1.0  0.35075  0.04432  0.65866  1.0000
  H   H12       1.0  0.23239000000000007  0.047300000000000016  0.83692  1.0000
  H   H13       1.0  0.5999300000000001  0.85776  0.8968700000000001  1.0000
  H   H14       1.0  0.9538700000000001  0.7321500000000002  0.5370800000000001  1.0000
  H   H15       1.0  0.90205  0.44451  0.02737  1.0000
  H   H16       1.0  0.0788  0.16086  0.08949  1.0000
  H   H17       1.0  0.41333  0.51508  0.47284  1.0000
  H   H18       1.0  0.6760100000000001  0.11711000000000003  0.62086  1.0000
  H   H19       1.0  0.3657  0.68787  0.4880700000000001  1.0000
  H   H20       1.0  0.70251  0.62423  0.59577  1.0000
  H   H21       1.0  0.72008  0.31773  0.59815  1.0000
  H   H22       1.0  0.5164  0.46443000000000006  0.19659000000000001  1.0000
  H   H23       1.0  0.41103000000000006  0.75738  0.97867  1.0000
  H   H24       1.0  0.40715  0.25462  0.9908700000000001  1.0000
  H   H25       1.0  0.16131000000000006  0.8768100000000001  0.11964000000000002  1.0000
  H   H26       1.0  0.85347  0.54665  0.34118  1.0000
  H   H27       1.0  0.73461  0.54738  0.16297  1.0000
  H   H28       1.0  0.10215999999999999  0.35908  0.10304000000000002  1.0000
  H   H29       1.0  0.45306  0.23215000000000002  0.46361  1.0000
  H   H30       1.0  0.4027600000000001  0.9468900000000001  0.97281  1.0000
  C   C1        1.0  0.10346000000000001  0.23410000000000006  0.42116000000000003  1.0000
  C   C2        1.0  0.6446  0.16726000000000002  0.86257  1.0000
  C   C3        1.0  0.7204400000000001  0.24604000000000006  0.90845  1.0000
  C   C4        1.0  0.98246  0.59571  0.49201000000000006  1.0000
  C   C5        1.0  0.6556800000000002  0.7247600000000002  0.9282800000000002  1.0000
  C   C6        1.0  0.18811000000000003  0.3275  0.38615  1.0000
  C   C7        1.0  0.96695  0.07688  0.49583  1.0000
  C   C8        1.0  0.12618  0.64256  0.41488000000000014  1.0000
  C   C9        1.0  0.9411700000000002  0.17257  0.48763  1.0000
  C   C10       1.0  0.12698  0.13711  0.42783  1.0000
  C   C11       1.0  0.14974000000000007  0.7524200000000001  0.42635  1.0000
  C   C12       1.0  0.08943000000000005  0.9819100000000001  0.7714400000000001  1.0000
  C   C13       1.0  0.85311  0.28297000000000005  0.99034  1.0000
  C   C14       1.0  0.83691  0.7752500000000001  0.98329  1.0000
  C   C15       1.0  0.71636  0.35066  0.9123100000000001  1.0000
  C   C16       1.0  0.8494000000000003  0.88434  0.9769100000000001  1.0000
  C   C17       1.0  0.9600500000000002  0.9742  0.00034  1.0000
  C   C18       1.0  0.89978  0.50487  0.5311300000000001  1.0000
  C   C19       1.0  0.1233000000000001  0.9551300000000003  0.60749  1.0000
  C   C20       1.0  0.27686  0.027070000000000007  0.6915500000000001  1.0000
  C   C21       1.0  0.20995000000000003  0.027780000000000006  0.7899700000000002  1.0000
  C   C22       1.0  0.6668500000000002  0.8329800000000002  0.92203  1.0000
  C   C23       1.0  0.0028700000000000626  0.7059400000000002  0.50184  1.0000
  C   C24       1.0  0.15563000000000007  0.9810400000000002  0.6727100000000001  1.0000
  C   C25       1.0  0.8489900000000002  0.38738000000000006  0.99366  1.0000
  C   C26       1.0  0.6024400000000001  0.73426  0.57886  1.0000
  C   C27       1.0  0.14793000000000006  0.6674700000000001  0.13758  1.0000
  C   C28       1.0  0.22260000000000013  0.7469400000000003  0.09156000000000003  1.0000
  C   C29       1.0  0.48334  0.09638000000000002  0.50874  1.0000
  C   C30       1.0  0.15662  0.22583000000000003  0.07083  1.0000
  C   C31       1.0  0.68661  0.82737  0.61398  1.0000
  C   C32       1.0  0.46683  0.57777  0.5039100000000001  1.0000
  C   C33       1.0  0.62728  0.14375  0.58562  1.0000
  C   C34       1.0  0.44101000000000007  0.67344  0.51197  1.0000
  C   C35       1.0  0.6262600000000001  0.6374500000000001  0.5722000000000002  1.0000
  C   C36       1.0  0.65015  0.25349000000000005  0.5739  1.0000
  C   C37       1.0  0.5918000000000001  0.48250000000000004  0.22864000000000004  1.0000
  C   C38       1.0  0.35451000000000005  0.78486  0.00945  1.0000
  C   C39       1.0  0.33756000000000014  0.27621  0.01555  1.0000
  C   C40       1.0  0.21785000000000004  0.85147  0.08797000000000002  1.0000
  C   C41       1.0  0.35041  0.38534  0.02213  1.0000
  C   C42       1.0  0.46023000000000003  0.47592  0.9984800000000003  1.0000
  C   C43       1.0  0.40049000000000007  0.00524  0.4700100000000001  1.0000
  C   C44       1.0  0.62576  0.45809000000000005  0.39275  1.0000
  C   C45       1.0  0.7792800000000001  0.5288400000000001  0.30845  1.0000
  C   C46       1.0  0.7123000000000002  0.5282800000000001  0.20998000000000006  1.0000
  C   C47       1.0  0.16840000000000005  0.33405000000000007  0.07746  1.0000
  C   C48       1.0  0.50292  0.20650000000000002  0.49871000000000004  1.0000
  C   C49       1.0  0.6581000000000001  0.48299  0.32742000000000004  1.0000
  C   C50       1.0  0.34988  0.8891800000000002  0.00638  1.0000
  N   N1        1.0  0.7773600000000002  0.4227300000000001  0.9554600000000002  1.0000
  N   N2        1.0  0.01014  0.25399  0.45107  1.0000
  N   N3        1.0  0.042750000000000024  0.56315  0.44733  1.0000
  N   N4        1.0  0.08721000000000001  0.78575  0.4696  1.0000
  N   N5        1.0  0.05953000000000009  0.95757  0.7127700000000001  1.0000
  N   N6        1.0  0.76266  0.9146600000000001  0.9466300000000001  1.0000
  N   N7        1.0  0.78687  0.20923000000000003  0.9489200000000002  1.0000
  N   N8        1.0  0.74081  0.6936800000000002  0.95948  1.0000
  N   N9        1.0  0.30656  0.05183  0.7502300000000001  1.0000
  N   N10       1.0  0.06144  0.05797000000000001  0.46644  1.0000
  N   N11       1.0  0.27820999999999996  0.9239200000000001  0.04477  1.0000
  N   N12       1.0  0.50948  0.75441  0.54878  1.0000
  N   N13       1.0  0.5443  0.06406  0.5532400000000001  1.0000
  N   N14       1.0  0.5873  0.28658  0.53064  1.0000
  N   N15       1.0  0.5618900000000001  0.45858  0.2873800000000001  1.0000
  N   N16       1.0  0.26413  0.41559  0.05279000000000001  1.0000
  N   N17       1.0  0.2885300000000001  0.7105500000000002  0.050760000000000007  1.0000
  N   N18       1.0  0.24132  0.19455  0.03939000000000001  1.0000
  N   N19       1.0  0.8089900000000001  0.55251  0.24964  1.0000
  N   N20       1.0  0.56095  0.55862  0.53352  1.0000
  O   O1        1.0  0.21198  0.97929  0.57023  1.0000
  O   O2        1.0  0.6283100000000001  0.06779  0.8669300000000002  1.0000
  O   O3        1.0  0.59938  0.21384000000000003  0.82119  1.0000
  O   O4        1.0  0.24555  0.30183  0.34241  1.0000
  O   O5        1.0  0.19750000000000012  0.4227300000000001  0.40317  1.0000
  O   O6        1.0  0.9257300000000003  0.41659  0.53043  1.0000
  O   O7        1.0  0.9694400000000001  0.07143  0.9879900000000003  1.0000
  O   O8        1.0  0.03757999999999994  0.94325  0.03021  1.0000
  O   O9        1.0  0.81426  0.5210300000000001  0.56066  1.0000
  O   O10       1.0  0.009880000000000064  0.91173  0.5943600000000001  1.0000
  O   O11       1.0  0.7140600000000001  0.4843900000000001  0.43021  1.0000
  O   O12       1.0  0.13237000000000004  0.56815  0.13325000000000004  1.0000
  O   O13       1.0  0.10236000000000003  0.7135700000000001  0.17894000000000004  1.0000
  O   O14       1.0  0.74335  0.80162  0.6579200000000001  1.0000
  O   O15       1.0  0.69645  0.92277  0.5968000000000001  1.0000
  O   O16       1.0  0.42787  0.9176000000000001  0.46963  1.0000
  O   O17       1.0  0.46922000000000014  0.5726500000000001  0.012100000000000001  1.0000
  O   O18       1.0  0.53696  0.44691  0.9670300000000001  1.0000
  O   O19       1.0  0.31323  0.02085  0.44171000000000005  1.0000
  O   O20       1.0  0.51229  0.41304  0.4057  1.0000
