data_image0
_chemical_formula_structural       U8H16C48S8O32
_chemical_formula_sum              "U8 H16 C48 S8 O32"
_cell_length_a       12.19605
_cell_length_b       13.62735
_cell_length_c       16.23322
_cell_angle_alpha    89.99699
_cell_angle_beta     90.05155
_cell_angle_gamma    89.8631

_space_group_name_H-M_alt    "P 1"
_space_group_IT_number       1

loop_
  _space_group_symop_operation_xyz
  'x, y, z'

loop_
  _atom_site_type_symbol
  _atom_site_label
  _atom_site_symmetry_multiplicity
  _atom_site_fract_x
  _atom_site_fract_y
  _atom_site_fract_z
  _atom_site_occupancy
  U   U1        1.0  0.33412  0.95041  0.5980299999999997  1.0000
  U   U2        1.0  0.16573  0.55085  0.09743999999999997  1.0000
  U   U3        1.0  0.3344200000000001  0.04965999999999999  0.9023  1.0000
  U   U4        1.0  0.16731  0.44981  0.40232  1.0000
  U   U5        1.0  0.66489  0.050219999999999994  0.4012999999999999  1.0000
  U   U6        1.0  0.8339600000000001  0.44871  0.9025399999999998  1.0000
  U   U7        1.0  0.66529  0.95004  0.09857999999999997  1.0000
  U   U8        1.0  0.8325400000000002  0.55019  0.59827  1.0000
  H   H1        1.0  0.56992  0.8507199999999999  0.30547  1.0000
  H   H2        1.0  0.44687  0.7558699999999998  0.20158999999999994  1.0000
  H   H3        1.0  0.9302600000000001  0.6495999999999998  0.80503  1.0000
  H   H4        1.0  0.054140000000000015  0.74451  0.70235  1.0000
  H   H5        1.0  0.5708  0.14907  0.19499999999999998  1.0000
  H   H6        1.0  0.4469200000000001  0.24422  0.29804  1.0000
  H   H7        1.0  0.9291  0.35100999999999993  0.6945099999999997  1.0000
  H   H8        1.0  0.053840000000000006  0.25575  0.79729  1.0000
  H   H9        1.0  0.42979  0.14917  0.69434  1.0000
  H   H10       1.0  0.55248  0.24378999999999995  0.79836  1.0000
  H   H11       1.0  0.07046  0.35088  0.1944  1.0000
  H   H12       1.0  0.9466800000000001  0.25524  0.29699  1.0000
  H   H13       1.0  0.42917  0.8513  0.80563  1.0000
  H   H14       1.0  0.55263  0.75617  0.70201  1.0000
  H   H15       1.0  0.07106  0.64909  0.30527  1.0000
  H   H16       1.0  0.9461800000000002  0.74444  0.20308  1.0000
  C   C1        1.0  0.50458  0.85604  0.4746  1.0000
  C   C2        1.0  0.46758  0.80028  0.40676  1.0000
  C   C3        1.0  0.50004  0.80767  0.32304999999999995  1.0000
  C   C4        1.0  0.4347700000000001  0.75729  0.26809  1.0000
  C   C5        1.0  0.3511000000000001  0.70399  0.30794  1.0000
  C   C6        1.0  0.27144  0.64118  0.2743599999999999  1.0000
  C   C7        1.0  0.9944800000000003  0.6433099999999999  0.97367  1.0000
  C   C8        1.0  0.0326  0.69983  0.9069999999999998  1.0000
  C   C9        1.0  0.9998200000000002  0.69325  0.82329  1.0000
  C   C10       1.0  0.06586  0.74299  0.7690499999999998  1.0000
  C   C11       1.0  0.15023000000000003  0.7956899999999999  0.8089099999999998  1.0000
  C   C12       1.0  0.22925000000000006  0.85856  0.7742  1.0000
  C   C13       1.0  0.50347  0.14439999999999997  0.02576  1.0000
  C   C14       1.0  0.4668900000000001  0.19998  0.09341999999999998  1.0000
  C   C15       1.0  0.50064  0.19186999999999999  0.17678  1.0000
  C   C16       1.0  0.43528  0.24223999999999998  0.23169999999999993  1.0000
  C   C17       1.0  0.35122000000000003  0.29565  0.19187  1.0000
  C   C18       1.0  0.27194  0.35914  0.22533  1.0000
  C   C19       1.0  0.9957400000000001  0.3561799999999999  0.5262699999999998  1.0000
  C   C20       1.0  0.032830000000000005  0.2996999999999999  0.59329  1.0000
  C   C21       1.0  0.9991900000000001  0.30736  0.67653  1.0000
  C   C22       1.0  0.06512  0.25726  0.73076  1.0000
  C   C23       1.0  0.14993  0.20438999999999993  0.6911599999999998  1.0000
  C   C24       1.0  0.22908000000000003  0.14162  0.72655  1.0000
  C   C25       1.0  0.49643  0.14532  0.52536  1.0000
  C   C26       1.0  0.53315  0.20015  0.59351  1.0000
  C   C27       1.0  0.49973  0.19217  0.6768099999999998  1.0000
  C   C28       1.0  0.56488  0.24202999999999994  0.73196  1.0000
  C   C29       1.0  0.64863  0.29537  0.6922199999999997  1.0000
  C   C30       1.0  0.7278  0.35876  0.7252899999999998  1.0000
  C   C31       1.0  0.005690000000000001  0.35633  0.02538  1.0000
  C   C32       1.0  0.96791  0.30013  0.09252  1.0000
  C   C33       1.0  0.00063  0.30755  0.17622  1.0000
  C   C34       1.0  0.9348300000000003  0.25737  0.23055  1.0000
  C   C35       1.0  0.8509600000000002  0.20407  0.19093  1.0000
  C   C36       1.0  0.7721200000000003  0.14167  0.22711999999999993  1.0000
  C   C37       1.0  0.4966800000000001  0.85532  0.97521  1.0000
  C   C38       1.0  0.53256  0.80028  0.90683  1.0000
  C   C39       1.0  0.4994200000000001  0.8083499999999999  0.82329  1.0000
  C   C40       1.0  0.5649000000000001  0.7580699999999998  0.76846  1.0000
  C   C41       1.0  0.64871  0.70451  0.8084299999999998  1.0000
  C   C42       1.0  0.7287200000000001  0.64171  0.7749699999999998  1.0000
  C   C43       1.0  0.0037900000000000004  0.6436099999999998  0.4734299999999999  1.0000
  C   C44       1.0  0.96728  0.7001399999999999  0.4065  1.0000
  C   C45       1.0  0.00091  0.69241  0.32334  1.0000
  C   C46       1.0  0.93481  0.7426  0.26943  1.0000
  C   C47       1.0  0.8505500000000001  0.79554  0.30928  1.0000
  C   C48       1.0  0.7717  0.8584499999999998  0.274  1.0000
  S   S1        1.0  0.3574800000000001  0.7176199999999998  0.41558  1.0000
  S   S2        1.0  0.14299  0.78237  0.9166799999999998  1.0000
  S   S3        1.0  0.3568900000000001  0.28262  0.08449999999999998  1.0000
  S   S4        1.0  0.14339  0.21766  0.58352  1.0000
  S   S5        1.0  0.64282  0.28234  0.5848599999999998  1.0000
  S   S6        1.0  0.85716  0.21765  0.08339999999999997  1.0000
  S   S7        1.0  0.6426500000000002  0.71786  0.9158199999999997  1.0000
  S   S8        1.0  0.85662  0.78178  0.41666  1.0000
  O   O1        1.0  0.46282  0.8399399999999999  0.54941  1.0000
  O   O2        1.0  0.5754900000000001  0.9276599999999999  0.46467999999999987  1.0000
  O   O3        1.0  0.22672  0.57391  0.32052  1.0000
  O   O4        1.0  0.24108000000000004  0.6480499999999998  0.19688  1.0000
  O   O5        1.0  0.03318  0.65805  0.04938  1.0000
  O   O6        1.0  0.9241800000000002  0.57216  0.9606  1.0000
  O   O7        1.0  0.27537  0.92597  0.81965  1.0000
  O   O8        1.0  0.25837  0.8503299999999998  0.6963999999999998  1.0000
  O   O9        1.0  0.4632  0.16074  0.9507299999999997  1.0000
  O   O10       1.0  0.5730500000000001  0.07183  0.0361  1.0000
  O   O11       1.0  0.22758000000000003  0.4273699999999999  0.17972  1.0000
  O   O12       1.0  0.24208000000000002  0.35156999999999994  0.30295999999999995  1.0000
  O   O13       1.0  0.03698  0.34185  0.4514199999999999  1.0000
  O   O14       1.0  0.92398  0.4266099999999999  0.53698  1.0000
  O   O15       1.0  0.27607  0.07352999999999998  0.6818299999999998  1.0000
  O   O16       1.0  0.25788  0.15043  0.80444  1.0000
  O   O17       1.0  0.53719  0.16262  0.45061  1.0000
  O   O18       1.0  0.42726  0.07267  0.53533  1.0000
  O   O19       1.0  0.7716100000000001  0.4266299999999999  0.67889  1.0000
  O   O20       1.0  0.758  0.35157999999999995  0.80275  1.0000
  O   O21       1.0  0.96552  0.34146  0.94999  1.0000
  O   O22       1.0  0.07799000000000002  0.42655  0.036639999999999985  1.0000
  O   O23       1.0  0.72591  0.07242  0.18406999999999996  1.0000
  O   O24       1.0  0.74398  0.15241  0.30492  1.0000
  O   O25       1.0  0.5376  0.8375899999999997  0.04998  1.0000
  O   O26       1.0  0.42752  0.92845  0.9653899999999997  1.0000
  O   O27       1.0  0.7739500000000002  0.57394  0.82052  1.0000
  O   O28       1.0  0.75857  0.64949  0.6974  1.0000
  O   O29       1.0  0.9628400000000001  0.65784  0.54835  1.0000
  O   O30       1.0  0.07542  0.57301  0.46303  1.0000
  O   O31       1.0  0.7250200000000001  0.9265299999999999  0.31843  1.0000
  O   O32       1.0  0.7437700000000003  0.85015  0.19579999999999995  1.0000
