data_image0
_chemical_formula_structural       Cd6H40C60N10O20
_chemical_formula_sum              "Cd6 H40 C60 N10 O20"
_cell_length_a       12.08004
_cell_length_b       12.3595
_cell_length_c       19.28403
_cell_angle_alpha    92.1947
_cell_angle_beta     95.82186
_cell_angle_gamma    117.81484

_space_group_name_H-M_alt    "P 1"
_space_group_IT_number       1

loop_
  _space_group_symop_operation_xyz
  'x, y, z'

loop_
  _atom_site_type_symbol
  _atom_site_label
  _atom_site_symmetry_multiplicity
  _atom_site_fract_x
  _atom_site_fract_y
  _atom_site_fract_z
  _atom_site_occupancy
  Cd  Cd1       1.0  0.75847  0.50465  0.76216  1.0000
  Cd  Cd2       1.0  0.58606  0.6691199999999998  0.6986  1.0000
  Cd  Cd3       1.0  0.42962  0.32650000000000007  0.80294  1.0000
  Cd  Cd4       1.0  0.24152  0.49535  0.23784  1.0000
  Cd  Cd5       1.0  0.41393  0.33088000000000006  0.3014  1.0000
  Cd  Cd6       1.0  0.57038  0.6735  0.19706  1.0000
  H   H1        1.0  0.71082  0.52214  0.9734599999999999  1.0000
  H   H2        1.0  0.6945099999999998  0.56219  0.09966  1.0000
  H   H3        1.0  0.08517  0.32547  0.78651  1.0000
  H   H4        1.0  0.22102  0.66005  0.68466  1.0000
  H   H5        1.0  0.7311  0.15379  0.68744  1.0000
  H   H6        1.0  0.44750999999999996  0.97766  0.82237  1.0000
  H   H7        1.0  0.44347999999999993  0.77817  0.78515  1.0000
  H   H8        1.0  0.71661  0.94764  0.65613  1.0000
  H   H9        1.0  0.8796  0.32988  0.78739  1.0000
  H   H10       1.0  0.015769999999999996  0.65898  0.69698  1.0000
  H   H11       1.0  0.959  0.004859999999999994  0.66903  1.0000
  H   H12       1.0  0.09776999999999984  0.8561799999999998  0.83367  1.0000
  H   H13       1.0  0.16550999999999996  0.20042999999999997  0.69381  1.0000
  H   H14       1.0  0.29794  0.05832000000000003  0.8528200000000001  1.0000
  H   H15       1.0  0.29183  0.23818  0.56222  1.0000
  H   H16       1.0  0.68651  0.48480999999999996  0.55743  1.0000
  H   H17       1.0  0.6438699999999997  0.4462499999999999  0.42588999999999994  1.0000
  H   H18       1.0  0.2625  0.22060999999999995  0.43026  1.0000
  H   H19       1.0  0.53857  0.75101  0.9219100000000001  1.0000
  H   H20       1.0  0.51749  0.77181  0.04951  1.0000
  H   H21       1.0  0.28916999999999987  0.4778599999999999  0.026539999999999998  1.0000
  H   H22       1.0  0.30549000000000004  0.43781  0.90034  1.0000
  H   H23       1.0  0.91482  0.67453  0.21349  1.0000
  H   H24       1.0  0.77897  0.33994  0.31534  1.0000
  H   H25       1.0  0.26888999999999985  0.8462099999999998  0.31256  1.0000
  H   H26       1.0  0.55248  0.02234  0.17763  1.0000
  H   H27       1.0  0.55651  0.22182  0.21485  1.0000
  H   H28       1.0  0.28338  0.05235999999999999  0.34387  1.0000
  H   H29       1.0  0.12038999999999994  0.6701199999999999  0.21260999999999997  1.0000
  H   H30       1.0  0.98422  0.34101  0.30302  1.0000
  H   H31       1.0  0.040989999999999964  0.9951399999999998  0.33097  1.0000
  H   H32       1.0  0.9022199999999999  0.14382  0.16633  1.0000
  H   H33       1.0  0.83448  0.7995599999999999  0.30619  1.0000
  H   H34       1.0  0.7020499999999998  0.94167  0.14718  1.0000
  H   H35       1.0  0.7081699999999999  0.7618199999999999  0.43778  1.0000
  H   H36       1.0  0.31348  0.51518  0.44257  1.0000
  H   H37       1.0  0.35611999999999994  0.5537499999999999  0.57411  1.0000
  H   H38       1.0  0.7375  0.77939  0.56973  1.0000
  H   H39       1.0  0.46141999999999994  0.24899  0.07809  1.0000
  H   H40       1.0  0.48249999999999993  0.22819  0.95049  1.0000
  C   C1        1.0  0.17076  0.49387000000000003  0.7364  1.0000
  C   C2        1.0  0.29649  0.49662  0.73738  1.0000
  C   C3        1.0  0.6702699999999998  0.5802299999999999  0.9885999999999999  1.0000
  C   C4        1.0  0.62533  0.63342  0.9371500000000001  1.0000
  C   C5        1.0  0.6280599999999997  0.6087799999999999  0.86151  1.0000
  C   C6        1.0  0.89038  0.79621  0.7386  1.0000
  C   C7        1.0  0.51324  0.388  0.64771  1.0000
  C   C8        1.0  0.6604300000000001  0.60107  0.058269999999999995  1.0000
  C   C9        1.0  0.07211000000000001  0.3997  0.76539  1.0000
  C   C10       1.0  0.012119999999999949  0.9153099999999998  0.75016  1.0000
  C   C11       1.0  0.59848  0.20348  0.779  1.0000
  C   C12       1.0  0.14837000000000003  0.58686  0.70896  1.0000
  C   C13       1.0  0.59141  0.08181999999999998  0.75842  1.0000
  C   C14       1.0  0.66734  0.07246  0.71044  1.0000
  C   C15       1.0  0.50866  0.9740399999999999  0.7857399999999999  1.0000
  C   C16       1.0  0.50591  0.86378  0.76515  1.0000
  C   C17       1.0  0.6588  0.9586199999999999  0.69266  1.0000
  C   C18       1.0  0.9590899999999999  0.40256  0.7671  1.0000
  C   C19       1.0  0.03423000000000003  0.58579  0.71476  1.0000
  C   C20       1.0  0.03216000000000001  0.01374  0.71011  1.0000
  C   C21       1.0  0.10993000000000007  0.93099  0.80213  1.0000
  C   C22       1.0  0.14607  0.1221  0.72376  1.0000
  C   C23       1.0  0.22035999999999997  0.04245999999999997  0.81275  1.0000
  C   C24       1.0  0.49228  0.36396  0.57025  1.0000
  C   C25       1.0  0.37156999999999996  0.28624  0.53369  1.0000
  C   C26       1.0  0.59239  0.42298  0.5308  1.0000
  C   C27       1.0  0.569  0.40320999999999996  0.45837  1.0000
  C   C28       1.0  0.3550199999999999  0.2748399999999999  0.46097999999999995  1.0000
  C   C29       1.0  0.57275  0.70692  0.9599  1.0000
  C   C30       1.0  0.56238  0.71992  0.03043  1.0000
  C   C31       1.0  0.8292299999999999  0.50613  0.2636  1.0000
  C   C32       1.0  0.7035  0.50338  0.26262  1.0000
  C   C33       1.0  0.32973  0.4197699999999999  0.0114  1.0000
  C   C34       1.0  0.37465999999999994  0.36657999999999996  0.06285  1.0000
  C   C35       1.0  0.37193  0.39122  0.13849  1.0000
  C   C36       1.0  0.10960999999999999  0.20378999999999997  0.2614  1.0000
  C   C37       1.0  0.48675  0.61199  0.35229  1.0000
  C   C38       1.0  0.3395599999999999  0.39892999999999995  0.9417299999999998  1.0000
  C   C39       1.0  0.9278799999999999  0.6003  0.23460999999999999  1.0000
  C   C40       1.0  0.98787  0.08468999999999999  0.24984  1.0000
  C   C41       1.0  0.40151  0.79652  0.22099  1.0000
  C   C42       1.0  0.85163  0.41314  0.29104  1.0000
  C   C43       1.0  0.4085799999999999  0.9181799999999998  0.24157  1.0000
  C   C44       1.0  0.33265  0.92754  0.28956  1.0000
  C   C45       1.0  0.49133  0.02596  0.21426  1.0000
  C   C46       1.0  0.49408  0.13621999999999998  0.23485  1.0000
  C   C47       1.0  0.34119  0.04138  0.30734  1.0000
  C   C48       1.0  0.040909999999999995  0.59744  0.2329  1.0000
  C   C49       1.0  0.9657599999999997  0.41420999999999997  0.28524  1.0000
  C   C50       1.0  0.96784  0.98626  0.28989  1.0000
  C   C51       1.0  0.89006  0.06901  0.19787  1.0000
  C   C52       1.0  0.8539299999999997  0.8778999999999995  0.27624  1.0000
  C   C53       1.0  0.77963  0.9575299999999999  0.18725  1.0000
  C   C54       1.0  0.50771  0.63604  0.4297500000000001  1.0000
  C   C55       1.0  0.6284200000000001  0.71375  0.46631  1.0000
  C   C56       1.0  0.4075999999999999  0.5770199999999999  0.46919999999999995  1.0000
  C   C57       1.0  0.43098999999999993  0.59679  0.54163  1.0000
  C   C58       1.0  0.6449699999999999  0.7251599999999998  0.53902  1.0000
  C   C59       1.0  0.42724999999999996  0.29307  0.0401  1.0000
  C   C60       1.0  0.43761  0.28008  0.9695700000000002  1.0000
  N   N1        1.0  0.57983  0.8552  0.71946  1.0000
  N   N2        1.0  0.93974  0.49543999999999994  0.74352  1.0000
  N   N3        1.0  0.23905  0.13758  0.7747  1.0000
  N   N4        1.0  0.45181  0.33183  0.4232  1.0000
  N   N5        1.0  0.6053399999999999  0.6679599999999999  0.07974  1.0000
  N   N6        1.0  0.42016999999999993  0.14479  0.28054  1.0000
  N   N7        1.0  0.06024999999999999  0.50456  0.25648  1.0000
  N   N8        1.0  0.76094  0.86241  0.22529999999999997  1.0000
  N   N9        1.0  0.54818  0.6681699999999999  0.5768  1.0000
  N   N10       1.0  0.39465999999999996  0.33203  0.9202600000000001  1.0000
  O   O1        1.0  0.61796  0.68114  0.81975  1.0000
  O   O2        1.0  0.61327  0.48967  0.67358  1.0000
  O   O3        1.0  0.3681  0.56269  0.69489  1.0000
  O   O4        1.0  0.63808  0.51096  0.84375  1.0000
  O   O5        1.0  0.52699  0.20587  0.82269  1.0000
  O   O6        1.0  0.31956999999999997  0.43369999999999986  0.78181  1.0000
  O   O7        1.0  0.8043099999999999  0.7882599999999998  0.69155  1.0000
  O   O8        1.0  0.43384  0.31227  0.68275  1.0000
  O   O9        1.0  0.88603  0.71318  0.77737  1.0000
  O   O10       1.0  0.6767400000000003  0.29454  0.75035  1.0000
  O   O11       1.0  0.38203  0.31886  0.18025  1.0000
  O   O12       1.0  0.38672  0.51032  0.32642  1.0000
  O   O13       1.0  0.63189  0.43731  0.30511  1.0000
  O   O14       1.0  0.36190999999999995  0.48902999999999996  0.15625  1.0000
  O   O15       1.0  0.47301  0.79412  0.17731  1.0000
  O   O16       1.0  0.68043  0.5663  0.21819  1.0000
  O   O17       1.0  0.19568  0.21172999999999997  0.30845  1.0000
  O   O18       1.0  0.56615  0.6877199999999999  0.31725  1.0000
  O   O19       1.0  0.11396000000000005  0.28682  0.22263  1.0000
  O   O20       1.0  0.32325  0.7054499999999999  0.24964999999999998  1.0000
