data_image0
_chemical_formula_structural       Gd4Co2H16C48O40
_chemical_formula_sum              "Gd4 Co2 H16 C48 O40"
_cell_length_a       10.80326
_cell_length_b       11.53227
_cell_length_c       16.985929999999996
_cell_angle_alpha    85.39894
_cell_angle_beta     80.14915
_cell_angle_gamma    62.00703

_symmetry_space_group_name_H-M    'P 1'
_symmetry_Int_Tables_number       1

loop_
  _symmetry_equiv_pos_as_xyz
  'x,y,z'

loop_
  _atom_site_type_symbol
  _atom_site_label
  _atom_site_symmetry_multiplicity
  _atom_site_fract_x
  _atom_site_fract_y
  _atom_site_fract_z
  _atom_site_occupancy
  Gd  Gd1       1.0  0.74201  0.1775  0.04114  1.0000
  Gd  Gd2       1.0  0.08081000000000002  0.17692  0.4584  1.0000
  Gd  Gd3       1.0  0.2579800000000001  0.82249  0.95886  1.0000
  Gd  Gd4       1.0  0.91919  0.8230800000000001  0.5416  1.0000
  Co  Co1       1.0  0.5  0.5  0.0  1.0000
  Co  Co2       1.0  0.0  0.5  0.5  1.0000
  H   H1        1.0  0.66542  0.55844  0.82968  1.0000
  H   H2        1.0  0.57125  0.71687  0.18881  1.0000
  H   H3        1.0  0.96063  0.40732999999999997  0.07275  1.0000
  H   H4        1.0  0.16937999999999998  0.4757100000000001  0.08255  1.0000
  H   H5        1.0  0.77541  0.55898  0.66994  1.0000
  H   H6        1.0  0.71147  0.71724  0.31042  1.0000
  H   H7        1.0  0.62996  0.40792  0.42774  1.0000
  H   H8        1.0  0.3527200000000001  0.47461  0.41854  1.0000
  H   H9        1.0  0.33457000000000003  0.44154999999999994  0.17031999999999997  1.0000
  H   H10       1.0  0.42873999999999995  0.28313  0.81119  1.0000
  H   H11       1.0  0.039370000000000044  0.59266  0.92724  1.0000
  H   H12       1.0  0.8306100000000002  0.52428  0.9174499999999999  1.0000
  H   H13       1.0  0.22458000000000003  0.44101  0.33006  1.0000
  H   H14       1.0  0.28852  0.28275  0.68957  1.0000
  H   H15       1.0  0.37003  0.59207  0.57226  1.0000
  H   H16       1.0  0.64727  0.52538  0.58146  1.0000
  C   C1        1.0  0.78541  0.34495  0.81295  1.0000
  C   C2        1.0  0.7347400000000001  0.47540999999999994  0.79067  1.0000
  C   C3        1.0  0.7686000000000001  0.28356  0.88952  1.0000
  C   C4        1.0  0.6469600000000001  0.63363  0.21869  1.0000
  C   C5        1.0  0.69121  0.50339  0.20198  1.0000
  C   C6        1.0  0.6522  0.44469999999999993  0.14282  1.0000
  C   C7        1.0  0.45481  0.2542  0.02467  1.0000
  C   C8        1.0  0.08458000000000004  0.14283  0.99763  1.0000
  C   C9        1.0  0.14061999999999997  0.22963  0.01652  1.0000
  C   C10       1.0  0.07352000000000002  0.35158  0.05293  1.0000
  C   C11       1.0  0.18105000000000002  0.38637  0.05843  1.0000
  C   C12       1.0  0.3079100000000001  0.28229  0.02671  1.0000
  C   C13       1.0  0.86919  0.34535  0.68618  1.0000
  C   C14       1.0  0.78947  0.4757100000000001  0.70881  1.0000
  C   C15       1.0  0.94595  0.28512  0.60902  1.0000
  C   C16       1.0  0.7189599999999999  0.63372  0.28093  1.0000
  C   C17       1.0  0.8046900000000001  0.50347  0.29799  1.0000
  C   C18       1.0  0.90279  0.44489  0.35707  1.0000
  C   C19       1.0  0.29236000000000006  0.25124  0.47552  1.0000
  C   C20       1.0  0.7734  0.14267  0.50173  1.0000
  C   C21       1.0  0.6298600000000002  0.22898  0.48333  1.0000
  C   C22       1.0  0.57376  0.35136  0.44744  1.0000
  C   C23       1.0  0.4313900000000001  0.38549  0.44234  1.0000
  C   C24       1.0  0.4098599999999999  0.28077  0.4738  1.0000
  C   C25       1.0  0.21458000000000002  0.65505  0.18705  1.0000
  C   C26       1.0  0.26525  0.52459  0.20933  1.0000
  C   C27       1.0  0.23138999999999998  0.71644  0.11047  1.0000
  C   C28       1.0  0.3530300000000001  0.36636  0.78131  1.0000
  C   C29       1.0  0.3087800000000001  0.49660999999999994  0.79802  1.0000
  C   C30       1.0  0.3477900000000001  0.55529  0.85718  1.0000
  C   C31       1.0  0.54519  0.74579  0.97533  1.0000
  C   C32       1.0  0.91542  0.85716  0.00237  1.0000
  C   C33       1.0  0.8593700000000001  0.7703699999999999  0.98347  1.0000
  C   C34       1.0  0.92647  0.64841  0.94707  1.0000
  C   C35       1.0  0.8189400000000001  0.61363  0.94157  1.0000
  C   C36       1.0  0.6920799999999999  0.71771  0.97329  1.0000
  C   C37       1.0  0.13079999999999997  0.65465  0.31381  1.0000
  C   C38       1.0  0.21053000000000002  0.52429  0.29119  1.0000
  C   C39       1.0  0.054039999999999984  0.71487  0.39097  1.0000
  C   C40       1.0  0.28103  0.36627  0.71907  1.0000
  C   C41       1.0  0.19530000000000006  0.49653  0.702  1.0000
  C   C42       1.0  0.09720000000000001  0.5551  0.64293  1.0000
  C   C43       1.0  0.7076300000000002  0.74875  0.52448  1.0000
  C   C44       1.0  0.2265900000000001  0.85732  0.4982599999999999  1.0000
  C   C45       1.0  0.37012999999999996  0.77101  0.51666  1.0000
  C   C46       1.0  0.42623  0.64863  0.55256  1.0000
  C   C47       1.0  0.56861  0.61451  0.55766  1.0000
  C   C48       1.0  0.5901300000000003  0.71922  0.5262  1.0000
  O   O1        1.0  0.81729  0.16079  0.89716  1.0000
  O   O2        1.0  0.7059699999999999  0.36014  0.9523  1.0000
  O   O3        1.0  0.16325000000000006  0.04504  0.95119  1.0000
  O   O4        1.0  0.95875  0.1726  0.030850000000000002  1.0000
  O   O5        1.0  0.28385  0.18673  0.9998199999999999  1.0000
  O   O6        1.0  0.47807  0.3386  0.0588  1.0000
  O   O7        1.0  0.5571099999999999  0.14828  0.9956999999999999  1.0000
  O   O8        1.0  0.6988999999999999  0.32022  0.14267  1.0000
  O   O9        1.0  0.5733299999999999  0.52732  0.09535  1.0000
  O   O10       1.0  0.02068  0.16226  0.60042  1.0000
  O   O11       1.0  0.9298100000000004  0.3629  0.54706  1.0000
  O   O12       1.0  0.79359  0.04544  0.54877  1.0000
  O   O13       1.0  0.8687799999999999  0.17249  0.46776  1.0000
  O   O14       1.0  0.5304000000000003  0.18518  0.50007  1.0000
  O   O15       1.0  0.18125000000000002  0.33683  0.44427  1.0000
  O   O16       1.0  0.29967  0.1426  0.50111  1.0000
  O   O17       1.0  0.98096  0.32038  0.35717  1.0000
  O   O18       1.0  0.89938  0.52749  0.40433  1.0000
  O   O19       1.0  0.1827  0.83921  0.10284  1.0000
  O   O20       1.0  0.29402000000000006  0.63985  0.0477  1.0000
  O   O21       1.0  0.8367400000000003  0.9549499999999999  0.0488  1.0000
  O   O22       1.0  0.04124000000000003  0.8274  0.96915  1.0000
  O   O23       1.0  0.7161500000000001  0.8132699999999999  0.00018  1.0000
  O   O24       1.0  0.52192  0.66139  0.9412  1.0000
  O   O25       1.0  0.44288000000000005  0.8517100000000001  0.0043  1.0000
  O   O26       1.0  0.3010900000000001  0.67977  0.85733  1.0000
  O   O27       1.0  0.42667000000000027  0.47268  0.90465  1.0000
  O   O28       1.0  0.9793099999999999  0.83773  0.39958  1.0000
  O   O29       1.0  0.07017999999999991  0.6371  0.45294  1.0000
  O   O30       1.0  0.20640000000000003  0.9545499999999999  0.45122  1.0000
  O   O31       1.0  0.13121000000000002  0.8275  0.53224  1.0000
  O   O32       1.0  0.4696  0.8148099999999999  0.49992  1.0000
  O   O33       1.0  0.81874  0.66316  0.55572  1.0000
  O   O34       1.0  0.70032  0.85739  0.49889  1.0000
  O   O35       1.0  0.019030000000000026  0.67961  0.64283  1.0000
  O   O36       1.0  0.10062  0.4724999999999999  0.59567  1.0000
  O   O37       1.0  0.86798  0.26413  0.74947  1.0000
  O   O38       1.0  0.13200999999999993  0.73586  0.25053  1.0000
  O   O39       1.0  0.78813  0.42262000000000005  0.25013  1.0000
  O   O40       1.0  0.21185999999999994  0.57738  0.74987  1.0000
