data_image0
_chemical_formula_structural       Ag8H48C32N24
_chemical_formula_sum              "Ag8 H48 C32 N24"
_cell_length_a       11.77893
_cell_length_b       11.99674
_cell_length_c       12.43537
_cell_angle_alpha    106.51728
_cell_angle_beta     105.87322000000002
_cell_angle_gamma    115.27754

_symmetry_space_group_name_H-M    'P 1'
_symmetry_Int_Tables_number       1

loop_
  _symmetry_equiv_pos_as_xyz
  'x,y,z'

loop_
  _atom_site_type_symbol
  _atom_site_label
  _atom_site_symmetry_multiplicity
  _atom_site_fract_x
  _atom_site_fract_y
  _atom_site_fract_z
  _atom_site_occupancy
  Ag  Ag1       1.0  0.5920299999999998  0.7640599999999999  0.39316000000000006  1.0000
  Ag  Ag2       1.0  0.27869  0.72617  0.12595  1.0000
  Ag  Ag3       1.0  0.30382  0.62923  0.3934  1.0000
  Ag  Ag4       1.0  0.34699  0.39745  0.12354000000000001  1.0000
  Ag  Ag5       1.0  0.40797  0.23594999999999997  0.60685  1.0000
  Ag  Ag6       1.0  0.72131  0.27384  0.87405  1.0000
  Ag  Ag7       1.0  0.6961800000000001  0.37078  0.6066  1.0000
  Ag  Ag8       1.0  0.65301  0.6025599999999999  0.8764600000000001  1.0000
  H   H1        1.0  0.39806  0.66135  0.90502  1.0000
  H   H2        1.0  0.72798  0.63655  0.26192  1.0000
  H   H3        1.0  0.77344  0.63386  0.1372  1.0000
  H   H4        1.0  0.9788199999999999  0.83478  0.34044  1.0000
  H   H5        1.0  0.8727600000000001  0.89672  0.37154  1.0000
  H   H6        1.0  0.91368  0.9  0.24473000000000003  1.0000
  H   H7        1.0  0.51421  0.27286  0.29632  1.0000
  H   H8        1.0  0.76065  0.66939  0.70945  1.0000
  H   H9        1.0  0.72284  0.77152  0.64639  1.0000
  H   H10       1.0  0.9865599999999999  0.8722299999999997  0.75282  1.0000
  H   H11       1.0  0.95669  0.7182699999999999  0.64336  1.0000
  H   H12       1.0  0.9225900000000001  0.82893  0.59012  1.0000
  H   H13       1.0  0.005110000000000069  0.24271000000000004  0.9024200000000001  1.0000
  H   H14       1.0  0.036230000000000054  0.6255600000000001  0.26169000000000003  1.0000
  H   H15       1.0  0.86401  0.50213  0.13582  1.0000
  H   H16       1.0  0.86346  0.50441  0.33761  1.0000
  H   H17       1.0  0.0017199999999999655  0.47469999999999996  0.36899  1.0000
  H   H18       1.0  0.83247  0.34293  0.24124  1.0000
  H   H19       1.0  0.28060000000000007  0.02128000000000003  0.2973700000000001  1.0000
  H   H20       1.0  0.44947  0.04066000000000001  0.71011  1.0000
  H   H21       1.0  0.42312999999999995  0.8744799999999999  0.64601  1.0000
  H   H22       1.0  0.26487  0.87972  0.74956  1.0000
  H   H23       1.0  0.18554999999999983  0.9243899999999998  0.64064  1.0000
  H   H24       1.0  0.16515999999999995  0.75968  0.58641  1.0000
  H   H25       1.0  0.60194  0.33864999999999995  0.09498000000000001  1.0000
  H   H26       1.0  0.27202  0.3634599999999999  0.73808  1.0000
  H   H27       1.0  0.22656  0.3661499999999999  0.8628  1.0000
  H   H28       1.0  0.02117999999999998  0.16521999999999998  0.65956  1.0000
  H   H29       1.0  0.12724  0.10329  0.62846  1.0000
  H   H30       1.0  0.08631000000000005  0.10001000000000004  0.7552700000000001  1.0000
  H   H31       1.0  0.48579000000000006  0.72715  0.70368  1.0000
  H   H32       1.0  0.23933999999999997  0.33062  0.29055  1.0000
  H   H33       1.0  0.27716  0.22849  0.35361  1.0000
  H   H34       1.0  0.013439999999999995  0.12778  0.24719  1.0000
  H   H35       1.0  0.043299999999999984  0.28174  0.35665  1.0000
  H   H36       1.0  0.07741000000000005  0.17108  0.40988  1.0000
  H   H37       1.0  0.9948899999999999  0.7572899999999999  0.09758  1.0000
  H   H38       1.0  0.9637700000000001  0.3744500000000001  0.7383200000000001  1.0000
  H   H39       1.0  0.13598999999999994  0.49787999999999993  0.86419  1.0000
  H   H40       1.0  0.13653999999999997  0.49559999999999993  0.66239  1.0000
  H   H41       1.0  0.9982800000000001  0.52531  0.63101  1.0000
  H   H42       1.0  0.16752999999999993  0.6570799999999999  0.75876  1.0000
  H   H43       1.0  0.7193999999999999  0.9787199999999999  0.70263  1.0000
  H   H44       1.0  0.5505299999999999  0.9593499999999998  0.28989  1.0000
  H   H45       1.0  0.5768699999999999  0.12553  0.35399  1.0000
  H   H46       1.0  0.73513  0.12028  0.25045  1.0000
  H   H47       1.0  0.81445  0.07561999999999999  0.35936  1.0000
  H   H48       1.0  0.83484  0.24032999999999993  0.41359000000000007  1.0000
  C   C1        1.0  0.62862  0.6918  0.13794  1.0000
  C   C2        1.0  0.46538999999999986  0.6768899999999998  0.99445  1.0000
  C   C3        1.0  0.75454  0.6929499999999998  0.20757000000000003  1.0000
  C   C4        1.0  0.8877200000000001  0.83964  0.29604  1.0000
  C   C5        1.0  0.6675299999999998  0.5822499999999999  0.51034  1.0000
  C   C6        1.0  0.55497  0.3808299999999999  0.35349  1.0000
  C   C7        1.0  0.76425  0.70463  0.63728  1.0000
  C   C8        1.0  0.9165  0.7858699999999998  0.65692  1.0000
  C   C9        1.0  0.010010000000000003  0.44524  0.13661  1.0000
  C   C10       1.0  0.028079999999999994  0.31650999999999996  0.99235  1.0000
  C   C11       1.0  0.95427  0.51393  0.20617000000000002  1.0000
  C   C12       1.0  0.91022  0.45554  0.2934  1.0000
  C   C13       1.0  0.34254999999999997  0.92758  0.5106  1.0000
  C   C14       1.0  0.29784999999999995  0.9713199999999999  0.35454  1.0000
  C   C15       1.0  0.3727500000000001  0.9323999999999999  0.6368  1.0000
  C   C16       1.0  0.23917  0.87027  0.65432  1.0000
  C   C17       1.0  0.37138  0.30821  0.86207  1.0000
  C   C18       1.0  0.5346100000000001  0.32311999999999996  0.00555  1.0000
  C   C19       1.0  0.24546000000000007  0.30706000000000006  0.7924300000000001  1.0000
  C   C20       1.0  0.1122800000000001  0.16037000000000007  0.7039600000000001  1.0000
  C   C21       1.0  0.3324700000000001  0.41776  0.48966000000000004  1.0000
  C   C22       1.0  0.4450299999999999  0.61918  0.64651  1.0000
  C   C23       1.0  0.23575000000000002  0.29536999999999997  0.36272000000000004  1.0000
  C   C24       1.0  0.08350000000000002  0.21413999999999997  0.34308000000000005  1.0000
  C   C25       1.0  0.98999  0.5547699999999999  0.86339  1.0000
  C   C26       1.0  0.97192  0.6835  0.0076500000000000005  1.0000
  C   C27       1.0  0.045729999999999944  0.48607999999999996  0.79383  1.0000
  C   C28       1.0  0.08977999999999997  0.5444699999999999  0.7066  1.0000
  C   C29       1.0  0.65745  0.07243  0.4894  1.0000
  C   C30       1.0  0.7021500000000002  0.028689999999999993  0.64546  1.0000
  C   C31       1.0  0.62725  0.06761  0.3632  1.0000
  C   C32       1.0  0.76083  0.12974  0.34568  1.0000
  N   N1        1.0  0.54864  0.71355  0.18863  1.0000
  N   N2        1.0  0.4431399999999999  0.70415  0.09604  1.0000
  N   N3        1.0  0.5801  0.66895  0.0161  1.0000
  N   N4        1.0  0.5935000000000001  0.5865899999999998  0.41016  1.0000
  N   N5        1.0  0.52061  0.45671  0.30879  1.0000
  N   N6        1.0  0.6465  0.45415999999999995  0.47834000000000004  1.0000
  N   N7        1.0  0.1412  0.47387  0.18786  1.0000
  N   N8        1.0  0.15294  0.39049  0.09477  1.0000
  N   N9        1.0  0.93539  0.34640999999999994  0.01392  1.0000
  N   N10       1.0  0.3190799999999999  0.8238999999999999  0.41118000000000005  1.0000
  N   N11       1.0  0.29009  0.85174  0.31034  1.0000
  N   N12       1.0  0.32996  0.02283000000000002  0.4786500000000001  1.0000
  N   N13       1.0  0.45135999999999993  0.2864599999999999  0.81137  1.0000
  N   N14       1.0  0.5568600000000001  0.29586000000000007  0.9039600000000001  1.0000
  N   N15       1.0  0.41989  0.33104999999999996  0.9839  1.0000
  N   N16       1.0  0.40649999999999986  0.41341  0.58985  1.0000
  N   N17       1.0  0.47939  0.5433  0.69122  1.0000
  N   N18       1.0  0.35350000000000004  0.54585  0.52167  1.0000
  N   N19       1.0  0.85879  0.5261399999999999  0.81215  1.0000
  N   N20       1.0  0.8470599999999999  0.60952  0.90523  1.0000
  N   N21       1.0  0.06461000000000007  0.6535999999999998  0.9860800000000001  1.0000
  N   N22       1.0  0.68092  0.1761  0.58883  1.0000
  N   N23       1.0  0.70991  0.14827  0.68967  1.0000
  N   N24       1.0  0.6700399999999999  0.97718  0.52136  1.0000
