data_image0
_chemical_formula_structural       Ba2Zn4H32C48O28
_chemical_formula_sum              "Ba2 Zn4 H32 C48 O28"
_cell_length_a       12.16719
_cell_length_b       12.125299999999998
_cell_length_c       12.47332
_cell_angle_alpha    102.56907
_cell_angle_beta     102.77011
_cell_angle_gamma    103.376

_symmetry_space_group_name_H-M    'P 1'
_symmetry_Int_Tables_number       1

loop_
  _symmetry_equiv_pos_as_xyz
  'x,y,z'

loop_
  _atom_site_type_symbol
  _atom_site_label
  _atom_site_symmetry_multiplicity
  _atom_site_fract_x
  _atom_site_fract_y
  _atom_site_fract_z
  _atom_site_occupancy
  Ba  Ba1       1.0  0.79935  0.19961  0.25057  1.0000
  Ba  Ba2       1.0  0.20065000000000002  0.8004  0.74943  1.0000
  Zn  Zn1       1.0  0.578  0.17741000000000007  0.95568  1.0000
  Zn  Zn2       1.0  0.82368  0.42342  0.54558  1.0000
  Zn  Zn3       1.0  0.42200000000000004  0.8226000000000001  0.044320000000000005  1.0000
  Zn  Zn4       1.0  0.17633000000000004  0.57658  0.45442000000000005  1.0000
  H   H1        1.0  0.9059700000000002  0.95247  0.00714  1.0000
  H   H2        1.0  0.97514  0.8002300000000001  0.8932300000000001  1.0000
  H   H3        1.0  0.6533000000000001  0.70183  0.6202400000000001  1.0000
  H   H4        1.0  0.58792  0.85913  0.7300500000000001  1.0000
  H   H5        1.0  0.8274000000000002  0.39613000000000004  0.8277500000000002  1.0000
  H   H6        1.0  0.98735  0.47578  0.18992  1.0000
  H   H7        1.0  0.49905  0.09734  0.11446000000000003  1.0000
  H   H8        1.0  0.5315800000000002  0.23690999999999998  0.15213  1.0000
  H   H9        1.0  0.04717999999999999  0.09385999999999997  0.49398  1.0000
  H   H10       1.0  0.20094  0.025020000000000014  0.60578  1.0000
  H   H11       1.0  0.3000200000000001  0.34657000000000004  0.8796900000000001  1.0000
  H   H12       1.0  0.14153000000000004  0.41177000000000014  0.7718300000000002  1.0000
  H   H13       1.0  0.60428  0.17242  0.67244  1.0000
  H   H14       1.0  0.52363  0.013449999999999991  0.31018  1.0000
  H   H15       1.0  0.90262  0.50047  0.38490000000000013  1.0000
  H   H16       1.0  0.76352  0.46952  0.3492  1.0000
  H   H17       1.0  0.0940300000000001  0.047540000000000075  0.9928600000000002  1.0000
  H   H18       1.0  0.02487  0.19978  0.10678  1.0000
  H   H19       1.0  0.34669999999999995  0.29818  0.37976  1.0000
  H   H20       1.0  0.4120900000000001  0.14087000000000002  0.26996000000000003  1.0000
  H   H21       1.0  0.1726  0.60387  0.17225  1.0000
  H   H22       1.0  0.012649999999999996  0.52422  0.81009  1.0000
  H   H23       1.0  0.5009600000000002  0.90266  0.8855500000000001  1.0000
  H   H24       1.0  0.46843000000000007  0.7631000000000001  0.84787  1.0000
  H   H25       1.0  0.95283  0.9061399999999998  0.5060200000000001  1.0000
  H   H26       1.0  0.7990700000000001  0.9749800000000001  0.39422  1.0000
  H   H27       1.0  0.69998  0.65343  0.12031000000000001  1.0000
  H   H28       1.0  0.8584700000000002  0.58824  0.22818000000000002  1.0000
  H   H29       1.0  0.39572  0.82759  0.32756  1.0000
  H   H30       1.0  0.47637000000000007  0.98655  0.6898200000000001  1.0000
  H   H31       1.0  0.09739000000000002  0.49954000000000004  0.6151  1.0000
  H   H32       1.0  0.23649000000000006  0.53048  0.65081  1.0000
  C   C1        1.0  0.70986  0.01427000000000008  0.9426400000000003  1.0000
  C   C2        1.0  0.74344  0.91613  0.8759600000000001  1.0000
  C   C3        1.0  0.8521300000000003  0.89828  0.9218400000000001  1.0000
  C   C4        1.0  0.8906100000000002  0.8136399999999999  0.8581100000000003  1.0000
  C   C5        1.0  0.81936  0.74361  0.74852  1.0000
  C   C6        1.0  0.70861  0.7579000000000001  0.7044  1.0000
  C   C7        1.0  0.6715300000000001  0.84495  0.76688  1.0000
  C   C8        1.0  0.8615  0.6529900000000001  0.6801200000000001  1.0000
  C   C9        1.0  0.78737  0.35378  0.023710000000000005  1.0000
  C   C10       1.0  0.89646  0.42945  0.01044  1.0000
  C   C11       1.0  0.9031100000000002  0.44185000000000013  0.9025300000000002  1.0000
  C   C12       1.0  0.9938100000000001  0.48765  0.10742  1.0000
  C   C13       1.0  0.98556  0.29012  0.55903  1.0000
  C   C14       1.0  0.08395000000000008  0.2564100000000001  0.6253000000000001  1.0000
  C   C15       1.0  0.10201999999999999  0.14782  0.579  1.0000
  C   C16       1.0  0.18760000000000004  0.10945000000000003  0.64183  1.0000
  C   C17       1.0  0.25835000000000014  0.18072000000000005  0.7512300000000001  1.0000
  C   C18       1.0  0.24349  0.29125  0.79577  1.0000
  C   C19       1.0  0.15566000000000008  0.3282700000000001  0.73421  1.0000
  C   C20       1.0  0.34974000000000005  0.13895  0.81946  1.0000
  C   C21       1.0  0.6459000000000001  0.21383  0.47668  1.0000
  C   C22       1.0  0.5703100000000001  0.10420000000000003  0.4897500000000001  1.0000
  C   C23       1.0  0.5583  0.09677999999999996  0.59757  1.0000
  C   C24       1.0  0.5119500000000002  0.006830000000000016  0.3926700000000001  1.0000
  C   C25       1.0  0.29015  0.98574  0.057360000000000015  1.0000
  C   C26       1.0  0.25657  0.08387  0.12404  1.0000
  C   C27       1.0  0.14788000000000004  0.10172  0.07816  1.0000
  C   C28       1.0  0.10940000000000003  0.18637  0.14189  1.0000
  C   C29       1.0  0.18064000000000005  0.2564  0.25149  1.0000
  C   C30       1.0  0.2914  0.24210000000000004  0.2956  1.0000
  C   C31       1.0  0.32848  0.15506  0.23312  1.0000
  C   C32       1.0  0.13851  0.34701  0.31989  1.0000
  C   C33       1.0  0.21263999999999997  0.6462299999999999  0.97629  1.0000
  C   C34       1.0  0.10354999999999999  0.57056  0.98956  1.0000
  C   C35       1.0  0.09689000000000003  0.55815  0.09748000000000001  1.0000
  C   C36       1.0  0.006189999999999985  0.51235  0.89259  1.0000
  C   C37       1.0  0.01445  0.70989  0.44098000000000004  1.0000
  C   C38       1.0  0.9160600000000002  0.74359  0.37470000000000003  1.0000
  C   C39       1.0  0.8979800000000002  0.85218  0.421  1.0000
  C   C40       1.0  0.8124100000000003  0.89055  0.3581700000000001  1.0000
  C   C41       1.0  0.74165  0.81929  0.24878000000000003  1.0000
  C   C42       1.0  0.7565200000000001  0.70875  0.20423  1.0000
  C   C43       1.0  0.8443500000000002  0.67174  0.2658  1.0000
  C   C44       1.0  0.65027  0.86106  0.18054000000000003  1.0000
  C   C45       1.0  0.3541100000000001  0.78618  0.52332  1.0000
  C   C46       1.0  0.42969999999999997  0.8958099999999999  0.51025  1.0000
  C   C47       1.0  0.44170000000000004  0.9032200000000001  0.40243000000000007  1.0000
  C   C48       1.0  0.48806  0.99318  0.60733  1.0000
  O   O1        1.0  0.7833800000000002  0.08940000000000001  0.028990000000000005  1.0000
  O   O2        1.0  0.601  0.01804000000000005  0.9044100000000002  1.0000
  O   O3        1.0  0.97016  0.66642  0.6954300000000001  1.0000
  O   O4        1.0  0.7789500000000003  0.5627200000000002  0.60833  1.0000
  O   O5        1.0  0.7075  0.28864  0.93025  1.0000
  O   O6        1.0  0.7774700000000001  0.35555  0.123  1.0000
  O   O7        1.0  0.55983  0.17297  0.11755  1.0000
  O   O8        1.0  0.91039  0.21662000000000003  0.47266  1.0000
  O   O9        1.0  0.9819799999999999  0.39928  0.59762  1.0000
  O   O10       1.0  0.33834  0.030100000000000005  0.80228  1.0000
  O   O11       1.0  0.43822000000000005  0.22171000000000002  0.89344  1.0000
  O   O12       1.0  0.7106800000000002  0.29404  0.57019  1.0000
  O   O13       1.0  0.64441  0.22329  0.3772  1.0000
  O   O14       1.0  0.82713  0.4398599999999999  0.38199  1.0000
  O   O15       1.0  0.21663  0.9106  0.97101  1.0000
  O   O16       1.0  0.399  0.98197  0.09559000000000001  1.0000
  O   O17       1.0  0.029850000000000015  0.33359000000000005  0.30457  1.0000
  O   O18       1.0  0.2210600000000001  0.43729000000000007  0.39167000000000013  1.0000
  O   O19       1.0  0.29251000000000005  0.71137  0.06975  1.0000
  O   O20       1.0  0.22254000000000002  0.64446  0.87701  1.0000
  O   O21       1.0  0.44018000000000007  0.8270300000000002  0.88245  1.0000
  O   O22       1.0  0.08960999999999997  0.7833799999999999  0.52734  1.0000
  O   O23       1.0  0.018030000000000043  0.6007300000000001  0.4023900000000001  1.0000
  O   O24       1.0  0.6616700000000002  0.96991  0.19773  1.0000
  O   O25       1.0  0.56179  0.77829  0.10656000000000003  1.0000
  O   O26       1.0  0.28933  0.70596  0.42981  1.0000
  O   O27       1.0  0.35559  0.7767099999999999  0.6228  1.0000
  O   O28       1.0  0.17288  0.5601399999999997  0.61801  1.0000
