data_image0
_chemical_formula_structural       Cu4H36C68O16
_chemical_formula_sum              "Cu4 H36 C68 O16"
_cell_length_a       10.91568
_cell_length_b       10.91574
_cell_length_c       25.68113
_cell_angle_alpha    87.21057999999998
_cell_angle_beta     87.21756
_cell_angle_gamma    70.47396

_space_group_name_H-M_alt    "P 1"
_space_group_IT_number       1

loop_
  _space_group_symop_operation_xyz
  'x, y, z'

loop_
  _atom_site_type_symbol
  _atom_site_label
  _atom_site_symmetry_multiplicity
  _atom_site_fract_x
  _atom_site_fract_y
  _atom_site_fract_z
  _atom_site_occupancy
  Cu  Cu1       1.0  0.04285999999999999  0.59026  0.49716999999999995  1.0000
  Cu  Cu2       1.0  0.40973999999999994  0.95715  0.00283  1.0000
  Cu  Cu3       1.0  0.9571499999999998  0.40974000000000005  0.50283  1.0000
  Cu  Cu4       1.0  0.5902699999999999  0.04284999999999999  0.99717  1.0000
  H   H1        1.0  0.53962  0.4665  0.34574  1.0000
  H   H2        1.0  0.3053099999999999  0.48278  0.36454  1.0000
  H   H3        1.0  0.25517  0.12097  0.41522  1.0000
  H   H4        1.0  0.41083  0.00736000000000001  0.3439699999999999  1.0000
  H   H5        1.0  0.50221  0.13572  0.28026  1.0000
  H   H6        1.0  0.52648  0.25619  0.13713  1.0000
  H   H7        1.0  0.16763  0.17956  0.1265  1.0000
  H   H8        1.0  0.07974999999999997  0.30685  0.2065  1.0000
  H   H9        1.0  0.21784999999999996  0.40393000000000007  0.25247  1.0000
  H   H10       1.0  0.5334999999999999  0.46038000000000007  0.15426  1.0000
  H   H11       1.0  0.5172100000000001  0.6947  0.13546  1.0000
  H   H12       1.0  0.87902  0.74484  0.08478  1.0000
  H   H13       1.0  0.9926499999999998  0.58916  0.15603  1.0000
  H   H14       1.0  0.8643  0.49778  0.21974  1.0000
  H   H15       1.0  0.74382  0.47351  0.36287  1.0000
  H   H16       1.0  0.8204499999999997  0.8323599999999999  0.3735  1.0000
  H   H17       1.0  0.69314  0.92027  0.29349  1.0000
  H   H18       1.0  0.5960699999999999  0.78216  0.24752  1.0000
  H   H19       1.0  0.46037999999999996  0.5335  0.65426  1.0000
  H   H20       1.0  0.6946999999999998  0.51721  0.63546  1.0000
  H   H21       1.0  0.7448400000000001  0.87903  0.58478  1.0000
  H   H22       1.0  0.5891799999999999  0.9926399999999999  0.6560299999999999  1.0000
  H   H23       1.0  0.4978  0.8642800000000002  0.71973  1.0000
  H   H24       1.0  0.4735199999999998  0.7438100000000002  0.8628699999999999  1.0000
  H   H25       1.0  0.8323699999999998  0.82044  0.8735  1.0000
  H   H26       1.0  0.9202599999999997  0.69315  0.7935  1.0000
  H   H27       1.0  0.78215  0.59607  0.74753  1.0000
  H   H28       1.0  0.4665  0.53962  0.84573  1.0000
  H   H29       1.0  0.4827899999999998  0.3053  0.8645399999999999  1.0000
  H   H30       1.0  0.12099000000000004  0.25515999999999994  0.91521  1.0000
  H   H31       1.0  0.007359999999999991  0.41084000000000004  0.84396  1.0000
  H   H32       1.0  0.13571000000000003  0.50222  0.78026  1.0000
  H   H33       1.0  0.25619  0.52649  0.63713  1.0000
  H   H34       1.0  0.17956  0.16763999999999998  0.6265  1.0000
  H   H35       1.0  0.30687  0.07973  0.7065  1.0000
  H   H36       1.0  0.40394  0.21783999999999998  0.75248  1.0000
  C   C1        1.0  0.4706299999999999  0.39321  0.2815  1.0000
  C   C2        1.0  0.46454999999999996  0.39463  0.22648  1.0000
  C   C3        1.0  0.53891  0.46504000000000006  0.3034  1.0000
  C   C4        1.0  0.41016000000000014  0.31788  0.31765999999999994  1.0000
  C   C5        1.0  0.32828999999999997  0.37902000000000013  0.3593  1.0000
  C   C6        1.0  0.2712999999999999  0.30814  0.39364  1.0000
  C   C7        1.0  0.29986  0.17423  0.38795  1.0000
  C   C8        1.0  0.38537  0.11185  0.34779999999999994  1.0000
  C   C9        1.0  0.43794999999999995  0.18355999999999997  0.31232999999999994  1.0000
  C   C10       1.0  0.38323  0.33475  0.19917  1.0000
  C   C11       1.0  0.42905  0.26794  0.15301  1.0000
  C   C12       1.0  0.35118  0.21301  0.12692  1.0000
  C   C13       1.0  0.22576999999999994  0.22479999999999997  0.14668  1.0000
  C   C14       1.0  0.17802999999999997  0.29461  0.19162999999999997  1.0000
  C   C15       1.0  0.25572999999999996  0.34903  0.21761999999999998  1.0000
  C   C16       1.0  0.17571  0.37653000000000003  0.43488999999999994  1.0000
  C   C17       1.0  0.40291999999999994  0.13979  0.07858999999999998  1.0000
  C   C18       1.0  0.6068  0.52937  0.21849999999999994  1.0000
  C   C19       1.0  0.6053699999999999  0.53545  0.27352  1.0000
  C   C20       1.0  0.53497  0.46109999999999995  0.19659  1.0000
  C   C21       1.0  0.6821299999999999  0.58984  0.18234  1.0000
  C   C22       1.0  0.6209799999999999  0.67171  0.1407  1.0000
  C   C23       1.0  0.69186  0.7287  0.10636  1.0000
  C   C24       1.0  0.8257799999999998  0.70014  0.11205  1.0000
  C   C25       1.0  0.8881499999999999  0.61462  0.1522  1.0000
  C   C26       1.0  0.81645  0.56204  0.18767  1.0000
  C   C27       1.0  0.6652500000000001  0.61678  0.30083  1.0000
  C   C28       1.0  0.7320599999999999  0.57094  0.34699  1.0000
  C   C29       1.0  0.7869899999999999  0.64882  0.37307  1.0000
  C   C30       1.0  0.7751999999999999  0.7742400000000003  0.3533099999999999  1.0000
  C   C31       1.0  0.7053899999999999  0.82198  0.30836  1.0000
  C   C32       1.0  0.6509699999999999  0.74428  0.28237  1.0000
  C   C33       1.0  0.62347  0.8242899999999999  0.0651  1.0000
  C   C34       1.0  0.86022  0.59708  0.42141  1.0000
  C   C35       1.0  0.52938  0.60679  0.7184999999999998  1.0000
  C   C36       1.0  0.5354499999999998  0.60537  0.7735199999999999  1.0000
  C   C37       1.0  0.46109999999999995  0.53496  0.69659  1.0000
  C   C38       1.0  0.5898499999999998  0.68212  0.6823399999999998  1.0000
  C   C39       1.0  0.67171  0.62098  0.6407  1.0000
  C   C40       1.0  0.7287099999999999  0.69186  0.60636  1.0000
  C   C41       1.0  0.70014  0.82577  0.61205  1.0000
  C   C42       1.0  0.6146400000000001  0.88815  0.6521899999999998  1.0000
  C   C43       1.0  0.5620600000000001  0.81644  0.68766  1.0000
  C   C44       1.0  0.61678  0.66525  0.8008299999999999  1.0000
  C   C45       1.0  0.5709499999999998  0.7320600000000002  0.8469899999999998  1.0000
  C   C46       1.0  0.6488299999999999  0.78699  0.87307  1.0000
  C   C47       1.0  0.77424  0.7752  0.85331  1.0000
  C   C48       1.0  0.8219799999999999  0.7053899999999999  0.80836  1.0000
  C   C49       1.0  0.7442799999999999  0.6509700000000003  0.7823699999999998  1.0000
  C   C50       1.0  0.8242899999999997  0.62347  0.5651  1.0000
  C   C51       1.0  0.59709  0.86021  0.9214  1.0000
  C   C52       1.0  0.39320999999999995  0.47063  0.7814899999999998  1.0000
  C   C53       1.0  0.3946399999999999  0.46455  0.7264699999999997  1.0000
  C   C54       1.0  0.4650400000000002  0.5389000000000002  0.8033999999999999  1.0000
  C   C55       1.0  0.31786999999999993  0.4101600000000001  0.81766  1.0000
  C   C56       1.0  0.37902999999999987  0.3282900000000001  0.8592999999999998  1.0000
  C   C57       1.0  0.30814  0.27129999999999993  0.89364  1.0000
  C   C58       1.0  0.17423  0.29986  0.88794  1.0000
  C   C59       1.0  0.11185000000000003  0.38538  0.8477999999999998  1.0000
  C   C60       1.0  0.18354999999999994  0.43795000000000006  0.81233  1.0000
  C   C61       1.0  0.33476  0.38322  0.69917  1.0000
  C   C62       1.0  0.26794000000000007  0.42905  0.653  1.0000
  C   C63       1.0  0.21302  0.35118  0.6269199999999999  1.0000
  C   C64       1.0  0.2247999999999999  0.22576  0.6466799999999999  1.0000
  C   C65       1.0  0.29461999999999994  0.17802000000000004  0.69164  1.0000
  C   C66       1.0  0.3490399999999997  0.25572  0.71763  1.0000
  C   C67       1.0  0.37654  0.17569999999999997  0.9348899999999998  1.0000
  C   C68       1.0  0.13979  0.40292  0.57859  1.0000
  O   O1        1.0  0.17736999999999997  0.48791  0.44777  1.0000
  O   O2        1.0  0.09739999999999999  0.31898  0.4534299999999999  1.0000
  O   O3        1.0  0.50748  0.15101  0.05728999999999999  1.0000
  O   O4        1.0  0.3388499999999999  0.07066  0.06237  1.0000
  O   O5        1.0  0.51208  0.8226400000000001  0.05223  1.0000
  O   O6        1.0  0.6810199999999997  0.90261  0.04657  1.0000
  O   O7        1.0  0.84899  0.49251  0.44271  1.0000
  O   O8        1.0  0.92935  0.66115  0.43763  1.0000
  O   O9        1.0  0.8226399999999999  0.51209  0.55223  1.0000
  O   O10       1.0  0.9026099999999998  0.68102  0.54657  1.0000
  O   O11       1.0  0.49251999999999996  0.84899  0.9427099999999999  1.0000
  O   O12       1.0  0.6611599999999999  0.92934  0.93763  1.0000
  O   O13       1.0  0.4879299999999999  0.17736000000000007  0.9477699999999999  1.0000
  O   O14       1.0  0.31897999999999993  0.09738999999999999  0.95343  1.0000
  O   O15       1.0  0.15101000000000006  0.50749  0.55729  1.0000
  O   O16       1.0  0.07066000000000006  0.33885  0.56237  1.0000
