data_image0
_chemical_formula_structural       Co6H48C60N4O24
_chemical_formula_sum              "Co6 H48 C60 N4 O24"
_cell_length_a       9.40759
_cell_length_b       16.70613
_cell_length_c       17.83037
_cell_angle_alpha    63.92835000000001
_cell_angle_beta     74.52367
_cell_angle_gamma    73.38635

_space_group_name_H-M_alt    "P 1"
_space_group_IT_number       1

loop_
  _space_group_symop_operation_xyz
  'x, y, z'

loop_
  _atom_site_type_symbol
  _atom_site_label
  _atom_site_symmetry_multiplicity
  _atom_site_fract_x
  _atom_site_fract_y
  _atom_site_fract_z
  _atom_site_occupancy
  Co  Co1       1.0  0.31977  0.13628  0.61383  1.0000
  Co  Co2       1.0  0.07316000000000002  0.36346999999999996  0.8869  1.0000
  Co  Co3       1.0  0.68029  0.86406  0.38587  1.0000
  Co  Co4       1.0  0.9301400000000001  0.63637  0.11361  1.0000
  Co  Co5       1.0  0.49945000000000017  0.00017000000000001834  0.50012  1.0000
  Co  Co6       1.0  0.0005700000000000706  0.49932  0.99975  1.0000
  H   H1        1.0  0.54934  0.9796300000000006  0.8170999999999998  1.0000
  H   H2        1.0  0.5913300000000001  0.77372  0.72678  1.0000
  H   H3        1.0  0.70442  0.65592  0.85454  1.0000
  H   H4        1.0  0.6657499999999998  0.8627700000000005  0.9434  1.0000
  H   H5        1.0  0.9302100000000005  0.9846600000000001  0.64986  1.0000
  H   H6        1.0  0.21493999999999994  0.07348  0.40784  1.0000
  H   H7        1.0  0.22120000000000004  0.34183  0.60487  1.0000
  H   H8        1.0  0.4025800000000001  0.29251  0.63301  1.0000
  H   H9        1.0  0.43102999999999975  0.15281999999999998  0.75776  1.0000
  H   H10       1.0  0.29151  0.08623999999999998  0.80102  1.0000
  H   H11       1.0  0.04762999999999993  0.15325000000000003  0.75731  1.0000
  H   H12       1.0  0.024219999999999985  0.2535299999999999  0.66527  1.0000
  H   H13       1.0  0.34682  0.5203800000000001  0.6824399999999998  1.0000
  H   H14       1.0  0.0918699999999999  0.7267700000000005  0.7732  1.0000
  H   H15       1.0  0.21524000000000013  0.84385  0.64522  1.0000
  H   H16       1.0  0.4732000000000002  0.63663  0.55597  1.0000
  H   H17       1.0  0.5646999999999998  0.51494  0.8506  1.0000
  H   H18       1.0  0.6967600000000002  0.4256  0.09197  1.0000
  H   H19       1.0  0.16771000000000003  0.15805000000000008  0.89584  1.0000
  H   H20       1.0  0.32761000000000007  0.20713000000000004  0.86741  1.0000
  H   H21       1.0  0.34089  0.34665  0.74277  1.0000
  H   H22       1.0  0.1772  0.41390999999999994  0.69958  1.0000
  H   H23       1.0  0.9568099999999999  0.34719000000000005  0.7431399999999998  1.0000
  H   H24       1.0  0.9415899999999999  0.24677  0.83527  1.0000
  H   H25       1.0  0.4507  0.020260000000000007  0.18316  1.0000
  H   H26       1.0  0.40873  0.22625  0.27352  1.0000
  H   H27       1.0  0.29560999999999993  0.34416  0.14556  1.0000
  H   H28       1.0  0.33458000000000004  0.13724  0.05664  1.0000
  H   H29       1.0  0.06998000000000001  0.015249999999999977  0.35026  1.0000
  H   H30       1.0  0.7851699999999999  0.9264900000000004  0.59222  1.0000
  H   H31       1.0  0.7783800000000001  0.65827  0.39546  1.0000
  H   H32       1.0  0.5972899999999999  0.7075700000000003  0.36738  1.0000
  H   H33       1.0  0.5685599999999998  0.8472  0.24229  1.0000
  H   H34       1.0  0.7084199999999998  0.9137500000000003  0.19896999999999995  1.0000
  H   H35       1.0  0.9520500000000001  0.84662  0.2429  1.0000
  H   H36       1.0  0.97554  0.7465300000000002  0.3349299999999999  1.0000
  H   H37       1.0  0.65353  0.47947999999999996  0.31746  1.0000
  H   H38       1.0  0.9083400000000001  0.27349  0.22667  1.0000
  H   H39       1.0  0.7851599999999999  0.15618000000000004  0.35463  1.0000
  H   H40       1.0  0.52715  0.3632699999999999  0.44393  1.0000
  H   H41       1.0  0.43488  0.48509  0.14972  1.0000
  H   H42       1.0  0.30242000000000024  0.57423  0.90817  1.0000
  H   H43       1.0  0.8325000000000001  0.84146  0.10437  1.0000
  H   H44       1.0  0.6723  0.79254  0.13274  1.0000
  H   H45       1.0  0.65886  0.65327  0.25759  1.0000
  H   H46       1.0  0.82225  0.5859900000000002  0.3009799999999999  1.0000
  H   H47       1.0  0.04298000000000004  0.65277  0.25726  1.0000
  H   H48       1.0  0.057709999999999956  0.75299  0.165  1.0000
  C   C1        1.0  0.4982400000000002  0.9526699999999999  0.68849  1.0000
  C   C2        1.0  0.5636900000000002  0.88337  0.76465  1.0000
  C   C3        1.0  0.5830800000000003  0.90856  0.8263099999999999  1.0000
  C   C4        1.0  0.6075099999999999  0.7919  0.77496  1.0000
  C   C5        1.0  0.7736599999999996  0.6825500000000004  0.97735  1.0000
  C   C6        1.0  0.6935300000000001  0.7520800000000001  0.9063299999999997  1.0000
  C   C7        1.0  0.6705900000000001  0.7269200000000001  0.8455  1.0000
  C   C8        1.0  0.64791  0.84359  0.8963  1.0000
  C   C9        1.0  0.16876000000000002  0.06967999999999998  0.56351  1.0000
  C   C10       1.0  0.08119999999999997  0.03348000000000001  0.53176  1.0000
  C   C11       1.0  0.9600200000000002  0.99165  0.58448  1.0000
  C   C12       1.0  0.12067999999999998  0.041360000000000056  0.44728  1.0000
  C   C13       1.0  0.28190999999999994  0.3005999999999999  0.65845  1.0000
  C   C14       1.0  0.30942  0.15567000000000003  0.77645  1.0000
  C   C15       1.0  0.07425000000000001  0.22129000000000001  0.72303  1.0000
  C   C16       1.0  0.13897000000000012  0.54773  0.81108  1.0000
  C   C17       1.0  0.21174999999999994  0.6170000000000001  0.7350699999999998  1.0000
  C   C18       1.0  0.3185500000000001  0.5913799999999999  0.67324  1.0000
  C   C19       1.0  0.17459000000000016  0.7082299999999999  0.72478  1.0000
  C   C20       1.0  0.4325899999999998  0.8179100000000004  0.5226  1.0000
  C   C21       1.0  0.35235000000000005  0.7473499999999998  0.59324  1.0000
  C   C22       1.0  0.24306999999999995  0.7730400000000001  0.65432  1.0000
  C   C23       1.0  0.38865999999999995  0.6560500000000001  0.60323  1.0000
  C   C24       1.0  0.80102  0.43013999999999997  0.93481  1.0000
  C   C25       1.0  0.64616  0.46647  0.96811  1.0000
  C   C26       1.0  0.5356299999999999  0.50847  0.91568  1.0000
  C   C27       1.0  0.6098799999999999  0.4581100000000002  0.05265  1.0000
  C   C28       1.0  0.24058  0.19924000000000008  0.84212  1.0000
  C   C29       1.0  0.24082999999999993  0.34429000000000004  0.72408  1.0000
  C   C30       1.0  0.017519999999999994  0.27903000000000006  0.77769  1.0000
  C   C31       1.0  0.50171  0.04731000000000003  0.31161  1.0000
  C   C32       1.0  0.43610000000000004  0.11675  0.23547  1.0000
  C   C33       1.0  0.41703000000000007  0.09137000000000002  0.17384  1.0000
  C   C34       1.0  0.39256000000000013  0.20813  0.2252  1.0000
  C   C35       1.0  0.22903999999999997  0.3169000000000001  0.02235  1.0000
  C   C36       1.0  0.3075899999999999  0.24784  0.09367  1.0000
  C   C37       1.0  0.32963999999999993  0.27323  0.15463  1.0000
  C   C38       1.0  0.35256999999999994  0.15635  0.10374  1.0000
  C   C39       1.0  0.8303400000000001  0.9306999999999999  0.43677999999999995  1.0000
  C   C40       1.0  0.91892  0.9664800000000001  0.46831  1.0000
  C   C41       1.0  0.04014999999999998  0.008259999999999983  0.41563  1.0000
  C   C42       1.0  0.87945  0.9585699999999999  0.55283  1.0000
  C   C43       1.0  0.71779  0.69948  0.34192  1.0000
  C   C44       1.0  0.69022  0.84438  0.22354  1.0000
  C   C45       1.0  0.9254600000000001  0.77866  0.27721  1.0000
  C   C46       1.0  0.8602900000000001  0.45248000000000005  0.18837999999999994  1.0000
  C   C47       1.0  0.7884100000000003  0.3831000000000001  0.26477  1.0000
  C   C48       1.0  0.6817200000000001  0.40854  0.32669  1.0000
  C   C49       1.0  0.82562  0.29181  0.27516  1.0000
  C   C50       1.0  0.56759  0.18226000000000003  0.47723  1.0000
  C   C51       1.0  0.6479  0.2525800000000001  0.40672999999999987  1.0000
  C   C52       1.0  0.75727  0.22696  0.34562  1.0000
  C   C53       1.0  0.61172  0.34388  0.39671  1.0000
  C   C54       1.0  0.19721000000000002  0.56994  0.0639  1.0000
  C   C55       1.0  0.35307000000000005  0.53352  0.03207  1.0000
  C   C56       1.0  0.46365999999999985  0.49177000000000015  0.08444  1.0000
  C   C57       1.0  0.3894900000000001  0.5418699999999999  0.94753  1.0000
  C   C58       1.0  0.75917  0.80043  0.15815  1.0000
  C   C59       1.0  0.75884  0.65565  0.27657  1.0000
  C   C60       1.0  0.98197  0.72073  0.2229  1.0000
  N   N1        1.0  0.24157999999999996  0.20907  0.69772  1.0000
  N   N2        1.0  0.1468  0.29111999999999993  0.80283  1.0000
  N   N3        1.0  0.7580600000000001  0.79112  0.3024199999999999  1.0000
  N   N4        1.0  0.8526400000000001  0.70872  0.19763  1.0000
  O   O1        1.0  0.4289  0.029849999999999953  0.69349  1.0000
  O   O2        1.0  0.51489  0.93222  0.62628  1.0000
  O   O3        1.0  0.8141999999999998  0.6014500000000004  0.98167  1.0000
  O   O4        1.0  0.7968899999999999  0.71066  0.0294  1.0000
  O   O5        1.0  0.11837000000000002  0.09128  0.6273  1.0000
  O   O6        1.0  0.302  0.08446  0.52234  1.0000
  O   O7        1.0  0.15018999999999996  0.47156  0.80589  1.0000
  O   O8        1.0  0.07321000000000003  0.56862  0.87362  1.0000
  O   O9        1.0  0.39378  0.89783  0.51844  1.0000
  O   O10       1.0  0.53943  0.7890600000000001  0.47083  1.0000
  O   O11       1.0  0.83417  0.41371  0.86854  1.0000
  O   O12       1.0  0.90892  0.41094  0.97724  1.0000
  O   O13       1.0  0.5710499999999998  0.9704700000000004  0.30643  1.0000
  O   O14       1.0  0.48472  0.06787  0.37385  1.0000
  O   O15       1.0  0.18578  0.39819  0.01837  1.0000
  O   O16       1.0  0.20864  0.28939  0.96937  1.0000
  O   O17       1.0  0.88002  0.90893  0.3728  1.0000
  O   O18       1.0  0.6972699999999997  0.9165300000000004  0.47779  1.0000
  O   O19       1.0  0.84909  0.5291  0.19295  1.0000
  O   O20       1.0  0.9246600000000001  0.43131  0.12588  1.0000
  O   O21       1.0  0.6058900000000002  0.10214000000000002  0.48152  1.0000
  O   O22       1.0  0.46069  0.21097000000000002  0.52911  1.0000
  O   O23       1.0  0.16205999999999998  0.5913400000000002  0.1281  1.0000
  O   O24       1.0  0.09087999999999989  0.5851200000000002  0.02295  1.0000
