data_image0
_chemical_formula_structural       Zn8H32C68O40
_chemical_formula_sum              "Zn8 H32 C68 O40"
_cell_length_a       11.17151
_cell_length_b       13.46015
_cell_length_c       20.685779999999998
_cell_angle_alpha    90.0
_cell_angle_beta     89.94086
_cell_angle_gamma    90.0

_space_group_name_H-M_alt    "P 1"
_space_group_IT_number       1

loop_
  _space_group_symop_operation_xyz
  'x, y, z'

loop_
  _atom_site_type_symbol
  _atom_site_label
  _atom_site_symmetry_multiplicity
  _atom_site_fract_x
  _atom_site_fract_y
  _atom_site_fract_z
  _atom_site_occupancy
  Zn  Zn1       1.0  0.72239  0.99775  0.44684  1.0000
  Zn  Zn2       1.0  0.90031  0.07199  0.35608  1.0000
  Zn  Zn3       1.0  0.77908  0.9998500000000001  0.94677  1.0000
  Zn  Zn4       1.0  0.59953  0.9280200000000002  0.85605  1.0000
  Zn  Zn5       1.0  0.27762000000000003  0.49776  0.05316  1.0000
  Zn  Zn6       1.0  0.09969  0.57199  0.14392  1.0000
  Zn  Zn7       1.0  0.22093  0.4998500000000001  0.55322  1.0000
  Zn  Zn8       1.0  0.40048000000000006  0.42802  0.64395  1.0000
  H   H1        1.0  0.6363700000000001  0.28918000000000005  0.28532  1.0000
  H   H2        1.0  0.5523200000000001  0.2772200000000001  0.48899000000000004  1.0000
  H   H3        1.0  0.40784  0.51211  0.37149000000000004  1.0000
  H   H4        1.0  0.35292000000000007  0.5205700000000001  0.26017  1.0000
  H   H5        1.0  0.45879  0.54549  0.19604  1.0000
  H   H6        1.0  0.6739900000000001  0.5421200000000002  0.21206000000000003  1.0000
  H   H7        1.0  0.9068700000000001  0.7840600000000002  0.26206  1.0000
  H   H8        1.0  0.54676  0.7750300000000002  0.33839  1.0000
  H   H9        1.0  0.86453  0.7097500000000002  0.7853500000000001  1.0000
  H   H10       1.0  0.9464  0.72103  0.9892200000000001  1.0000
  H   H11       1.0  0.09364000000000001  0.4875000000000001  0.8716500000000001  1.0000
  H   H12       1.0  0.14896  0.4780900000000001  0.7603100000000002  1.0000
  H   H13       1.0  0.043  0.45336  0.6963400000000001  1.0000
  H   H14       1.0  0.82858  0.45732  0.71244  1.0000
  H   H15       1.0  0.59348  0.21658000000000005  0.7620000000000001  1.0000
  H   H16       1.0  0.95292  0.22364  0.839  1.0000
  H   H17       1.0  0.36363  0.7891800000000001  0.21468  1.0000
  H   H18       1.0  0.44768000000000013  0.77722  0.01101  1.0000
  H   H19       1.0  0.5921600000000001  0.012110000000000003  0.12851000000000004  1.0000
  H   H20       1.0  0.6470900000000002  0.02057  0.23983000000000002  1.0000
  H   H21       1.0  0.54121  0.04549000000000002  0.30396000000000006  1.0000
  H   H22       1.0  0.3260100000000001  0.042120000000000005  0.28793  1.0000
  H   H23       1.0  0.09313  0.28406000000000003  0.23793000000000003  1.0000
  H   H24       1.0  0.4532400000000001  0.27503  0.16161  1.0000
  H   H25       1.0  0.13548000000000002  0.20975  0.7146500000000001  1.0000
  H   H26       1.0  0.05361  0.22103  0.51078  1.0000
  H   H27       1.0  0.9063600000000003  0.9875100000000002  0.62834  1.0000
  H   H28       1.0  0.8510500000000001  0.9780900000000002  0.73969  1.0000
  H   H29       1.0  0.9570100000000001  0.9533600000000001  0.80366  1.0000
  H   H30       1.0  0.17143000000000005  0.95732  0.78756  1.0000
  H   H31       1.0  0.4065300000000001  0.71658  0.73799  1.0000
  H   H32       1.0  0.04708  0.7236300000000002  0.661  1.0000
  C   C1        1.0  0.5205  0.40529  0.3212  1.0000
  C   C2        1.0  0.5909900000000001  0.3196500000000001  0.32744  1.0000
  C   C3        1.0  0.60052  0.2729  0.38765000000000005  1.0000
  C   C4        1.0  0.54381  0.31300000000000006  0.44217  1.0000
  C   C5        1.0  0.47591  0.39956  0.4356  1.0000
  C   C6        1.0  0.46197  0.4454  0.37495000000000006  1.0000
  C   C7        1.0  0.66984  0.17893  0.39408  1.0000
  C   C8        1.0  0.4131800000000001  0.44064  0.49306000000000005  1.0000
  C   C9        1.0  0.4476  0.53176  0.24795  1.0000
  C   C10       1.0  0.5960700000000001  0.6552000000000001  0.275  1.0000
  C   C11       1.0  0.6859400000000001  0.6124800000000001  0.237  1.0000
  C   C12       1.0  0.79786  0.6596700000000001  0.23287  1.0000
  C   C13       1.0  0.8193900000000002  0.74914  0.26519  1.0000
  C   C14       1.0  0.72849  0.7906000000000002  0.30334  1.0000
  C   C15       1.0  0.61709  0.7434600000000002  0.30852  1.0000
  C   C16       1.0  0.89645  0.61019  0.19564  1.0000
  C   C17       1.0  0.75095  0.88136  0.34197000000000005  1.0000
  C   C18       1.0  0.9807600000000002  0.59393  0.82123  1.0000
  C   C19       1.0  0.90957  0.6792300000000002  0.8275  1.0000
  C   C20       1.0  0.8988200000000001  0.7256  0.8878  1.0000
  C   C21       1.0  0.9553000000000001  0.68567  0.9422900000000002  1.0000
  C   C22       1.0  0.023960000000000006  0.5997200000000003  0.9356600000000002  1.0000
  C   C23       1.0  0.038880000000000005  0.55387  0.87508  1.0000
  C   C24       1.0  0.82925  0.81918  0.89478  1.0000
  C   C25       1.0  0.08696000000000001  0.56022  0.99326  1.0000
  C   C26       1.0  0.05427  0.4672000000000001  0.7481900000000001  1.0000
  C   C27       1.0  0.9051900000000002  0.34406000000000003  0.7754500000000001  1.0000
  C   C28       1.0  0.8158100000000003  0.38707  0.7373300000000002  1.0000
  C   C29       1.0  0.7033800000000002  0.34083000000000013  0.7329200000000001  1.0000
  C   C30       1.0  0.68103  0.25139  0.7651500000000001  1.0000
  C   C31       1.0  0.77129  0.20946000000000006  0.8035100000000001  1.0000
  C   C32       1.0  0.8832500000000002  0.25587  0.80899  1.0000
  C   C33       1.0  0.60581  0.39156  0.69553  1.0000
  C   C34       1.0  0.7474400000000001  0.11866000000000003  0.84212  1.0000
  C   C35       1.0  0.4795  0.90528  0.1788  1.0000
  C   C36       1.0  0.40901  0.81964  0.17256  1.0000
  C   C37       1.0  0.39948  0.7729000000000003  0.11235000000000003  1.0000
  C   C38       1.0  0.45619000000000004  0.813  0.05783  1.0000
  C   C39       1.0  0.52409  0.8995600000000001  0.0644  1.0000
  C   C40       1.0  0.5380300000000001  0.9454000000000002  0.12505000000000002  1.0000
  C   C41       1.0  0.33017  0.67893  0.10591000000000002  1.0000
  C   C42       1.0  0.58682  0.9406400000000003  0.006940000000000001  1.0000
  C   C43       1.0  0.55241  0.03176  0.25205000000000005  1.0000
  C   C44       1.0  0.40393  0.1552  0.225  1.0000
  C   C45       1.0  0.31407000000000007  0.11249000000000002  0.26299  1.0000
  C   C46       1.0  0.20215000000000005  0.15968  0.26712  1.0000
  C   C47       1.0  0.18061  0.24914000000000006  0.23480000000000004  1.0000
  C   C48       1.0  0.27152  0.2906000000000001  0.19666000000000003  1.0000
  C   C49       1.0  0.38292000000000004  0.24346000000000004  0.19147  1.0000
  C   C50       1.0  0.10356000000000003  0.11019000000000002  0.30436  1.0000
  C   C51       1.0  0.24906  0.38136  0.15803000000000003  1.0000
  C   C52       1.0  0.01924  0.09393000000000003  0.6787600000000001  1.0000
  C   C53       1.0  0.09044  0.17924000000000004  0.67249  1.0000
  C   C54       1.0  0.10118000000000002  0.22560000000000005  0.6122000000000001  1.0000
  C   C55       1.0  0.044710000000000014  0.18567000000000003  0.5577000000000001  1.0000
  C   C56       1.0  0.9760500000000002  0.09972  0.56433  1.0000
  C   C57       1.0  0.9611300000000003  0.05387  0.62491  1.0000
  C   C58       1.0  0.17076  0.31918  0.6052200000000001  1.0000
  C   C59       1.0  0.9130500000000001  0.06022000000000002  0.50673  1.0000
  C   C60       1.0  0.94574  0.9672000000000001  0.7518  1.0000
  C   C61       1.0  0.09482  0.8440600000000003  0.72454  1.0000
  C   C62       1.0  0.1842  0.8870600000000002  0.76267  1.0000
  C   C63       1.0  0.29663  0.84082  0.76708  1.0000
  C   C64       1.0  0.31897000000000003  0.7513900000000002  0.73484  1.0000
  C   C65       1.0  0.22872  0.70946  0.69649  1.0000
  C   C66       1.0  0.11676  0.7558700000000002  0.691  1.0000
  C   C67       1.0  0.3942  0.8915600000000001  0.80447  1.0000
  C   C68       1.0  0.25257  0.61866  0.65787  1.0000
  O   O1        1.0  0.74391  0.15465  0.35021  1.0000
  O   O2        1.0  0.64741  0.12626  0.44497000000000003  1.0000
  O   O3        1.0  0.4364600000000001  0.40443  0.54849  1.0000
  O   O4        1.0  0.33388000000000007  0.50935  0.48336  1.0000
  O   O5        1.0  0.5159300000000001  0.44421000000000005  0.25962  1.0000
  O   O6        1.0  0.48347000000000007  0.6150400000000003  0.28512  1.0000
  O   O7        1.0  0.88011  0.53097  0.16538000000000003  1.0000
  O   O8        1.0  0.00032  0.6551  0.19808  1.0000
  O   O9        1.0  0.8430700000000002  0.93443  0.33097  1.0000
  O   O10       1.0  0.6727800000000002  0.90016  0.38679  1.0000
  O   O11       1.0  0.75751  0.8455500000000002  0.8504  1.0000
  O   O12       1.0  0.84946  0.8698000000000002  0.94687  1.0000
  O   O13       1.0  0.06654000000000002  0.5993700000000002  0.0482  1.0000
  O   O14       1.0  0.16412  0.48975000000000013  0.98384  1.0000
  O   O15       1.0  0.9866100000000001  0.55533  0.75963  1.0000
  O   O16       1.0  0.01806  0.38415  0.78545  1.0000
  O   O17       1.0  0.6239000000000001  0.46994000000000014  0.66489  1.0000
  O   O18       1.0  0.5009400000000002  0.34805  0.69843  1.0000
  O   O19       1.0  0.6551600000000001  0.06585  0.8308200000000001  1.0000
  O   O20       1.0  0.8248200000000001  0.09965000000000003  0.8872000000000001  1.0000
  O   O21       1.0  0.25609  0.65464  0.14978  1.0000
  O   O22       1.0  0.35260000000000014  0.62626  0.05503  1.0000
  O   O23       1.0  0.5635400000000002  0.9044300000000002  0.9515100000000001  1.0000
  O   O24       1.0  0.6661200000000002  0.00935  0.01664  1.0000
  O   O25       1.0  0.48408  0.94421  0.24038  1.0000
  O   O26       1.0  0.51653  0.11504  0.21488  1.0000
  O   O27       1.0  0.11989000000000001  0.03097  0.33462  1.0000
  O   O28       1.0  0.99968  0.1551  0.30192  1.0000
  O   O29       1.0  0.15693  0.43443  0.16902  1.0000
  O   O30       1.0  0.32722000000000007  0.4001600000000001  0.11321  1.0000
  O   O31       1.0  0.24249000000000007  0.34555  0.64959  1.0000
  O   O32       1.0  0.15055000000000002  0.36980000000000013  0.55312  1.0000
  O   O33       1.0  0.93346  0.09937  0.45180000000000003  1.0000
  O   O34       1.0  0.8358900000000002  0.98975  0.51615  1.0000
  O   O35       1.0  0.0134  0.055330000000000004  0.7403700000000001  1.0000
  O   O36       1.0  0.98194  0.88415  0.7145400000000001  1.0000
  O   O37       1.0  0.37611  0.96993  0.8351100000000002  1.0000
  O   O38       1.0  0.4990700000000001  0.84805  0.80157  1.0000
  O   O39       1.0  0.34485  0.5658500000000001  0.66918  1.0000
  O   O40       1.0  0.17519000000000007  0.5996500000000001  0.61279  1.0000
