data_image0
_chemical_formula_structural       Zn9P12H36C30N12O42
_chemical_formula_sum              "Zn9 P12 H36 C30 N12 O42"
_cell_length_a       14.3255
_cell_length_b       14.44312
_cell_length_c       14.4432
_cell_angle_alpha    120.06764999999999
_cell_angle_beta     90.01995
_cell_angle_gamma    89.98458

_space_group_name_H-M_alt    "P 1"
_space_group_IT_number       1

loop_
  _space_group_symop_operation_xyz
  'x, y, z'

loop_
  _atom_site_type_symbol
  _atom_site_label
  _atom_site_symmetry_multiplicity
  _atom_site_fract_x
  _atom_site_fract_y
  _atom_site_fract_z
  _atom_site_occupancy
  Zn  Zn1       1.0  0.16517  0.41415  0.67294  1.0000
  Zn  Zn2       1.0  0.49881000000000003  0.25883  0.58655  1.0000
  Zn  Zn3       1.0  0.83219  0.32736999999999994  0.7409200000000001  1.0000
  Zn  Zn4       1.0  0.83446  0.7409299999999998  0.32742  1.0000
  Zn  Zn5       1.0  0.50151  0.67294  0.41412  1.0000
  Zn  Zn6       1.0  0.16788000000000006  0.58642  0.25881  1.0000
  Zn  Zn7       1.0  0.3335100000000001  0.6582099999999999  0.65819  1.0000
  Zn  Zn8       1.0  0.66482  0.0002800000000000073  0.34214  1.0000
  Zn  Zn9       1.0  0.0018600000000000003  0.3421399999999999  0.00027  1.0000
  P   P1        1.0  0.38411  0.46791  0.68885  1.0000
  P   P2        1.0  0.24023000000000005  0.6350599999999997  0.8467200000000003  1.0000
  P   P3        1.0  0.71755  0.221  0.5317  1.0000
  P   P4        1.0  0.5724800000000001  0.21222000000000002  0.36527000000000004  1.0000
  P   P5        1.0  0.05129  0.31089  0.7787000000000001  1.0000
  P   P6        1.0  0.9075600000000001  0.1535700000000001  0.7881700000000001  1.0000
  P   P7        1.0  0.61539  0.7786899999999998  0.31085  1.0000
  P   P8        1.0  0.75916  0.7881499999999998  0.15357  1.0000
  P   P9        1.0  0.28257  0.6888399999999998  0.46792  1.0000
  P   P10       1.0  0.42648  0.8467399999999998  0.63506  1.0000
  P   P11       1.0  0.94909  0.53175  0.22097  1.0000
  P   P12       1.0  0.09398  0.3652299999999999  0.21217  1.0000
  H   H1        1.0  0.40068  0.70698  0.91444  1.0000
  H   H2        1.0  0.28808  0.42871999999999993  0.8433100000000001  1.0000
  H   H3        1.0  0.40967  0.4460699999999999  0.87327  1.0000
  H   H4        1.0  0.18724  0.47506999999999994  0.99666  1.0000
  H   H5        1.0  0.44131  0.6489  0.06492  1.0000
  H   H6        1.0  0.35167  0.70383  0.25415  1.0000
  H   H7        1.0  0.73402  0.20710999999999996  0.29269000000000006  1.0000
  H   H8        1.0  0.6213500000000002  0.4151999999999999  0.57143  1.0000
  H   H9        1.0  0.74292  0.4273499999999999  0.55385  1.0000
  H   H10       1.0  0.52038  0.52203  0.5247  1.0000
  H   H11       1.0  0.77479  0.41613000000000006  0.35157000000000005  1.0000
  H   H12       1.0  0.68527  0.5499899999999999  0.29613  1.0000
  H   H13       1.0  0.06692  0.08504  0.79168  1.0000
  H   H14       1.0  0.95501  0.15643  0.5848  1.0000
  H   H15       1.0  0.0766  0.12636  0.57237  1.0000
  H   H16       1.0  0.8538700000000001  0.0029099999999999838  0.47799  1.0000
  H   H17       1.0  0.10816  0.9352499999999998  0.58368  1.0000
  H   H18       1.0  0.01833  0.7458499999999998  0.44981000000000004  1.0000
  H   H19       1.0  0.59974  0.7916999999999997  0.08502  1.0000
  H   H20       1.0  0.7116600000000002  0.58481  0.15642  1.0000
  H   H21       1.0  0.59008  0.57238  0.12635  1.0000
  H   H22       1.0  0.81281  0.47799999999999987  0.00291  1.0000
  H   H23       1.0  0.55852  0.58367  0.93524  1.0000
  H   H24       1.0  0.64833  0.4497999999999999  0.7458300000000002  1.0000
  H   H25       1.0  0.26598  0.9143999999999998  0.7069700000000001  1.0000
  H   H26       1.0  0.37858  0.8433199999999998  0.42872  1.0000
  H   H27       1.0  0.25699  0.87325  0.44607  1.0000
  H   H28       1.0  0.47942  0.99668  0.4750900000000001  1.0000
  H   H29       1.0  0.22535  0.06490999999999994  0.64889  1.0000
  H   H30       1.0  0.315  0.25415  0.70383  1.0000
  H   H31       1.0  0.9327  0.29277  0.20719  1.0000
  H   H32       1.0  0.04531000000000001  0.5714499999999998  0.4152100000000001  1.0000
  H   H33       1.0  0.92373  0.5539  0.4274  1.0000
  H   H34       1.0  0.14629  0.52473  0.52205  1.0000
  H   H35       1.0  0.89187  0.3515699999999999  0.41612  1.0000
  H   H36       1.0  0.9814  0.29613  0.54998  1.0000
  C   C1        1.0  0.35163  0.56064  0.83456  1.0000
  C   C2        1.0  0.34325  0.48804  0.88409  1.0000
  C   C3        1.0  0.24321  0.52968  0.04295  1.0000
  C   C4        1.0  0.3757700000000001  0.6211099999999998  0.07899  1.0000
  C   C5        1.0  0.3294900000000001  0.64927  0.17319000000000004  1.0000
  C   C6        1.0  0.68446  0.27385999999999994  0.43915  1.0000
  C   C7        1.0  0.67642  0.39628  0.51196  1.0000
  C   C8        1.0  0.5764500000000002  0.5135  0.47018  1.0000
  C   C9        1.0  0.70928  0.4581099999999999  0.37924  1.0000
  C   C10       1.0  0.66305  0.52393  0.35083  1.0000
  C   C11       1.0  0.01851  0.16558000000000006  0.72574  1.0000
  C   C12       1.0  0.010120000000000004  0.11571999999999995  0.60347  1.0000
  C   C13       1.0  0.90985  0.9567799999999997  0.48649  1.0000
  C   C14       1.0  0.04256  0.92099  0.54182  1.0000
  C   C15       1.0  0.9962  0.8267599999999999  0.47604  1.0000
  C   C16       1.0  0.6481900000000003  0.7257499999999999  0.16557  1.0000
  C   C17       1.0  0.65657  0.60348  0.1157  1.0000
  C   C18       1.0  0.7568200000000002  0.48648999999999987  0.95678  1.0000
  C   C19       1.0  0.6241100000000003  0.54181  0.9209800000000002  1.0000
  C   C20       1.0  0.67047  0.4760299999999999  0.82675  1.0000
  C   C21       1.0  0.31505  0.8345499999999998  0.56065  1.0000
  C   C22       1.0  0.32341  0.8840899999999999  0.48804  1.0000
  C   C23       1.0  0.42346  0.042959999999999984  0.5297  1.0000
  C   C24       1.0  0.2909  0.07898000000000001  0.62111  1.0000
  C   C25       1.0  0.33717  0.17319000000000007  0.64928  1.0000
  C   C26       1.0  0.98209  0.4392299999999999  0.27389  1.0000
  C   C27       1.0  0.99021  0.512  0.39631  1.0000
  C   C28       1.0  0.0902  0.4702199999999999  0.51351  1.0000
  C   C29       1.0  0.9574000000000003  0.37924  0.45809  1.0000
  C   C30       1.0  0.00363  0.35082  0.52391  1.0000
  N   N1        1.0  0.32067  0.54553  0.99815  1.0000
  N   N2        1.0  0.24755  0.59173  0.14978  1.0000
  N   N3        1.0  0.6539900000000001  0.45292000000000004  0.4546200000000001  1.0000
  N   N4        1.0  0.58094  0.5580999999999999  0.40813  1.0000
  N   N5        1.0  0.98744  0.001699999999999983  0.54699  1.0000
  N   N6        1.0  0.91415  0.8499899999999999  0.44193000000000005  1.0000
  N   N7        1.0  0.67923  0.54699  0.00169  1.0000
  N   N8        1.0  0.7525200000000002  0.4419199999999999  0.84999  1.0000
  N   N9        1.0  0.34599  0.9981499999999999  0.54552  1.0000
  N   N10       1.0  0.41912  0.14979  0.59176  1.0000
  N   N11       1.0  0.012660000000000003  0.4546399999999999  0.45293  1.0000
  N   N12       1.0  0.08572  0.40814999999999985  0.5581  1.0000
  O   O1        1.0  0.40813000000000005  0.53678  0.63865  1.0000
  O   O2        1.0  0.29972  0.39333  0.63947  1.0000
  O   O3        1.0  0.1625  0.55046  0.81109  1.0000
  O   O4        1.0  0.24048000000000005  0.7223999999999999  0.96301  1.0000
  O   O5        1.0  0.2474  0.6830399999999998  0.7721600000000001  1.0000
  O   O6        1.0  0.42615  0.63471  0.88523  1.0000
  O   O7        1.0  0.47072  0.4076899999999999  0.69486  1.0000
  O   O8        1.0  0.7412400000000002  0.10162000000000003  0.46266  1.0000
  O   O9        1.0  0.63349  0.24615  0.6068  1.0000
  O   O10       1.0  0.49554000000000004  0.26120999999999994  0.45084  1.0000
  O   O11       1.0  0.56959  0.24095999999999995  0.27797  1.0000
  O   O12       1.0  0.57953  0.08939  0.3166  1.0000
  O   O13       1.0  0.75916  0.25042  0.3650300000000001  1.0000
  O   O14       1.0  0.80449  0.2867799999999999  0.59191  1.0000
  O   O15       1.0  0.07552  0.36140999999999995  0.8979300000000001  1.0000
  O   O16       1.0  0.96691  0.3604999999999999  0.7537  1.0000
  O   O17       1.0  0.8293000000000001  0.18953  0.74014  1.0000
  O   O18       1.0  0.9072700000000002  0.037390000000000055  0.75962  1.0000
  O   O19       1.0  0.9163200000000002  0.22775  0.91077  1.0000
  O   O20       1.0  0.09289  0.11492000000000005  0.7495  1.0000
  O   O21       1.0  0.13805  0.30518999999999996  0.7127900000000001  1.0000
  O   O22       1.0  0.59116  0.8979199999999999  0.36139000000000004  1.0000
  O   O23       1.0  0.69975  0.7537099999999998  0.3605  1.0000
  O   O24       1.0  0.83739  0.74014  0.18959  1.0000
  O   O25       1.0  0.7595400000000002  0.75962  0.0374  1.0000
  O   O26       1.0  0.75034  0.9107599999999998  0.22773000000000002  1.0000
  O   O27       1.0  0.5738  0.7495  0.1149  1.0000
  O   O28       1.0  0.52862  0.71278  0.30517  1.0000
  O   O29       1.0  0.25859  0.6386799999999998  0.53685  1.0000
  O   O30       1.0  0.36695  0.6394799999999998  0.39334  1.0000
  O   O31       1.0  0.50417  0.81112  0.55044  1.0000
  O   O32       1.0  0.42616  0.9630400000000001  0.7223900000000001  1.0000
  O   O33       1.0  0.41955000000000003  0.77219  0.6830600000000001  1.0000
  O   O34       1.0  0.24052  0.8852299999999997  0.6347  1.0000
  O   O35       1.0  0.19594  0.69482  0.40769000000000005  1.0000
  O   O36       1.0  0.92542  0.4626599999999999  0.10160000000000001  1.0000
  O   O37       1.0  0.0332  0.6068  0.24616  1.0000
  O   O38       1.0  0.17106  0.45063  0.26123  1.0000
  O   O39       1.0  0.09613  0.27793  0.24095000000000003  1.0000
  O   O40       1.0  0.08722  0.31664  0.08934  1.0000
  O   O41       1.0  0.90745  0.36509  0.25043  1.0000
  O   O42       1.0  0.8621700000000001  0.59193  0.28677  1.0000
