data_image0
_chemical_formula_structural       Mn8H20C36N20O24
_chemical_formula_sum              "Mn8 H20 C36 N20 O24"
_cell_length_a       7.66054
_cell_length_b       10.69742
_cell_length_c       19.23402
_cell_angle_alpha    94.22502
_cell_angle_beta     90.02497000000001
_cell_angle_gamma    90.02131

_space_group_name_H-M_alt    "P 1"
_space_group_IT_number       1

loop_
  _space_group_symop_operation_xyz
  'x, y, z'

loop_
  _atom_site_type_symbol
  _atom_site_label
  _atom_site_symmetry_multiplicity
  _atom_site_fract_x
  _atom_site_fract_y
  _atom_site_fract_z
  _atom_site_occupancy
  Mn  Mn1       1.0  0.6223099999999998  0.31632  0.9773300000000001  1.0000
  Mn  Mn2       1.0  0.64874  0.29413  0.76787  1.0000
  Mn  Mn3       1.0  0.08326999999999997  0.67698  0.51595  1.0000
  Mn  Mn4       1.0  0.15193  0.71179  0.73579  1.0000
  Mn  Mn5       1.0  0.4192799999999999  0.67832  0.01581  1.0000
  Mn  Mn6       1.0  0.3475399999999999  0.71172  0.23615000000000003  1.0000
  Mn  Mn7       1.0  0.8765799999999998  0.31566000000000005  0.47713000000000005  1.0000
  Mn  Mn8       1.0  0.85086  0.29371  0.26751  1.0000
  H   H1        1.0  0.12040999999999998  0.07166000000000002  0.5803  1.0000
  H   H2        1.0  0.9534599999999998  0.04055999999999999  0.63967  1.0000
  H   H3        1.0  0.99162  0.1113  0.76746  1.0000
  H   H4        1.0  0.2630999999999999  0.22651000000000002  0.8428399999999999  1.0000
  H   H5        1.0  0.4427299999999999  0.12119000000000002  0.63961  1.0000
  H   H6        1.0  0.6061399999999998  0.91642  0.9133  1.0000
  H   H7        1.0  0.4450099999999999  0.9514900000000001  0.85252  1.0000
  H   H8        1.0  0.4952299999999999  0.88849  0.72617  1.0000
  H   H9        1.0  0.7743999999999998  0.77868  0.65366  1.0000
  H   H10       1.0  0.9400099999999998  0.88884  0.85817  1.0000
  H   H11       1.0  0.8937099999999998  0.9168600000000002  0.41345  1.0000
  H   H12       1.0  0.055539999999999985  0.9507900000000001  0.35268  1.0000
  H   H13       1.0  0.00467  0.8873700000000002  0.22608  1.0000
  H   H14       1.0  0.7240099999999998  0.7793  0.15334  1.0000
  H   H15       1.0  0.56066  0.8876000000000001  0.35829  1.0000
  H   H16       1.0  0.3785799999999999  0.0713  0.08014  1.0000
  H   H17       1.0  0.54643  0.04168000000000001  0.13958  1.0000
  H   H18       1.0  0.5082399999999998  0.11145000000000001  0.26747  1.0000
  H   H19       1.0  0.23729999999999996  0.22674  0.34282  1.0000
  H   H20       1.0  0.05754999999999998  0.12223  0.13938  1.0000
  C   C1        1.0  0.4589099999999999  0.53114  0.74004  1.0000
  C   C2        1.0  0.45573999999999987  0.5295500000000001  0.8175  1.0000
  C   C3        1.0  0.4008199999999999  0.61358  0.8722900000000001  1.0000
  C   C4        1.0  0.31517  0.73433  0.88202  1.0000
  C   C5        1.0  0.13834  0.89096  0.62167  1.0000
  C   C6        1.0  0.09417999999999997  0.030429999999999995  0.6299  1.0000
  C   C7        1.0  0.12511999999999995  0.12954  0.753  1.0000
  C   C8        1.0  0.2608099999999999  0.18629  0.78957  1.0000
  C   C9        1.0  0.3590299999999999  0.13496  0.68489  1.0000
  C   C10       1.0  0.9609299999999998  0.4736300000000001  0.76109  1.0000
  C   C11       1.0  0.95262  0.47552  0.68337  1.0000
  C   C12       1.0  0.89599  0.39145  0.62828  1.0000
  C   C13       1.0  0.7977399999999998  0.27108  0.62068  1.0000
  C   C14       1.0  0.6156  0.10366000000000003  0.88257  1.0000
  C   C15       1.0  0.58361  0.96469  0.8656699999999999  1.0000
  C   C16       1.0  0.6287099999999998  0.87371  0.74192  1.0000
  C   C17       1.0  0.76803  0.81927  0.70675  1.0000
  C   C18       1.0  0.85897  0.87357  0.8122  1.0000
  C   C19       1.0  0.53868  0.47389999999999993  0.26158  1.0000
  C   C20       1.0  0.54643  0.47631000000000007  0.18386  1.0000
  C   C21       1.0  0.6028999999999998  0.39262  0.1287  1.0000
  C   C22       1.0  0.70239  0.27314000000000005  0.12091  1.0000
  C   C23       1.0  0.8844199999999998  0.10327  0.382  1.0000
  C   C24       1.0  0.9167799999999998  0.9641200000000002  0.36551  1.0000
  C   C25       1.0  0.8711399999999998  0.8727300000000001  0.2418  1.0000
  C   C26       1.0  0.7312399999999998  0.8190000000000001  0.20659  1.0000
  C   C27       1.0  0.64129  0.8725900000000002  0.31222  1.0000
  C   C28       1.0  0.040469999999999985  0.53103  0.24008000000000002  1.0000
  C   C29       1.0  0.04333999999999998  0.52944  0.31748  1.0000
  C   C30       1.0  0.09971999999999998  0.6129100000000001  0.37227  1.0000
  C   C31       1.0  0.18792999999999996  0.73262  0.38222  1.0000
  C   C32       1.0  0.36277  0.8911900000000001  0.12198  1.0000
  C   C33       1.0  0.4057499999999999  0.03085  0.1299  1.0000
  C   C34       1.0  0.37484  0.12983000000000003  0.25296  1.0000
  C   C35       1.0  0.23934  0.18666000000000002  0.28953  1.0000
  C   C36       1.0  0.14105999999999994  0.13561  0.18477  1.0000
  N   N1        1.0  0.5336399999999998  0.43271000000000004  0.8459400000000001  1.0000
  N   N2        1.0  0.53286  0.45293  0.91581  1.0000
  N   N3        1.0  0.45157999999999987  0.56413  0.9333699999999999  1.0000
  N   N4        1.0  0.40673  0.18897000000000003  0.74678  1.0000
  N   N5        1.0  0.18851999999999994  0.09838  0.6864  1.0000
  N   N6        1.0  0.020569999999999995  0.57645  0.65446  1.0000
  N   N7        1.0  0.010459999999999997  0.55595  0.58501  1.0000
  N   N8        1.0  0.93719  0.44344  0.56825  1.0000
  N   N9        1.0  0.9116999999999997  0.8197800000000001  0.75093  1.0000
  N   N10       1.0  0.6877099999999998  0.9070600000000001  0.80885  1.0000
  N   N11       1.0  0.4779299999999999  0.5771500000000002  0.15503  1.0000
  N   N12       1.0  0.4874999999999999  0.5568  0.08555  1.0000
  N   N13       1.0  0.56107  0.44451  0.06869  1.0000
  N   N14       1.0  0.5878999999999998  0.81944  0.25089  1.0000
  N   N15       1.0  0.8126899999999998  0.9057800000000003  0.30883  1.0000
  N   N16       1.0  0.9645699999999998  0.4329200000000001  0.34589  1.0000
  N   N17       1.0  0.9659699999999998  0.45288000000000006  0.41576  1.0000
  N   N18       1.0  0.049059999999999986  0.56342  0.4333699999999999  1.0000
  N   N19       1.0  0.09346999999999997  0.18953  0.24667000000000003  1.0000
  N   N20       1.0  0.3114  0.0988  0.18634  1.0000
  O   O1        1.0  0.24772999999999995  0.8437200000000001  0.66024  1.0000
  O   O2        1.0  0.04891999999999999  0.8303000000000003  0.5729  1.0000
  O   O3        1.0  0.5433499999999998  0.44285000000000013  0.70766  1.0000
  O   O4        1.0  0.3837199999999999  0.6196400000000001  0.71141  1.0000
  O   O5        1.0  0.24953999999999996  0.7939900000000002  0.834  1.0000
  O   O6        1.0  0.31603  0.7796400000000001  0.94755  1.0000
  O   O7        1.0  0.7234099999999998  0.16406  0.84815  1.0000
  O   O8        1.0  0.5251099999999997  0.15082000000000004  0.9344000000000001  1.0000
  O   O9        1.0  0.04884  0.56189  0.79224  1.0000
  O   O10       1.0  0.8859299999999998  0.3866700000000001  0.79111  1.0000
  O   O11       1.0  0.7580499999999998  0.21238000000000007  0.67319  1.0000
  O   O12       1.0  0.75816  0.23184  0.55752  1.0000
  O   O13       1.0  0.77609  0.16300000000000006  0.34744  1.0000
  O   O14       1.0  0.9748499999999998  0.15081000000000003  0.43385  1.0000
  O   O15       1.0  0.4509299999999999  0.5619  0.29295  1.0000
  O   O16       1.0  0.61379  0.3867400000000001  0.29135  1.0000
  O   O17       1.0  0.7420299999999997  0.21318000000000006  0.17299  1.0000
  O   O18       1.0  0.7432299999999997  0.23573  0.057690000000000005  1.0000
  O   O19       1.0  0.25406  0.84373  0.16069  1.0000
  O   O20       1.0  0.45241  0.8307100000000002  0.07324  1.0000
  O   O21       1.0  0.9559399999999998  0.44272000000000006  0.20768  1.0000
  O   O22       1.0  0.11599999999999998  0.61945  0.21149  1.0000
  O   O23       1.0  0.25227  0.79353  0.33446  1.0000
  O   O24       1.0  0.19129999999999994  0.7757400000000001  0.44803999999999994  1.0000
