data_image0
_chemical_formula_structural       K2Ce6H20C60O50
_chemical_formula_sum              "K2 Ce6 H20 C60 O50"
_cell_length_a       10.93358
_cell_length_b       16.96979
_cell_length_c       17.69047
_cell_angle_alpha    114.66944999999998
_cell_angle_beta     93.03839
_cell_angle_gamma    99.61865

_symmetry_space_group_name_H-M    'P 1'
_symmetry_Int_Tables_number       1

loop_
  _symmetry_equiv_pos_as_xyz
  'x,y,z'

loop_
  _atom_site_type_symbol
  _atom_site_label
  _atom_site_symmetry_multiplicity
  _atom_site_fract_x
  _atom_site_fract_y
  _atom_site_fract_z
  _atom_site_occupancy
  K   K1        1.0  0.73351  0.25226  0.01764  1.0000
  K   K2        1.0  0.2638599999999999  0.74491  0.9832799999999998  1.0000
  Ce  Ce1       1.0  0.08046999999999997  0.13879999999999995  0.01033  1.0000
  Ce  Ce2       1.0  0.3675  0.33935999999999994  0.9936699999999998  1.0000
  Ce  Ce3       1.0  0.43937999999999994  0.8666699999999999  0.4115899999999999  1.0000
  Ce  Ce4       1.0  0.9182799999999999  0.8582299999999999  0.9868199999999998  1.0000
  Ce  Ce5       1.0  0.63577  0.6622699999999998  0.007049999999999998  1.0000
  Ce  Ce6       1.0  0.5633900000000001  0.13105  0.58411  1.0000
  H   H1        1.0  0.11624999999999996  0.97816  0.8022299999999998  1.0000
  H   H2        1.0  0.06729999999999997  0.44112  0.86819  1.0000
  H   H3        1.0  0.8568700000000001  0.51051  0.87538  1.0000
  H   H4        1.0  0.3850100000000001  0.053509999999999974  0.14097999999999994  1.0000
  H   H5        1.0  0.12768999999999991  0.8627699999999996  0.64078  1.0000
  H   H6        1.0  0.81056  0.77771  0.72618  1.0000
  H   H7        1.0  0.59117  0.98038  0.12795  1.0000
  H   H8        1.0  0.18184  0.59482  0.40753  1.0000
  H   H9        1.0  0.65575  0.76174  0.59034  1.0000
  H   H10       1.0  0.049899999999999965  0.42519  0.31307  1.0000
  H   H11       1.0  0.8841599999999998  0.022269999999999984  0.19809999999999994  1.0000
  H   H12       1.0  0.93356  0.55962  0.13147  1.0000
  H   H13       1.0  0.14240999999999995  0.49022999999999994  0.12372999999999998  1.0000
  H   H14       1.0  0.61552  0.9472999999999999  0.8586199999999998  1.0000
  H   H15       1.0  0.87246  0.1378699999999999  0.3598999999999999  1.0000
  H   H16       1.0  0.18944  0.2221  0.27373  1.0000
  H   H17       1.0  0.40948999999999997  0.020189999999999892  0.8715499999999998  1.0000
  H   H18       1.0  0.8170499999999999  0.4057  0.59343  1.0000
  H   H19       1.0  0.34451  0.23926999999999995  0.41016999999999987  1.0000
  H   H20       1.0  0.94923  0.5749999999999997  0.6877999999999997  1.0000
  C   C1        1.0  0.41693  0.19015999999999994  0.07452999999999997  1.0000
  C   C2        1.0  0.49418999999999996  0.13398999999999994  0.08945999999999997  1.0000
  C   C3        1.0  0.26281999999999994  0.9742499999999998  0.64361  1.0000
  C   C4        1.0  0.19589  0.42096  0.23130999999999993  1.0000
  C   C5        1.0  0.66117  0.4317  0.95266  1.0000
  C   C6        1.0  0.25258  0.06819999999999989  0.7741499999999998  1.0000
  C   C7        1.0  0.78626  0.06296  0.05512  1.0000
  C   C8        1.0  0.96012  0.3631299999999999  0.9231799999999998  1.0000
  C   C9        1.0  0.66216  0.07481  0.08013  1.0000
  C   C10       1.0  0.04204999999999994  0.3103299999999999  0.9417899999999998  1.0000
  C   C11       1.0  0.16398999999999997  0.3361799999999999  0.15434999999999993  1.0000
  C   C12       1.0  0.78735  0.42016999999999993  0.9292599999999998  1.0000
  C   C13       1.0  0.17122999999999997  0.9901399999999999  0.7579999999999998  1.0000
  C   C14       1.0  0.28669  0.15333  0.84935  1.0000
  C   C15       1.0  0.98143  0.42428  0.89095  1.0000
  C   C16       1.0  0.89822  0.96673  0.8469499999999998  1.0000
  C   C17       1.0  0.8725099999999999  0.4602999999999998  0.8948899999999997  1.0000
  C   C18       1.0  0.6228799999999999  0.9399899999999999  0.60831  1.0000
  C   C19       1.0  0.47014999999999996  0.07059  0.11864999999999998  1.0000
  C   C20       1.0  0.69206  0.90623  0.65767  1.0000
  C   C21       1.0  0.8168800000000002  0.9181599999999998  0.7656099999999998  1.0000
  C   C22       1.0  0.178  0.9303600000000001  0.67488  1.0000
  C   C23       1.0  0.30558  0.94609  0.56146  1.0000
  C   C24       1.0  0.7807999999999999  0.82905  0.71363  1.0000
  C   C25       1.0  0.57673  0.03272  0.1121  1.0000
  C   C26       1.0  0.20329999999999998  0.5459799999999999  0.3497999999999999  1.0000
  C   C27       1.0  0.30452  0.56074  0.31097  1.0000
  C   C28       1.0  0.70135  0.8214099999999999  0.64423  1.0000
  C   C29       1.0  0.13522999999999996  0.45759999999999995  0.3003499999999999  1.0000
  C   C30       1.0  0.41001000000000004  0.63565  0.32699  1.0000
  C   C31       1.0  0.58521  0.81056  0.9260199999999997  1.0000
  C   C32       1.0  0.5063699999999999  0.8659599999999998  0.9099999999999998  1.0000
  C   C33       1.0  0.73775  0.02664  0.35699  1.0000
  C   C34       1.0  0.80373  0.57767  0.76814  1.0000
  C   C35       1.0  0.3373399999999999  0.5686199999999999  0.04785  1.0000
  C   C36       1.0  0.74709  0.932  0.22656999999999994  1.0000
  C   C37       1.0  0.21305999999999992  0.9370899999999999  0.9446599999999998  1.0000
  C   C38       1.0  0.04009999999999993  0.6365999999999998  0.07614999999999997  1.0000
  C   C39       1.0  0.33798  0.92551  0.91973  1.0000
  C   C40       1.0  0.95843  0.68931  0.05826999999999999  1.0000
  C   C41       1.0  0.8344799999999999  0.66158  0.8437299999999998  1.0000
  C   C42       1.0  0.21139000000000002  0.58022  0.07  1.0000
  C   C43       1.0  0.82874  0.010079999999999987  0.24232999999999993  1.0000
  C   C44       1.0  0.71285  0.84662  0.15098  1.0000
  C   C45       1.0  0.018869999999999994  0.57608  0.10882999999999997  1.0000
  C   C46       1.0  0.10092999999999999  0.03284  0.15352  1.0000
  C   C47       1.0  0.12713  0.5403  0.10465999999999998  1.0000
  C   C48       1.0  0.3772099999999999  0.06060999999999993  0.3915499999999999  1.0000
  C   C49       1.0  0.5304199999999999  0.9298399999999998  0.8811899999999998  1.0000
  C   C50       1.0  0.308  0.09480999999999998  0.34301  1.0000
  C   C51       1.0  0.18307999999999996  0.08190999999999997  0.23475  1.0000
  C   C52       1.0  0.8222799999999999  0.07032999999999998  0.32542  1.0000
  C   C53       1.0  0.69549  0.054980000000000015  0.43896  1.0000
  C   C54       1.0  0.21932999999999997  0.17112999999999995  0.28655999999999987  1.0000
  C   C55       1.0  0.42363999999999996  0.96775  0.8877799999999998  1.0000
  C   C56       1.0  0.79661  0.45462  0.65079  1.0000
  C   C57       1.0  0.6966399999999998  0.4412799999999999  0.6910899999999998  1.0000
  C   C58       1.0  0.29892  0.17963  0.35626  1.0000
  C   C59       1.0  0.86473  0.54201  0.69961  1.0000
  C   C60       1.0  0.59305  0.3651099999999999  0.6750099999999998  1.0000
  O   O1        1.0  0.81655  0.99231  0.049959999999999984  1.0000
  O   O2        1.0  0.46822  0.24364  0.04421999999999999  1.0000
  O   O3        1.0  0.30627  0.17958999999999997  0.09036999999999998  1.0000
  O   O4        1.0  0.92703  0.9207199999999999  0.8839399999999997  1.0000
  O   O5        1.0  0.9938099999999999  0.25443999999999994  0.96773  1.0000
  O   O6        1.0  0.6122699999999999  0.13759999999999997  0.06659  1.0000
  O   O7        1.0  0.84062  0.3586099999999998  0.9465899999999998  1.0000
  O   O8        1.0  0.8506400000000001  0.12353  0.03981999999999999  1.0000
  O   O9        1.0  0.22591  0.16442  0.91178  1.0000
  O   O10       1.0  0.59927  0.37532  0.97487  1.0000
  O   O11       1.0  0.15636  0.32862  0.93073  1.0000
  O   O12       1.0  0.93658  0.05002999999999993  0.8735399999999998  1.0000
  O   O13       1.0  0.7635600000000001  0.9661000000000001  0.73203  1.0000
  O   O14       1.0  0.37543999999999994  0.21289999999999987  0.8500899999999998  1.0000
  O   O15       1.0  0.22536  0.3293499999999999  0.09205999999999998  1.0000
  O   O16       1.0  0.38266  0.0036700000000000005  0.54691  1.0000
  O   O17       1.0  0.30187  0.48234  0.2359  1.0000
  O   O18       1.0  0.6228  0.49735999999999997  0.9496199999999998  1.0000
  O   O19       1.0  0.07777999999999997  0.27573  0.15316  1.0000
  O   O20       1.0  0.31108  0.05994999999999988  0.7041999999999998  1.0000
  O   O21       1.0  0.6298799999999999  0.023559999999999904  0.6361899999999998  1.0000
  O   O22       1.0  0.26832999999999996  0.8664499999999999  0.5066899999999998  1.0000
  O   O23       1.0  0.5602499999999999  0.8801099999999998  0.53822  1.0000
  O   O24       1.0  0.39023  0.71312  0.38147  1.0000
  O   O25       1.0  0.49898  0.62184  0.28677  1.0000
  O   O26       1.0  0.18158999999999995  0.007329999999999904  0.9491199999999997  1.0000
  O   O27       1.0  0.53365  0.75708  0.9571799999999998  1.0000
  O   O28       1.0  0.69565  0.8209999999999998  0.9093999999999998  1.0000
  O   O29       1.0  0.07107  0.07903999999999996  0.11696999999999998  1.0000
  O   O30       1.0  0.0056400000000000035  0.74547  0.03256999999999999  1.0000
  O   O31       1.0  0.38761999999999985  0.8619199999999997  0.9330599999999998  1.0000
  O   O32       1.0  0.1586  0.64074  0.052819999999999985  1.0000
  O   O33       1.0  0.14923999999999996  0.8766199999999998  0.9600899999999998  1.0000
  O   O34       1.0  0.77242  0.83513  0.08803999999999997  1.0000
  O   O35       1.0  0.40121  0.62422  0.025969999999999993  1.0000
  O   O36       1.0  0.84427  0.6710299999999998  0.07009999999999997  1.0000
  O   O37       1.0  0.06361000000000003  0.9494900000000001  0.12685  1.0000
  O   O38       1.0  0.2368399999999999  0.03429999999999994  0.2689199999999999  1.0000
  O   O39       1.0  0.62452  0.78652  0.14998999999999996  1.0000
  O   O40       1.0  0.7742600000000001  0.67007  0.90696  1.0000
  O   O41       1.0  0.6200700000000001  0.9969600000000001  0.4543099999999999  1.0000
  O   O42       1.0  0.7004199999999999  0.51686  0.7630299999999998  1.0000
  O   O43       1.0  0.37441  0.50261  0.05138  1.0000
  O   O44       1.0  0.92083  0.72239  0.8450299999999997  1.0000
  O   O45       1.0  0.6894999999999999  0.9407399999999999  0.2969099999999999  1.0000
  O   O46       1.0  0.37102  0.97667  0.36199  1.0000
  O   O47       1.0  0.73024  0.13484999999999997  0.49357  1.0000
  O   O48       1.0  0.44108  0.11878000000000002  0.4614  1.0000
  O   O49       1.0  0.61225  0.2874  0.6207  1.0000
  O   O50       1.0  0.50101  0.37854  0.7124199999999998  1.0000
