data_image0
_chemical_formula_structural       Ni6H16C56N8O32
_chemical_formula_sum              "Ni6 H16 C56 N8 O32"
_cell_length_a       11.07965
_cell_length_b       13.83034
_cell_length_c       14.041750000000002
_cell_angle_alpha    101.51544
_cell_angle_beta     89.99683
_cell_angle_gamma    90.0023

_space_group_name_H-M_alt    "P 1"
_space_group_IT_number       1

loop_
  _space_group_symop_operation_xyz
  'x, y, z'

loop_
  _atom_site_type_symbol
  _atom_site_label
  _atom_site_symmetry_multiplicity
  _atom_site_fract_x
  _atom_site_fract_y
  _atom_site_fract_z
  _atom_site_occupancy
  Ni  Ni1       1.0  0.27974  0.1833  0.30325  1.0000
  Ni  Ni2       1.0  0.7768400000000002  0.32091999999999987  0.20155  1.0000
  Ni  Ni3       1.0  0.72626  0.81979  0.6936199999999998  1.0000
  Ni  Ni4       1.0  0.22444  0.6795699999999999  0.80677  1.0000
  Ni  Ni5       1.0  0.00024000000000000003  0.0026  0.00206  1.0000
  Ni  Ni6       1.0  0.49891  0.49838999999999994  0.50205  1.0000
  H   H1        1.0  0.15485  0.99957  0.7121199999999999  1.0000
  H   H2        1.0  0.32948  0.7726499999999997  0.49678999999999995  1.0000
  H   H3        1.0  0.08101  0.04180999999999999  0.56853  1.0000
  H   H4        1.0  0.42394  0.9079899999999997  0.46204  1.0000
  H   H5        1.0  0.65304  0.50182  0.7908199999999999  1.0000
  H   H6        1.0  0.83015  0.72826  0.0053  1.0000
  H   H7        1.0  0.58057  0.45754  0.93224  1.0000
  H   H8        1.0  0.92338  0.59119  0.039119999999999995  1.0000
  H   H9        1.0  0.84498  0.9947599999999998  0.29394  1.0000
  H   H10       1.0  0.66693  0.21867  0.51064  1.0000
  H   H11       1.0  0.9191400000000001  0.9516999999999999  0.43542  1.0000
  H   H12       1.0  0.57507  0.08337  0.54327  1.0000
  H   H13       1.0  0.34428  0.50751  0.20658999999999997  1.0000
  H   H14       1.0  0.16713  0.28088  0.99221  1.0000
  H   H15       1.0  0.41804  0.54816  0.06457  1.0000
  H   H16       1.0  0.07392  0.41594  0.95753  1.0000
  C   C1        1.0  0.1288  0.87734  0.84702  1.0000
  C   C2        1.0  0.32777  0.6339599999999997  0.61558  1.0000
  C   C3        1.0  0.08254000000000002  0.17392  0.43842  1.0000
  C   C4        1.0  0.45424  0.03334999999999998  0.32673999999999986  1.0000
  C   C5        1.0  0.18059  0.85741  0.74633  1.0000
  C   C6        1.0  0.18847000000000003  0.9251899999999997  0.68557  1.0000
  C   C7        1.0  0.24257000000000006  0.8964699999999998  0.59386  1.0000
  C   C8        1.0  0.28794  0.80025  0.56713  1.0000
  C   C9        1.0  0.27795  0.7365599999999998  0.6317  1.0000
  C   C10       1.0  0.17318  0.09873999999999997  0.45747  1.0000
  C   C11       1.0  0.16134  0.03609  0.52312  1.0000
  C   C12       1.0  0.25191  0.9654899999999998  0.52646  1.0000
  C   C13       1.0  0.351  0.96085  0.46286  1.0000
  C   C14       1.0  0.35676  0.026819999999999976  0.4001599999999999  1.0000
  C   C15       1.0  0.62717  0.62306  0.6564099999999998  1.0000
  C   C16       1.0  0.82864  0.8673399999999998  0.8848099999999998  1.0000
  C   C17       1.0  0.58348  0.32318  0.06204  1.0000
  C   C18       1.0  0.95449  0.46449  0.17217  1.0000
  C   C19       1.0  0.6808300000000002  0.6432799999999997  0.75623  1.0000
  C   C20       1.0  0.68776  0.57588  0.81725  1.0000
  C   C21       1.0  0.7418100000000001  0.60472  0.9088499999999999  1.0000
  C   C22       1.0  0.78854  0.70075  0.9349399999999998  1.0000
  C   C23       1.0  0.77955  0.7642299999999997  0.8698899999999998  1.0000
  C   C24       1.0  0.66912  0.40385  0.047209999999999995  1.0000
  C   C25       1.0  0.6588  0.46527  0.98005  1.0000
  C   C26       1.0  0.74931  0.53619  0.97694  1.0000
  C   C27       1.0  0.84847  0.54057  0.040309999999999985  1.0000
  C   C28       1.0  0.85271  0.47601  0.10437999999999999  1.0000
  C   C29       1.0  0.87324  0.12255  0.16174  1.0000
  C   C30       1.0  0.66974  0.35955  0.3910099999999999  1.0000
  C   C31       1.0  0.9165300000000001  0.8167299999999998  0.56751  1.0000
  C   C32       1.0  0.54956  0.95638  0.68075  1.0000
  C   C33       1.0  0.81953  0.13811  0.26172  1.0000
  C   C34       1.0  0.8111500000000001  0.06899  0.32088  1.0000
  C   C35       1.0  0.7562900000000002  0.09682  0.41248  1.0000
  C   C36       1.0  0.70916  0.19256999999999996  0.4403  1.0000
  C   C37       1.0  0.7194100000000001  0.2568599999999999  0.3764399999999999  1.0000
  C   C38       1.0  0.83008  0.89459  0.54769  1.0000
  C   C39       1.0  0.83982  0.9571899999999999  0.48193999999999987  1.0000
  C   C40       1.0  0.74829  0.027459999999999988  0.47946999999999995  1.0000
  C   C41       1.0  0.64929  0.03183999999999999  0.54325  1.0000
  C   C42       1.0  0.6447000000000002  0.96699  0.60684  1.0000
  C   C43       1.0  0.37294  0.3810899999999999  0.34121  1.0000
  C   C44       1.0  0.17123000000000002  0.14131  0.11314  1.0000
  C   C45       1.0  0.4148  0.68251  0.93234  1.0000
  C   C46       1.0  0.047450000000000006  0.5434499999999999  0.8197599999999998  1.0000
  C   C47       1.0  0.31891  0.36488  0.24108  1.0000
  C   C48       1.0  0.31037  0.43306999999999995  0.18093  1.0000
  C   C49       1.0  0.25536  0.40395  0.08934  1.0000
  C   C50       1.0  0.2089  0.30797  0.06254  1.0000
  C   C51       1.0  0.21941  0.24451  0.12723  1.0000
  C   C52       1.0  0.32847  0.6047699999999999  0.95235  1.0000
  C   C53       1.0  0.33844  0.54257  0.01837  1.0000
  C   C54       1.0  0.24696  0.47241  0.021369999999999993  1.0000
  C   C55       1.0  0.14788  0.46769  0.9574799999999998  1.0000
  C   C56       1.0  0.14294  0.53234  0.89354  1.0000
  N   N1        1.0  0.22433000000000003  0.7657599999999999  0.71818  1.0000
  N   N2        1.0  0.26966  0.09355999999999999  0.39962999999999993  1.0000
  N   N3        1.0  0.7259100000000002  0.7345799999999999  0.78343  1.0000
  N   N4        1.0  0.7636  0.41165999999999997  0.10738  1.0000
  N   N5        1.0  0.77464  0.22913  0.29063  1.0000
  N   N6        1.0  0.73398  0.90188  0.6062399999999998  1.0000
  N   N7        1.0  0.2743  0.27354  0.21297999999999995  1.0000
  N   N8        1.0  0.23229000000000002  0.59729  0.8938599999999998  1.0000
  O   O1        1.0  0.13337  0.8082499999999998  0.8945  1.0000
  O   O2        1.0  0.08428  0.9629  0.87643  1.0000
  O   O3        1.0  0.31524  0.5864399999999999  0.6833  1.0000
  O   O4        1.0  0.38059  0.60398  0.53417  1.0000
  O   O5        1.0  0.11473  0.21505999999999995  0.36614  1.0000
  O   O6        1.0  0.9879300000000002  0.19042  0.4855  1.0000
  O   O7        1.0  0.4303  0.10014999999999998  0.27528  1.0000
  O   O8        1.0  0.54552  0.981  0.31905  1.0000
  O   O9        1.0  0.63085  0.69187  0.60877  1.0000
  O   O10       1.0  0.58165  0.53752  0.62807  1.0000
  O   O11       1.0  0.8181600000000002  0.91242  0.81496  1.0000
  O   O12       1.0  0.87807  0.9003  0.96696  1.0000
  O   O13       1.0  0.62426  0.27206  0.12421  1.0000
  O   O14       1.0  0.48555  0.30941  0.01919  1.0000
  O   O15       1.0  0.93917  0.3894999999999999  0.21499  1.0000
  O   O16       1.0  0.04367000000000001  0.51924  0.1816  1.0000
  O   O17       1.0  0.86764  0.19442  0.11795  1.0000
  O   O18       1.0  0.9199700000000001  0.03825  0.12908  1.0000
  O   O19       1.0  0.68472  0.4063399999999999  0.32259999999999994  1.0000
  O   O20       1.0  0.6146900000000001  0.39093000000000006  0.47089  1.0000
  O   O21       1.0  0.8790700000000001  0.77235  0.63731  1.0000
  O   O22       1.0  0.01257  0.79936  0.52352  1.0000
  O   O23       1.0  0.57479  0.88597  0.7289  1.0000
  O   O24       1.0  0.45827  0.008089999999999969  0.6918699999999998  1.0000
  O   O25       1.0  0.36929  0.30927  0.3856  1.0000
  O   O26       1.0  0.41843  0.46557999999999994  0.3743599999999999  1.0000
  O   O27       1.0  0.18791  0.09498  0.18121999999999996  1.0000
  O   O28       1.0  0.11628000000000001  0.10937  0.03314  1.0000
  O   O29       1.0  0.37754  0.72601  0.86193  1.0000
  O   O30       1.0  0.5105  0.70053  0.9765499999999998  1.0000
  O   O31       1.0  0.07242  0.6140299999999997  0.77168  1.0000
  O   O32       1.0  0.9560500000000001  0.4919199999999999  0.80876  1.0000
