data_image0
_chemical_formula_structural       Zn4H32C64N4O16
_chemical_formula_sum              "Zn4 H32 C64 N4 O16"
_cell_length_a       10.83501
_cell_length_b       19.37886
_cell_length_c       19.37881
_cell_angle_alpha    69.17213
_cell_angle_beta     73.99094
_cell_angle_gamma    73.99098

_space_group_name_H-M_alt    "P 1"
_space_group_IT_number       1

loop_
  _space_group_symop_operation_xyz
  'x, y, z'

loop_
  _atom_site_type_symbol
  _atom_site_label
  _atom_site_symmetry_multiplicity
  _atom_site_fract_x
  _atom_site_fract_y
  _atom_site_fract_z
  _atom_site_occupancy
  Zn  Zn1       1.0  0.62524  0.9858699999999999  0.98588  1.0000
  Zn  Zn2       1.0  0.09731000000000001  0.51404  0.51405  1.0000
  Zn  Zn3       1.0  0.9026799999999999  0.48595000000000005  0.48594999999999994  1.0000
  Zn  Zn4       1.0  0.37476  0.014119999999999999  0.01412  1.0000
  H   H1        1.0  0.71027  0.94402  0.20492  1.0000
  H   H2        1.0  0.71136  0.9444600000000001  0.33325  1.0000
  H   H3        1.0  0.29208  0.011720000000000001  0.24487999999999996  1.0000
  H   H4        1.0  0.29226  0.016799999999999995  0.37261  1.0000
  H   H5        1.0  0.35894  0.5559  0.29582  1.0000
  H   H6        1.0  0.4893  0.55549  0.16779  1.0000
  H   H7        1.0  0.04921000000000002  0.48771  0.25417  1.0000
  H   H8        1.0  0.18269  0.4827000000000001  0.12682  1.0000
  H   H9        1.0  0.64105  0.7041799999999999  0.4441  1.0000
  H   H10       1.0  0.5106900000000001  0.8322099999999999  0.44451  1.0000
  H   H11       1.0  0.9507799999999998  0.74583  0.51229  1.0000
  H   H12       1.0  0.8173099999999999  0.8731700000000001  0.5173  1.0000
  H   H13       1.0  0.28972  0.79507  0.05597  1.0000
  H   H14       1.0  0.28863  0.66674  0.05553  1.0000
  H   H15       1.0  0.7079099999999998  0.75512  0.98828  1.0000
  H   H16       1.0  0.70773  0.62739  0.9832  1.0000
  H   H17       1.0  0.28972  0.05597000000000001  0.79508  1.0000
  H   H18       1.0  0.28863  0.055529999999999975  0.66675  1.0000
  H   H19       1.0  0.70791  0.98827  0.75512  1.0000
  H   H20       1.0  0.7077299999999997  0.9832  0.62739  1.0000
  H   H21       1.0  0.64105  0.44408999999999993  0.70418  1.0000
  H   H22       1.0  0.51069  0.4444999999999999  0.83221  1.0000
  H   H23       1.0  0.9507799999999997  0.51229  0.74583  1.0000
  H   H24       1.0  0.8173100000000002  0.5172999999999999  0.87318  1.0000
  H   H25       1.0  0.35894000000000004  0.29580999999999996  0.55591  1.0000
  H   H26       1.0  0.48930000000000007  0.16778999999999994  0.55549  1.0000
  H   H27       1.0  0.049209999999999955  0.25417  0.48771000000000003  1.0000
  H   H28       1.0  0.18268999999999996  0.12682000000000004  0.4827  1.0000
  H   H29       1.0  0.7102699999999998  0.20492000000000002  0.9440300000000001  1.0000
  H   H30       1.0  0.71136  0.33325000000000005  0.94447  1.0000
  H   H31       1.0  0.29208  0.24487  0.01172  1.0000
  H   H32       1.0  0.29227  0.37261  0.0168  1.0000
  C   C1        1.0  0.5010900000000001  0.9792899999999999  0.14006  1.0000
  C   C2        1.0  0.5008799999999999  0.97683  0.21789  1.0000
  C   C3        1.0  0.61928  0.95803  0.24284  1.0000
  C   C4        1.0  0.6192899999999999  0.9587600000000001  0.31438  1.0000
  C   C5        1.0  0.50106  0.97975  0.36171  1.0000
  C   C6        1.0  0.3826399999999999  0.9969  0.26533  1.0000
  C   C7        1.0  0.3828900000000001  0.9992299999999998  0.33623  1.0000
  C   C8        1.0  0.49956000000000006  0.98701  0.43551  1.0000
  C   C9        1.0  0.12142999999999994  0.52065  0.35999  1.0000
  C   C10       1.0  0.196  0.52275  0.28216  1.0000
  C   C11       1.0  0.32034  0.54168  0.25757  1.0000
  C   C12       1.0  0.39294  0.54091  0.18622  1.0000
  C   C13       1.0  0.34323  0.51971  0.13853  1.0000
  C   C14       1.0  0.14534000000000002  0.50255  0.23434  1.0000
  C   C15       1.0  0.21917000000000006  0.5002  0.16362  1.0000
  C   C16       1.0  0.42236999999999997  0.51262  0.06466  1.0000
  C   C17       1.0  0.8785699999999997  0.6400099999999999  0.47935  1.0000
  C   C18       1.0  0.8039899999999999  0.7178300000000001  0.47724999999999995  1.0000
  C   C19       1.0  0.6796599999999999  0.7424300000000001  0.45832  1.0000
  C   C20       1.0  0.6070499999999999  0.81378  0.45909  1.0000
  C   C21       1.0  0.65677  0.86147  0.48028999999999994  1.0000
  C   C22       1.0  0.8546499999999998  0.7656600000000001  0.49744999999999995  1.0000
  C   C23       1.0  0.7808199999999998  0.83638  0.4998  1.0000
  C   C24       1.0  0.5776300000000002  0.9353299999999999  0.48738  1.0000
  C   C25       1.0  0.49890999999999974  0.85994  0.02071  1.0000
  C   C26       1.0  0.49912  0.78211  0.02317  1.0000
  C   C27       1.0  0.38071  0.75716  0.04197  1.0000
  C   C28       1.0  0.3806999999999997  0.68562  0.04124  1.0000
  C   C29       1.0  0.4989299999999999  0.63828  0.02024  1.0000
  C   C30       1.0  0.61735  0.73467  0.0031  1.0000
  C   C31       1.0  0.6170999999999999  0.66377  0.00077  1.0000
  C   C32       1.0  0.5004399999999999  0.56448  0.01299  1.0000
  C   C33       1.0  0.49891  0.02071  0.85994  1.0000
  C   C34       1.0  0.4991199999999999  0.023170000000000007  0.78211  1.0000
  C   C35       1.0  0.38071000000000016  0.04195999999999999  0.75716  1.0000
  C   C36       1.0  0.38070000000000004  0.04124000000000002  0.68562  1.0000
  C   C37       1.0  0.49893000000000004  0.020240000000000005  0.63829  1.0000
  C   C38       1.0  0.6173499999999998  0.003100000000000012  0.73467  1.0000
  C   C39       1.0  0.6171  0.0007599999999999872  0.66377  1.0000
  C   C40       1.0  0.50044  0.01299  0.56449  1.0000
  C   C41       1.0  0.8785700000000001  0.47933999999999993  0.64001  1.0000
  C   C42       1.0  0.8039899999999994  0.47724000000000016  0.71784  1.0000
  C   C43       1.0  0.67966  0.45831  0.74243  1.0000
  C   C44       1.0  0.6070500000000001  0.45907999999999993  0.81378  1.0000
  C   C45       1.0  0.6567700000000001  0.4802799999999999  0.86147  1.0000
  C   C46       1.0  0.8546499999999998  0.49744  0.76566  1.0000
  C   C47       1.0  0.7808199999999995  0.49979999999999997  0.83638  1.0000
  C   C48       1.0  0.5776299999999999  0.48736999999999997  0.9353400000000001  1.0000
  C   C49       1.0  0.12142999999999993  0.3599800000000001  0.52065  1.0000
  C   C50       1.0  0.19599999999999987  0.28216  0.52275  1.0000
  C   C51       1.0  0.3203399999999999  0.25757  0.54168  1.0000
  C   C52       1.0  0.39294  0.18621999999999997  0.54091  1.0000
  C   C53       1.0  0.34322999999999987  0.13853000000000001  0.51971  1.0000
  C   C54       1.0  0.14534  0.23434000000000005  0.50255  1.0000
  C   C55       1.0  0.21917000000000006  0.16362  0.5002  1.0000
  C   C56       1.0  0.42236999999999986  0.06466000000000001  0.51262  1.0000
  C   C57       1.0  0.50108  0.14006  0.97929  1.0000
  C   C58       1.0  0.5008800000000001  0.21789000000000006  0.97683  1.0000
  C   C59       1.0  0.61928  0.24283000000000002  0.9580299999999999  1.0000
  C   C60       1.0  0.6192899999999999  0.31438  0.95876  1.0000
  C   C61       1.0  0.5010600000000001  0.3617099999999999  0.97976  1.0000
  C   C62       1.0  0.38263999999999987  0.26531999999999994  0.9969  1.0000
  C   C63       1.0  0.38289  0.3362299999999999  0.99923  1.0000
  C   C64       1.0  0.4995599999999999  0.4355100000000001  0.98701  1.0000
  N   N1        1.0  0.42215  0.04969999999999999  0.45  1.0000
  N   N2        1.0  0.42215  0.45000000000000007  0.04971  1.0000
  N   N3        1.0  0.5778399999999999  0.95029  0.55  1.0000
  N   N4        1.0  0.57784  0.54999  0.9502900000000001  1.0000
  O   O1        1.0  0.61293  0.96855  0.09671  1.0000
  O   O2        1.0  0.38952999999999993  0.9933400000000001  0.12184999999999999  1.0000
  O   O3        1.0  0.17986999999999995  0.53152  0.40336  1.0000
  O   O4        1.0  0.0056900000000000535  0.5068  0.37825  1.0000
  O   O5        1.0  0.82013  0.59664  0.46847  1.0000
  O   O6        1.0  0.9943  0.6217499999999999  0.4932  1.0000
  O   O7        1.0  0.38706  0.90329  0.03144  1.0000
  O   O8        1.0  0.6104599999999999  0.87815  0.00666  1.0000
  O   O9        1.0  0.38706  0.03144000000000001  0.90329  1.0000
  O   O10       1.0  0.61046  0.006659999999999982  0.87815  1.0000
  O   O11       1.0  0.82013  0.46847  0.59664  1.0000
  O   O12       1.0  0.9943  0.49319  0.62175  1.0000
  O   O13       1.0  0.17986999999999995  0.40335  0.53153  1.0000
  O   O14       1.0  0.005690000000000013  0.37825  0.5068  1.0000
  O   O15       1.0  0.6129299999999998  0.0967  0.96856  1.0000
  O   O16       1.0  0.38952999999999977  0.12184000000000002  0.9933399999999999  1.0000
