data_image0
_chemical_formula_structural       La4Mo8H20C28N4O36
_chemical_formula_sum              "La4 Mo8 H20 C28 N4 O36"
_cell_length_a       10.90494
_cell_length_b       11.42305
_cell_length_c       14.96553
_cell_angle_alpha    89.85653
_cell_angle_beta     110.97125
_cell_angle_gamma    119.90055000000001

_symmetry_space_group_name_H-M    'P 1'
_symmetry_Int_Tables_number       1

loop_
  _symmetry_equiv_pos_as_xyz
  'x,y,z'

loop_
  _atom_site_type_symbol
  _atom_site_label
  _atom_site_symmetry_multiplicity
  _atom_site_fract_x
  _atom_site_fract_y
  _atom_site_fract_z
  _atom_site_occupancy
  La  La1       1.0  0.12404999999999998  0.54835  0.16538  1.0000
  La  La2       1.0  0.2314799999999999  0.46769999999999995  0.52176  1.0000
  La  La3       1.0  0.8745  0.45318  0.8391  1.0000
  La  La4       1.0  0.7670099999999999  0.53189  0.48077  1.0000
  Mo  Mo1       1.0  0.95394  0.98508  0.19092999999999993  1.0000
  Mo  Mo2       1.0  0.044979999999999944  0.8641599999999999  0.09066  1.0000
  Mo  Mo3       1.0  0.08584999999999997  0.19287  0.09638999999999998  1.0000
  Mo  Mo4       1.0  0.20476  0.07929999999999998  0.97288  1.0000
  Mo  Mo5       1.0  0.057869999999999824  0.018489999999999902  0.8054199999999998  1.0000
  Mo  Mo6       1.0  0.94593  0.13198  0.91041  1.0000
  Mo  Mo7       1.0  0.9099300000000001  0.80726  0.90561  1.0000
  Mo  Mo8       1.0  0.8146399999999999  0.93132  0.01721  1.0000
  H   H1        1.0  0.47078000000000003  0.7533  0.51598  1.0000
  H   H2        1.0  0.5243899999999999  0.6562399999999999  0.48819  1.0000
  H   H3        1.0  0.12867000000000003  0.65897  0.48024999999999995  1.0000
  H   H4        1.0  0.23446000000000003  0.73715  0.58949  1.0000
  H   H5        1.0  0.7187399999999998  0.08510999999999996  0.2967899999999999  1.0000
  H   H6        1.0  0.47141  0.99016  0.1436  1.0000
  H   H7        1.0  0.4885999999999999  0.10754999999999998  0.9995  1.0000
  H   H8        1.0  0.4411699999999999  0.6246499999999999  0.13393  1.0000
  H   H9        1.0  0.58528  0.61502  0.03776  1.0000
  H   H10       1.0  0.80716  0.58484  0.11838999999999997  1.0000
  H   H11       1.0  0.52594  0.24440999999999996  0.48334  1.0000
  H   H12       1.0  0.47380000000000005  0.34160999999999997  0.51331  1.0000
  H   H13       1.0  0.8690299999999996  0.3390199999999999  0.52084  1.0000
  H   H14       1.0  0.76539  0.26323999999999986  0.41099  1.0000
  H   H15       1.0  0.2840399999999998  0.9119599999999998  0.7039799999999998  1.0000
  H   H16       1.0  0.5314499999999998  0.006539999999999906  0.8569599999999998  1.0000
  H   H17       1.0  0.51603  0.88896  0.00082  1.0000
  H   H18       1.0  0.56421  0.38312  0.87056  1.0000
  H   H19       1.0  0.4233499999999999  0.3953399999999999  0.96729  1.0000
  H   H20       1.0  0.19397999999999985  0.4166299999999999  0.8851299999999998  1.0000
  C   C1        1.0  0.85222  0.25149999999999995  0.23838999999999996  1.0000
  C   C2        1.0  0.7155300000000001  0.13442  0.23439  1.0000
  C   C3        1.0  0.57923  0.08191999999999999  0.14935  1.0000
  C   C4        1.0  0.58731  0.14533999999999994  0.07014  1.0000
  C   C5        1.0  0.73  0.25816  0.07891  1.0000
  C   C6        1.0  0.9977099999999999  0.31472  0.32973  1.0000
  C   C7        1.0  0.7487300000000001  0.32259999999999994  0.9936  1.0000
  C   C8        1.0  0.58148  0.59365  0.26262  1.0000
  C   C9        1.0  0.53349  0.6046299999999999  0.16514  1.0000
  C   C10       1.0  0.61366  0.5993899999999998  0.11219  1.0000
  C   C11       1.0  0.73898  0.58342  0.15697999999999995  1.0000
  C   C12       1.0  0.78137  0.57533  0.25535  1.0000
  C   C13       1.0  0.51415  0.61195  0.3291799999999999  1.0000
  C   C14       1.0  0.9282599999999999  0.58151  0.3155  1.0000
  C   C15       1.0  0.14933999999999997  0.7483  0.76338  1.0000
  C   C16       1.0  0.2869099999999998  0.8632399999999999  0.76665  1.0000
  C   C17       1.0  0.4233799999999999  0.9153799999999999  0.85153  1.0000
  C   C18       1.0  0.41562000000000016  0.85271  0.93116  1.0000
  C   C19       1.0  0.2719400000000001  0.74195  0.92284  1.0000
  C   C20       1.0  0.003230000000000055  0.68568  0.67238  1.0000
  C   C21       1.0  0.25193  0.67824  0.00815  1.0000
  C   C22       1.0  0.41957  0.40831  0.74034  1.0000
  C   C23       1.0  0.4703899999999998  0.4010399999999999  0.8385699999999998  1.0000
  C   C24       1.0  0.3906399999999999  0.40668999999999994  0.8917799999999998  1.0000
  C   C25       1.0  0.2624399999999999  0.41835999999999995  0.84665  1.0000
  C   C26       1.0  0.21823000000000004  0.42443  0.7478  1.0000
  C   C27       1.0  0.48580999999999996  0.3892499999999999  0.67297  1.0000
  C   C28       1.0  0.07126  0.41872999999999994  0.68815  1.0000
  N   N1        1.0  0.85945  0.31453  0.16261999999999996  1.0000
  N   N2        1.0  0.70258  0.57788  0.30634  1.0000
  N   N3        1.0  0.1415199999999999  0.6869999999999998  0.83983  1.0000
  N   N4        1.0  0.29686  0.42198  0.69668  1.0000
  O   O1        1.0  0.12232999999999992  0.42298999999999987  0.33462  1.0000
  O   O2        1.0  0.99061  0.26445  0.40651  1.0000
  O   O3        1.0  0.8736200000000001  0.44250999999999996  0.01439  1.0000
  O   O4        1.0  0.35005  0.741  0.09417999999999997  1.0000
  O   O5        1.0  0.94818  0.56671  0.40583  1.0000
  O   O6        1.0  0.02515000000000006  0.60522  0.28197  1.0000
  O   O7        1.0  0.58126  0.60685  0.42045  1.0000
  O   O8        1.0  0.4081799999999998  0.6358599999999998  0.29998  1.0000
  O   O9        1.0  0.16789999999999997  0.37849999999999995  0.12989  1.0000
  O   O10       1.0  0.19542999999999996  0.08071  0.11134999999999998  1.0000
  O   O11       1.0  0.01992999999999997  0.86481  0.22258999999999998  1.0000
  O   O12       1.0  0.07478  0.17562  0.23149  1.0000
  O   O13       1.0  0.73316  0.90271  0.11817  1.0000
  O   O14       1.0  0.09852000000000001  0.73748  0.12412  1.0000
  O   O15       1.0  0.8145899999999999  0.74701  0.01114  1.0000
  O   O16       1.0  0.13604999999999998  0.8837  0.9854399999999998  1.0000
  O   O17       1.0  0.47897999999999985  0.6739899999999998  0.53128  1.0000
  O   O18       1.0  0.23604999999999995  0.6951999999999999  0.53353  1.0000
  O   O19       1.0  0.87841  0.57894  0.66855  1.0000
  O   O20       1.0  0.010109999999999859  0.7351699999999999  0.5953099999999998  1.0000
  O   O21       1.0  0.12787999999999983  0.5575299999999999  0.98682  1.0000
  O   O22       1.0  0.64862  0.2622099999999999  0.9075799999999999  1.0000
  O   O23       1.0  0.050240000000000035  0.43244  0.59761  1.0000
  O   O24       1.0  0.97633  0.39752  0.72292  1.0000
  O   O25       1.0  0.41791  0.39383  0.58172  1.0000
  O   O26       1.0  0.5915399999999998  0.3650599999999999  0.70138  1.0000
  O   O27       1.0  0.82358  0.6226499999999999  0.86642  1.0000
  O   O28       1.0  0.80272  0.918  0.8783099999999998  1.0000
  O   O29       1.0  0.9813299999999997  0.13097999999999993  0.7806499999999997  1.0000
  O   O30       1.0  0.93907  0.82918  0.77309  1.0000
  O   O31       1.0  0.28633  0.10904999999999995  0.87626  1.0000
  O   O32       1.0  0.8858000000000003  0.25146  0.87059  1.0000
  O   O33       1.0  0.17551999999999984  0.2381199999999999  0.9908199999999998  1.0000
  O   O34       1.0  0.86223  0.13137  0.021629999999999993  1.0000
  O   O35       1.0  0.5190100000000001  0.32477  0.46985  1.0000
  O   O36       1.0  0.7626  0.3037  0.46706  1.0000
