data_image0
_chemical_formula_structural       Co4H16C48N4O12F16
_chemical_formula_sum              "Co4 H16 C48 N4 O12 F16"
_cell_length_a       6.6118
_cell_length_b       8.967800000000002
_cell_length_c       26.19763
_cell_angle_alpha    90.02246
_cell_angle_beta     89.99908
_cell_angle_gamma    89.94477

_space_group_name_H-M_alt    "P 1"
_space_group_IT_number       1

loop_
  _space_group_symop_operation_xyz
  'x, y, z'

loop_
  _atom_site_type_symbol
  _atom_site_label
  _atom_site_symmetry_multiplicity
  _atom_site_fract_x
  _atom_site_fract_y
  _atom_site_fract_z
  _atom_site_occupancy
  Co  Co1       1.0  0.9993899999999999  0.99434  0.71635  1.0000
  Co  Co2       1.0  0.50358  0.9951100000000002  0.7837899999999999  1.0000
  Co  Co3       1.0  0.99993  0.00545  0.28373999999999994  1.0000
  Co  Co4       1.0  0.5012199999999999  0.99426  0.21617  1.0000
  H   H1        1.0  0.74392  0.8686  0.6323099999999998  1.0000
  H   H2        1.0  0.73117  0.86242  0.5385099999999999  1.0000
  H   H3        1.0  0.24471999999999994  0.13536  0.86768  1.0000
  H   H4        1.0  0.22905999999999996  0.1373  0.9617199999999998  1.0000
  H   H5        1.0  0.75679  0.86851  0.8677999999999998  1.0000
  H   H6        1.0  0.76895  0.86232  0.96164  1.0000
  H   H7        1.0  0.25551  0.13522  0.63222  1.0000
  H   H8        1.0  0.27042  0.13713  0.53821  1.0000
  H   H9        1.0  0.25608  0.13128  0.36762  1.0000
  H   H10       1.0  0.26887  0.13764  0.46146999999999994  1.0000
  H   H11       1.0  0.7563  0.86852  0.13230999999999998  1.0000
  H   H12       1.0  0.7688199999999998  0.86227  0.03843  1.0000
  H   H13       1.0  0.24417999999999998  0.13538  0.13223  1.0000
  H   H14       1.0  0.22897  0.13727  0.038239999999999996  1.0000
  H   H15       1.0  0.7444799999999999  0.86477  0.36786  1.0000
  H   H16       1.0  0.72958  0.86291  0.46181999999999995  1.0000
  C   C1        1.0  0.76177  0.49075  0.79576  1.0000
  C   C2        1.0  0.76461  0.33589  0.79564  1.0000
  C   C3        1.0  0.85584  0.92853  0.60992  1.0000
  C   C4        1.0  0.8514899999999997  0.92514  0.55683  1.0000
  C   C5        1.0  0.25871  0.50687  0.70482  1.0000
  C   C6        1.0  0.2621899999999999  0.6617  0.70458  1.0000
  C   C7        1.0  0.3567  0.07547  0.8901499999999999  1.0000
  C   C8        1.0  0.3505199999999999  0.07604  0.9432599999999998  1.0000
  C   C9        1.0  0.7425799999999999  0.49219000000000007  0.7047299999999997  1.0000
  C   C10       1.0  0.73743  0.33771  0.7044799999999998  1.0000
  C   C11       1.0  0.64462  0.9284199999999999  0.8902  1.0000
  C   C12       1.0  0.64844  0.92492  0.9432899999999997  1.0000
  C   C13       1.0  0.23895  0.50852  0.7956299999999998  1.0000
  C   C14       1.0  0.23654  0.6637  0.79561  1.0000
  C   C15       1.0  0.14339  0.07543  0.6098199999999999  1.0000
  C   C16       1.0  0.14902999999999997  0.07609  0.55669  1.0000
  C   C17       1.0  0.23864  0.50892  0.20436  1.0000
  C   C18       1.0  0.23469  0.66381  0.20469  1.0000
  C   C19       1.0  0.14433  0.07134  0.39006  1.0000
  C   C20       1.0  0.14856  0.0749  0.44316  1.0000
  C   C21       1.0  0.74458  0.49075  0.29556  1.0000
  C   C22       1.0  0.73719  0.33584  0.29551  1.0000
  C   C23       1.0  0.64431  0.9285400000000001  0.10985999999999997  1.0000
  C   C24       1.0  0.6483999999999998  0.9250100000000001  0.056759999999999984  1.0000
  C   C25       1.0  0.25899999999999995  0.50727  0.29527  1.0000
  C   C26       1.0  0.2613599999999999  0.66189  0.29563  1.0000
  C   C27       1.0  0.35642  0.07557  0.10981999999999999  1.0000
  C   C28       1.0  0.3504999999999999  0.07612  0.05670999999999999  1.0000
  C   C29       1.0  0.7609399999999997  0.49108  0.20436  1.0000
  C   C30       1.0  0.7634999999999997  0.33601  0.20413  1.0000
  C   C31       1.0  0.8567  0.92447  0.3902299999999999  1.0000
  C   C32       1.0  0.85101  0.9239599999999999  0.44334  1.0000
  C   C33       1.0  9e-05  0.0004099999999999998  0.5282899999999999  1.0000
  C   C34       1.0  0.49937  0.0003199999999999997  0.9717199999999999  1.0000
  C   C35       1.0  0.99998  0.9996299999999999  0.47171999999999986  1.0000
  C   C36       1.0  0.4992499999999999  0.00027  0.028289999999999996  1.0000
  C   C37       1.0  0.7521199999999999  0.73913  0.75031  1.0000
  C   C38       1.0  0.75184  0.57358  0.75034  1.0000
  C   C39       1.0  0.7492699999999999  0.25405  0.7498599999999999  1.0000
  C   C40       1.0  0.24888  0.2576  0.7503599999999998  1.0000
  C   C41       1.0  0.24912  0.42485  0.7503  1.0000
  C   C42       1.0  0.25106  0.74594  0.7498999999999999  1.0000
  C   C43       1.0  0.25208  0.25909  0.24924999999999994  1.0000
  C   C44       1.0  0.2503  0.4256  0.24961999999999998  1.0000
  C   C45       1.0  0.2492  0.74589  0.2504  1.0000
  C   C46       1.0  0.75324  0.74001  0.25025  1.0000
  C   C47       1.0  0.75224  0.57333  0.2500299999999999  1.0000
  C   C48       1.0  0.7486499999999998  0.25358  0.24976  1.0000
  N   N1        1.0  0.99872  0.0033000000000000004  0.63656  1.0000
  N   N2        1.0  0.502  0.00343  0.8635199999999997  1.0000
  N   N3        1.0  0.0015599999999999993  0.99633  0.36344999999999994  1.0000
  N   N4        1.0  0.50139  0.00332  0.1365  1.0000
  O   O1        1.0  0.8493599999999998  0.80461  0.7148  1.0000
  O   O2        1.0  0.35481999999999997  0.19347  0.7843999999999998  1.0000
  O   O3        1.0  0.65451  0.805  0.7856099999999998  1.0000
  O   O4        1.0  0.14205  0.1937  0.71631  1.0000
  O   O5        1.0  0.15053  0.19476  0.28439  1.0000
  O   O6        1.0  0.65298  0.80451  0.21489  1.0000
  O   O7        1.0  0.3538399999999999  0.19407  0.21476  1.0000
  O   O8        1.0  0.8529199999999998  0.80579  0.28508  1.0000
  O   O9        1.0  0.74823  0.10449  0.74979  1.0000
  O   O10       1.0  0.25236  0.89624  0.7498199999999998  1.0000
  O   O11       1.0  0.25058  0.89575  0.25065  1.0000
  O   O12       1.0  0.74721  0.10379  0.24966  1.0000
  F   F1        1.0  0.77782  0.56259  0.8410699999999998  1.0000
  F   F2        1.0  0.7775599999999999  0.25988  0.8405299999999999  1.0000
  F   F3        1.0  0.27354  0.4369  0.6591099999999999  1.0000
  F   F4        1.0  0.27328  0.7332  0.65895  1.0000
  F   F5        1.0  0.72875  0.56307  0.6591499999999999  1.0000
  F   F6        1.0  0.7270999999999997  0.26628  0.6589599999999998  1.0000
  F   F7        1.0  0.22217  0.43726  0.8410399999999998  1.0000
  F   F8        1.0  0.22193999999999994  0.73998  0.84055  1.0000
  F   F9        1.0  0.22219999999999995  0.43741  0.15896  1.0000
  F   F10       1.0  0.22229  0.74039  0.15984999999999994  1.0000
  F   F11       1.0  0.73767  0.56263  0.34102  1.0000
  F   F12       1.0  0.7266699999999998  0.25988  0.34051  1.0000
  F   F13       1.0  0.27352  0.43687  0.34092  1.0000
  F   F14       1.0  0.27314  0.73374  0.34105  1.0000
  F   F15       1.0  0.7776899999999998  0.56273  0.15902999999999998  1.0000
  F   F16       1.0  0.7777999999999999  0.25992  0.15928  1.0000
