data_image0
_chemical_formula_structural       Ce4H32C64N4O24
_chemical_formula_sum              "Ce4 H32 C64 N4 O24"
_cell_length_a       13.13014
_cell_length_b       14.99826
_cell_length_c       16.21854
_cell_angle_alpha    117.27933
_cell_angle_beta     96.96202
_cell_angle_gamma    89.84468

_symmetry_space_group_name_H-M    'P 1'
_symmetry_Int_Tables_number       1

loop_
  _symmetry_equiv_pos_as_xyz
  'x,y,z'

loop_
  _atom_site_type_symbol
  _atom_site_label
  _atom_site_symmetry_multiplicity
  _atom_site_fract_x
  _atom_site_fract_y
  _atom_site_fract_z
  _atom_site_occupancy
  Ce  Ce1       1.0  0.027280000000000002  0.5292700000000002  0.63084  1.0000
  Ce  Ce2       1.0  0.4708  0.9006  0.36923  1.0000
  Ce  Ce3       1.0  0.97271  0.4707299999999999  0.36916  1.0000
  Ce  Ce4       1.0  0.52919  0.09939000000000006  0.63076  1.0000
  H   H1        1.0  0.9363  0.61479  0.93734  1.0000
  H   H2        1.0  0.87407  0.7265  0.09006  1.0000
  H   H3        1.0  0.89107  0.97695  0.030010000000000002  1.0000
  H   H4        1.0  0.95407  0.8644200000000002  0.87693  1.0000
  H   H5        1.0  0.7271899999999999  0.9676800000000004  0.29385000000000006  1.0000
  H   H6        1.0  0.93107  0.20168000000000008  0.31104  1.0000
  H   H7        1.0  0.80559  0.23325  0.55699  1.0000
  H   H8        1.0  0.84781  0.8852000000000002  0.20736  1.0000
  H   H9        1.0  0.56347  0.6787400000000002  0.06479  1.0000
  H   H10       1.0  0.6259  0.6362100000000003  0.91142  1.0000
  H   H11       1.0  0.61066  0.9455600000000002  0.96831  1.0000
  H   H12       1.0  0.54718  0.9873  0.12194  1.0000
  H   H13       1.0  0.77497  0.6724200000000002  0.70545  1.0000
  H   H14       1.0  0.56931  0.8894100000000003  0.68857  1.0000
  H   H15       1.0  0.69322  0.67602  0.44198000000000004  1.0000
  H   H16       1.0  0.65294  0.67675  0.79324  1.0000
  H   H17       1.0  0.0637  0.3852100000000001  0.06266  1.0000
  H   H18       1.0  0.12592  0.2735  0.90994  1.0000
  H   H19       1.0  0.10892  0.023049999999999952  0.96998  1.0000
  H   H20       1.0  0.04593  0.13557  0.12307  1.0000
  H   H21       1.0  0.27281  0.032320000000000036  0.70614  1.0000
  H   H22       1.0  0.06893  0.79832  0.68895  1.0000
  H   H23       1.0  0.1944  0.76674  0.443  1.0000
  H   H24       1.0  0.15219000000000005  0.11479999999999999  0.79264  1.0000
  H   H25       1.0  0.43653  0.3212600000000001  0.93521  1.0000
  H   H26       1.0  0.37408999999999987  0.3637900000000001  0.08858000000000003  1.0000
  H   H27       1.0  0.38934  0.054440000000000016  0.03168  1.0000
  H   H28       1.0  0.45282  0.012700000000000091  0.8780600000000001  1.0000
  H   H29       1.0  0.22502000000000005  0.32758000000000015  0.2945400000000001  1.0000
  H   H30       1.0  0.43069  0.11059000000000005  0.31142000000000003  1.0000
  H   H31       1.0  0.30677  0.3239700000000001  0.55802  1.0000
  H   H32       1.0  0.34706  0.32325  0.20676  1.0000
  C   C1        1.0  0.99432  0.6674400000000003  0.81293  1.0000
  C   C2        1.0  0.95057  0.73371  0.89978  1.0000
  C   C3        1.0  0.92584  0.69398  0.95865  1.0000
  C   C4        1.0  0.8915  0.7564900000000002  0.04329  1.0000
  C   C5        1.0  0.8814399999999999  0.8593900000000002  0.07051  1.0000
  C   C6        1.0  0.90131  0.89773  0.00885  1.0000
  C   C7        1.0  0.9360599999999999  0.83547  0.92433  1.0000
  C   C8        1.0  0.85747  0.9238600000000002  0.1649  1.0000
  C   C9        1.0  0.68848  0.05488000000000002  0.47123  1.0000
  C   C10       1.0  0.75926  0.09578000000000002  0.42959  1.0000
  C   C11       1.0  0.77061  0.03946000000000009  0.3346800000000001  1.0000
  C   C12       1.0  0.83552  0.07555  0.29239  1.0000
  C   C13       1.0  0.88411  0.17229  0.34509  1.0000
  C   C14       1.0  0.8741999999999999  0.22771000000000002  0.44033  1.0000
  C   C15       1.0  0.81278  0.18935000000000005  0.48316  1.0000
  C   C16       1.0  0.9286999999999999  0.32815  0.49794  1.0000
  C   C17       1.0  0.50541  0.8561700000000002  0.18733000000000002  1.0000
  C   C18       1.0  0.54972  0.83457  0.10044  1.0000
  C   C19       1.0  0.57418  0.73593  0.04254  1.0000
  C   C20       1.0  0.60886  0.71299  0.95775  1.0000
  C   C21       1.0  0.61969  0.7881100000000002  0.92973  1.0000
  C   C22       1.0  0.60006  0.8881  0.99036  1.0000
  C   C23       1.0  0.56493  0.9110300000000002  0.07495  1.0000
  C   C24       1.0  0.64399  0.75773  0.8353100000000002  1.0000
  C   C25       1.0  0.81275  0.58451  0.52769  1.0000
  C   C26       1.0  0.7414399999999999  0.6659900000000002  0.56972  1.0000
  C   C27       1.0  0.7308899999999998  0.70377  0.66479  1.0000
  C   C28       1.0  0.66601  0.7819900000000001  0.7073100000000001  1.0000
  C   C29       1.0  0.61629  0.82612  0.6545100000000001  1.0000
  C   C30       1.0  0.62485  0.7863  0.55895  1.0000
  C   C31       1.0  0.6866299999999997  0.70573  0.51598  1.0000
  C   C32       1.0  0.56892  0.82894  0.50125  1.0000
  C   C33       1.0  0.0056799999999999976  0.33255  0.18707  1.0000
  C   C34       1.0  0.04942  0.26629  0.10022  1.0000
  C   C35       1.0  0.07415  0.30602  0.04135  1.0000
  C   C36       1.0  0.1085  0.24351000000000006  0.95671  1.0000
  C   C37       1.0  0.11855999999999998  0.14060000000000003  0.92949  1.0000
  C   C38       1.0  0.09868999999999999  0.10226999999999996  0.99114  1.0000
  C   C39       1.0  0.06394  0.16453000000000007  0.07566  1.0000
  C   C40       1.0  0.14252  0.07614  0.8351  1.0000
  C   C41       1.0  0.31151  0.9451200000000001  0.52876  1.0000
  C   C42       1.0  0.24073999999999998  0.90422  0.5704100000000001  1.0000
  C   C43       1.0  0.22938999999999998  0.9605400000000001  0.66531  1.0000
  C   C44       1.0  0.16447  0.92445  0.7076  1.0000
  C   C45       1.0  0.11588  0.82771  0.65491  1.0000
  C   C46       1.0  0.1258  0.77229  0.55967  1.0000
  C   C47       1.0  0.18720999999999996  0.81064  0.51683  1.0000
  C   C48       1.0  0.0713  0.67185  0.50206  1.0000
  C   C49       1.0  0.4945800000000001  0.14382000000000006  0.8126700000000002  1.0000
  C   C50       1.0  0.45027  0.16543000000000005  0.89956  1.0000
  C   C51       1.0  0.42582  0.26407  0.95745  1.0000
  C   C52       1.0  0.39113  0.28701  0.04224  1.0000
  C   C53       1.0  0.38031  0.21189000000000005  0.07026  1.0000
  C   C54       1.0  0.39994  0.11189000000000003  0.00964  1.0000
  C   C55       1.0  0.43506  0.08895999999999996  0.92505  1.0000
  C   C56       1.0  0.35601  0.24226999999999999  0.16469  1.0000
  C   C57       1.0  0.18725  0.41548  0.4723  1.0000
  C   C58       1.0  0.25856  0.33401  0.43028  1.0000
  C   C59       1.0  0.2691  0.2962200000000001  0.3352  1.0000
  C   C60       1.0  0.33398  0.21801  0.29269  1.0000
  C   C61       1.0  0.38371  0.17388  0.34549  1.0000
  C   C62       1.0  0.3751399999999999  0.21370000000000006  0.44105  1.0000
  C   C63       1.0  0.31337  0.2942600000000001  0.48402  1.0000
  C   C64       1.0  0.43107000000000006  0.17105000000000015  0.4987400000000001  1.0000
  N   N1        1.0  0.8544  0.020229999999999995  0.1991  1.0000
  N   N2        1.0  0.64779  0.8197700000000002  0.80074  1.0000
  N   N3        1.0  0.14560000000000003  0.9797700000000005  0.8009  1.0000
  N   N4        1.0  0.35221  0.18023000000000008  0.19926000000000005  1.0000
  O   O1        1.0  0.019969999999999998  0.70223  0.75881  1.0000
  O   O2        1.0  0.00457000000000001  0.57408  0.79159  1.0000
  O   O3        1.0  0.67691  0.10632999999999994  0.55775  1.0000
  O   O4        1.0  0.64175  0.9693100000000002  0.41692  1.0000
  O   O5        1.0  0.94417  0.36481  0.58671  1.0000
  O   O6        1.0  0.9600799999999998  0.37749  0.45705  1.0000
  O   O7        1.0  0.48040999999999995  0.9453000000000005  0.24083000000000002  1.0000
  O   O8        1.0  0.49412  0.7846000000000002  0.20926  1.0000
  O   O9        1.0  0.8265  0.5530800000000002  0.44206  1.0000
  O   O10       1.0  0.85791  0.55043  0.58082  1.0000
  O   O11       1.0  0.55083  0.7768  0.41278  1.0000
  O   O12       1.0  0.53924  0.91968  0.54208  1.0000
  O   O13       1.0  0.98002  0.29776  0.24119  1.0000
  O   O14       1.0  0.9954299999999999  0.42592  0.20841  1.0000
  O   O15       1.0  0.32309  0.8936600000000002  0.44224  1.0000
  O   O16       1.0  0.35823999999999995  0.030690000000000037  0.58308  1.0000
  O   O17       1.0  0.055829999999999984  0.63519  0.41329  1.0000
  O   O18       1.0  0.03992000000000001  0.6225100000000002  0.54294  1.0000
  O   O19       1.0  0.51959  0.0547  0.75917  1.0000
  O   O20       1.0  0.5058799999999998  0.2154  0.79074  1.0000
  O   O21       1.0  0.17349  0.4469200000000002  0.55794  1.0000
  O   O22       1.0  0.14208  0.44957  0.41918  1.0000
  O   O23       1.0  0.44916  0.22320000000000007  0.58722  1.0000
  O   O24       1.0  0.46076  0.08031  0.45792  1.0000
