data_image0
_chemical_formula_structural       Zn4H44C48N12O8
_chemical_formula_sum              "Zn4 H44 C48 N12 O8"
_cell_length_a       9.54394
_cell_length_b       9.816919999999998
_cell_length_c       20.34242
_cell_angle_alpha    101.87049
_cell_angle_beta     103.38673
_cell_angle_gamma    90.11165

_symmetry_space_group_name_H-M    'P 1'
_symmetry_Int_Tables_number       1

loop_
  _symmetry_equiv_pos_as_xyz
  'x,y,z'

loop_
  _atom_site_type_symbol
  _atom_site_label
  _atom_site_symmetry_multiplicity
  _atom_site_fract_x
  _atom_site_fract_y
  _atom_site_fract_z
  _atom_site_occupancy
  Zn  Zn1       1.0  0.5247  0.08649000000000001  0.42961  1.0000
  Zn  Zn2       1.0  0.09446000000000002  0.41187  0.56933  1.0000
  Zn  Zn3       1.0  0.47531  0.9135200000000001  0.57039  1.0000
  Zn  Zn4       1.0  0.9055400000000001  0.58814  0.43067  1.0000
  H   H1        1.0  0.41805000000000003  0.15958  0.22265  1.0000
  H   H2        1.0  0.07705  0.8777200000000001  0.22609  1.0000
  H   H3        1.0  0.96055  0.88248  0.1047  1.0000
  H   H4        1.0  0.3045  0.16443000000000002  0.10077  1.0000
  H   H5        1.0  0.1258  0.0982  0.0006  1.0000
  H   H6        1.0  0.15755  0.07138999999999998  0.63131  1.0000
  H   H7        1.0  0.24542000000000003  0.23134000000000002  0.68006  1.0000
  H   H8        1.0  0.34476  0.07562  0.67154  1.0000
  H   H9        1.0  0.35024999999999995  0.452  0.46937999999999996  1.0000
  H   H10       1.0  0.18444  0.36286  0.42314  1.0000
  H   H11       1.0  0.34584000000000004  0.3006  0.4029  1.0000
  H   H12       1.0  0.19435  0.34082  0.77655  1.0000
  H   H13       1.0  0.8507600000000001  0.62218  0.77428  1.0000
  H   H14       1.0  0.85592  0.6175199999999998  0.8959199999999999  1.0000
  H   H15       1.0  0.20294  0.3361700000000001  0.8987499999999999  1.0000
  H   H16       1.0  0.12504999999999994  0.40214999999999995  0.9991199999999999  1.0000
  H   H17       1.0  0.52763  0.42911  0.36898  1.0000
  H   H18       1.0  0.56609  0.26962  0.31973  1.0000
  H   H19       1.0  0.6751  0.42503  0.32871  1.0000
  H   H20       1.0  0.87994  0.046470000000000025  0.52973  1.0000
  H   H21       1.0  0.7603299999999998  0.13548  0.5762199999999998  1.0000
  H   H22       1.0  0.94181  0.19748000000000004  0.59643  1.0000
  H   H23       1.0  0.58196  0.8404300000000001  0.7773499999999999  1.0000
  H   H24       1.0  0.92295  0.12228999999999998  0.77391  1.0000
  H   H25       1.0  0.039450000000000034  0.11753  0.8953  1.0000
  H   H26       1.0  0.6954999999999999  0.83558  0.89923  1.0000
  H   H27       1.0  0.8742000000000001  0.90181  0.9994  1.0000
  H   H28       1.0  0.8424500000000001  0.92862  0.36869  1.0000
  H   H29       1.0  0.75459  0.7686700000000001  0.31994  1.0000
  H   H30       1.0  0.65524  0.9243900000000002  0.32846  1.0000
  H   H31       1.0  0.64975  0.54801  0.53062  1.0000
  H   H32       1.0  0.81556  0.63715  0.57686  1.0000
  H   H33       1.0  0.65416  0.6994100000000001  0.5971  1.0000
  H   H34       1.0  0.80565  0.6591900000000002  0.22345  1.0000
  H   H35       1.0  0.14924  0.37783  0.22571999999999998  1.0000
  H   H36       1.0  0.14409  0.38249  0.10408  1.0000
  H   H37       1.0  0.79707  0.6638400000000001  0.10125  1.0000
  H   H38       1.0  0.8749500000000001  0.59786  0.00088  1.0000
  H   H39       1.0  0.47237000000000007  0.5709  0.63102  1.0000
  H   H40       1.0  0.43391  0.73039  0.68027  1.0000
  H   H41       1.0  0.3249  0.57498  0.67129  1.0000
  H   H42       1.0  0.12006  0.95354  0.47026999999999997  1.0000
  H   H43       1.0  0.23967  0.8645300000000001  0.42378  1.0000
  H   H44       1.0  0.0582  0.8025300000000001  0.40357  1.0000
  C   C1        1.0  0.32164000000000004  0.01492999999999999  0.30625  1.0000
  C   C2        1.0  0.25409  0.019430000000000006  0.23268  1.0000
  C   C3        1.0  0.31748  0.09984  0.1966  1.0000
  C   C4        1.0  0.12474  0.94142  0.1982  1.0000
  C   C5        1.0  0.06028  0.94441  0.12985  1.0000
  C   C6        1.0  0.25314  0.10229000000000002  0.12811  1.0000
  C   C7        1.0  0.1228  0.02512  0.09292  1.0000
  C   C8        1.0  0.06188  0.0325  0.02109  1.0000
  C   C9        1.0  0.29837  0.16618  0.58308  1.0000
  C   C10       1.0  0.25976  0.13416000000000003  0.64513  1.0000
  C   C11       1.0  0.31502  0.258  0.49685  1.0000
  C   C12       1.0  0.29794  0.34799  0.44574  1.0000
  C   C13       1.0  0.014970000000000027  0.4854200000000001  0.69352  1.0000
  C   C14       1.0  0.021190000000000004  0.48113000000000006  0.76723  1.0000
  C   C15       1.0  0.12030999999999999  0.40063  0.80296  1.0000
  C   C16       1.0  0.92639  0.5588199999999999  0.8020099999999999  1.0000
  C   C17       1.0  0.9301900000000001  0.5557000000000001  0.8704  1.0000
  C   C18       1.0  0.12440999999999999  0.39803000000000005  0.87148  1.0000
  C   C19       1.0  0.02948999999999988  0.47502000000000005  0.9069599999999999  1.0000
  C   C20       1.0  0.040700000000000035  0.46757000000000004  0.97881  1.0000
  C   C21       1.0  0.7157  0.33352  0.4168299999999999  1.0000
  C   C22       1.0  0.61578  0.36628  0.35498  1.0000
  C   C23       1.0  0.81798  0.24076  0.50261  1.0000
  C   C24       1.0  0.8514400000000001  0.15037  0.55353  1.0000
  C   C25       1.0  0.67836  0.98508  0.69375  1.0000
  C   C26       1.0  0.74591  0.9805800000000001  0.76732  1.0000
  C   C27       1.0  0.6825300000000001  0.90017  0.8034  1.0000
  C   C28       1.0  0.87526  0.05858999999999998  0.8018  1.0000
  C   C29       1.0  0.9397200000000001  0.05559999999999996  0.8701499999999999  1.0000
  C   C30       1.0  0.74686  0.8977200000000001  0.87189  1.0000
  C   C31       1.0  0.87721  0.97489  0.90708  1.0000
  C   C32       1.0  0.93813  0.9675100000000001  0.97891  1.0000
  C   C33       1.0  0.7016299999999999  0.83383  0.41691999999999996  1.0000
  C   C34       1.0  0.74024  0.86585  0.35487  1.0000
  C   C35       1.0  0.68499  0.74201  0.50315  1.0000
  C   C36       1.0  0.70207  0.65202  0.55426  1.0000
  C   C37       1.0  0.9850300000000001  0.51459  0.30648  1.0000
  C   C38       1.0  0.97882  0.51889  0.23277  1.0000
  C   C39       1.0  0.8797  0.59938  0.19704  1.0000
  C   C40       1.0  0.07361  0.44119  0.19799  1.0000
  C   C41       1.0  0.06981  0.44431000000000004  0.1296  1.0000
  C   C42       1.0  0.87559  0.60198  0.12852  1.0000
  C   C43       1.0  0.9705099999999999  0.52499  0.09304  1.0000
  C   C44       1.0  0.9593  0.53244  0.021189999999999997  1.0000
  C   C45       1.0  0.2843  0.6664900000000001  0.58317  1.0000
  C   C46       1.0  0.38422  0.63373  0.64502  1.0000
  C   C47       1.0  0.18201999999999993  0.7592500000000001  0.49738999999999994  1.0000
  C   C48       1.0  0.14856999999999995  0.84964  0.44647  1.0000
  N   N1        1.0  0.40324  0.15257999999999997  0.49734  1.0000
  N   N2        1.0  0.39252  0.09403  0.55204  1.0000
  N   N3        1.0  0.24692000000000003  0.26972  0.54968  1.0000
  N   N4        1.0  0.90559  0.34680000000000005  0.50231  1.0000
  N   N5        1.0  0.84052  0.40610000000000007  0.44799  1.0000
  N   N6        1.0  0.69751  0.22916000000000003  0.44986999999999994  1.0000
  N   N7        1.0  0.59677  0.8474300000000001  0.50266  1.0000
  N   N8        1.0  0.60749  0.90598  0.44795999999999997  1.0000
  N   N9        1.0  0.7530800000000002  0.7302900000000001  0.45032  1.0000
  N   N10       1.0  0.09440999999999997  0.6532099999999998  0.49768999999999997  1.0000
  N   N11       1.0  0.15949  0.59391  0.55201  1.0000
  N   N12       1.0  0.3025  0.77085  0.55013  1.0000
  O   O1        1.0  0.44529  0.08768000000000002  0.33267  1.0000
  O   O2        1.0  0.26358  0.9473700000000002  0.3392  1.0000
  O   O3        1.0  0.11201999999999993  0.41293999999999986  0.6668299999999999  1.0000
  O   O4        1.0  0.9236300000000001  0.55243  0.66077  1.0000
  O   O5        1.0  0.55471  0.91233  0.66733  1.0000
  O   O6        1.0  0.73643  0.05264000000000001  0.6608  1.0000
  O   O7        1.0  0.8879800000000001  0.58707  0.33317  1.0000
  O   O8        1.0  0.07637999999999998  0.44758  0.33923  1.0000
