data_image0
_chemical_formula_structural       U4H24C48Cl4O24
_chemical_formula_sum              "U4 H24 C48 Cl4 O24"
_cell_length_a       10.07694
_cell_length_b       9.95257
_cell_length_c       24.41115
_cell_angle_alpha    95.5277
_cell_angle_beta     89.97228
_cell_angle_gamma    120.42403

_symmetry_space_group_name_H-M    'P 1'
_symmetry_Int_Tables_number       1

loop_
  _symmetry_equiv_pos_as_xyz
  'x,y,z'

loop_
  _atom_site_type_symbol
  _atom_site_label
  _atom_site_symmetry_multiplicity
  _atom_site_fract_x
  _atom_site_fract_y
  _atom_site_fract_z
  _atom_site_occupancy
  U   U1        1.0  0.031610000000000006  0.85536  0.14695  1.0000
  U   U2        1.0  0.16734  0.14329  0.35355  1.0000
  U   U3        1.0  0.97741  0.14336  0.85367  1.0000
  U   U4        1.0  0.8260500000000001  0.8574000000000003  0.64651  1.0000
  H   H1        1.0  0.48589999999999994  0.58752  0.09811  1.0000
  H   H2        1.0  0.40393  0.76855  0.05167  1.0000
  H   H3        1.0  0.6939899999999999  0.93255  0.16301  1.0000
  H   H4        1.0  0.44678999999999996  0.93412  0.16275  1.0000
  H   H5        1.0  0.38363  0.16845  0.01033  1.0000
  H   H6        1.0  0.7636  0.58568  0.9646900000000003  1.0000
  H   H7        1.0  0.89268  0.41477000000000014  0.40184  1.0000
  H   H8        1.0  0.63274  0.2308  0.44647  1.0000
  H   H9        1.0  0.75649  0.060750000000000005  0.33873  1.0000
  H   H10       1.0  0.5116700000000001  0.06646000000000003  0.33816000000000007  1.0000
  H   H11       1.0  0.21253  0.83025  0.48758000000000007  1.0000
  H   H12       1.0  0.17484999999999998  0.42189  0.53554  1.0000
  H   H13       1.0  0.52289  0.417  0.90269  1.0000
  H   H14       1.0  0.59842  0.23057  0.94647  1.0000
  H   H15       1.0  0.30460999999999994  0.06071000000000005  0.83902  1.0000
  H   H16       1.0  0.5556400000000001  0.0674500000000001  0.8382900000000002  1.0000
  H   H17       1.0  0.6179699999999998  0.82978  0.9875800000000002  1.0000
  H   H18       1.0  0.24532000000000007  0.42079  0.03596  1.0000
  H   H19       1.0  0.10184000000000004  0.59077  0.59685  1.0000
  H   H20       1.0  0.3648900000000001  0.7686900000000002  0.55166  1.0000
  H   H21       1.0  0.23824000000000004  0.9300399999999999  0.66341  1.0000
  H   H22       1.0  0.48739999999999994  0.9324600000000001  0.6630500000000001  1.0000
  H   H23       1.0  0.7852299999999999  0.16846000000000005  0.51018  1.0000
  H   H24       1.0  0.82143  0.5852300000000001  0.46301  1.0000
  C   C1        1.0  0.77877  0.69553  0.07008  1.0000
  C   C2        1.0  0.25763000000000014  0.9248400000000002  0.07298  1.0000
  C   C3        1.0  0.49189999999999995  0.55002  0.05527  1.0000
  C   C4        1.0  0.6367599999999999  0.59533  0.03439  1.0000
  C   C5        1.0  0.3825599999999999  0.96486  0.03449  1.0000
  C   C6        1.0  0.4480000000000002  0.8690400000000003  0.0284  1.0000
  C   C7        1.0  0.6535199999999999  0.96205  0.20101  1.0000
  C   C8        1.0  0.5160200000000001  0.9631800000000001  0.20086  1.0000
  C   C9        1.0  0.43551  0.0955  0.005  1.0000
  C   C10       1.0  0.64949  0.54805  0.97954  1.0000
  C   C11       1.0  0.07736  0.3077  0.42983  1.0000
  C   C12       1.0  0.32836000000000004  0.07635000000000003  0.42666  1.0000
  C   C13       1.0  0.93704  0.45385000000000014  0.4445600000000001  1.0000
  C   C14       1.0  0.03688000000000004  0.4090600000000001  0.46566  1.0000
  C   C15       1.0  0.41473  0.03462000000000005  0.46379000000000004  1.0000
  C   C16       1.0  0.57607  0.12995  0.4696000000000001  1.0000
  C   C17       1.0  0.6879399999999999  0.03282  0.30053  1.0000
  C   C18       1.0  0.55148  0.03608000000000002  0.30017000000000005  1.0000
  C   C19       1.0  0.33721999999999996  0.9033000000000001  0.49295  1.0000
  C   C20       1.0  0.09780999999999998  0.45837  0.52036  1.0000
  C   C21       1.0  0.23101000000000008  0.3083500000000001  0.93006  1.0000
  C   C22       1.0  0.7478199999999999  0.07589  0.92642  1.0000
  C   C23       1.0  0.51687  0.45498  0.94548  1.0000
  C   C24       1.0  0.37181000000000003  0.40950000000000003  0.9663400000000002  1.0000
  C   C25       1.0  0.61998  0.03407000000000007  0.9636800000000002  1.0000
  C   C26       1.0  0.5542700000000003  0.12978000000000012  0.9696400000000002  1.0000
  C   C27       1.0  0.34507  0.03233000000000005  0.80081  1.0000
  C   C28       1.0  0.48493000000000014  0.03591000000000001  0.80041  1.0000
  C   C29       1.0  0.5664800000000001  0.9030600000000001  0.9929600000000001  1.0000
  C   C30       1.0  0.35921  0.4576  0.02108  1.0000
  C   C31       1.0  0.91868  0.6990700000000001  0.5686  1.0000
  C   C32       1.0  0.66798  0.9261  0.57312  1.0000
  C   C33       1.0  0.058010000000000006  0.55197  0.55409  1.0000
  C   C34       1.0  0.95876  0.59727  0.53295  1.0000
  C   C35       1.0  0.58272  0.96514  0.53449  1.0000
  C   C36       1.0  0.42153  0.86919  0.52839  1.0000
  C   C37       1.0  0.3085899999999999  0.9601700000000001  0.70134  1.0000
  C   C38       1.0  0.44737  0.96157  0.70118  1.0000
  C   C39       1.0  0.66045  0.09558  0.50491  1.0000
  C   C40       1.0  0.8978899999999999  0.54809  0.47824  1.0000
  C   C41       1.0  0.88632  0.99417  0.25115  1.0000
  C   C42       1.0  0.31947999999999993  0.004870000000000002  0.24956000000000003  1.0000
  C   C43       1.0  0.7399199999999998  0.99655  0.25092  1.0000
  C   C44       1.0  0.46474  0.0010599999999999974  0.25033  1.0000
  C   C45       1.0  0.10853000000000013  0.9938600000000001  0.75117  1.0000
  C   C46       1.0  0.68599  0.0043399999999999585  0.75016  1.0000
  C   C47       1.0  0.25683999999999996  0.9953800000000002  0.75119  1.0000
  C   C48       1.0  0.5367  0.00032000000000001385  0.75063  1.0000
  Cl  Cl1       1.0  0.9391200000000002  0.6327500000000001  0.20619  1.0000
  Cl  Cl2       1.0  0.27629000000000004  0.3719700000000001  0.29682  1.0000
  Cl  Cl3       1.0  0.09552999999999998  0.37211  0.79689  1.0000
  Cl  Cl4       1.0  0.69846  0.63143  0.70438  1.0000
  O   O1        1.0  0.25044000000000005  0.9870600000000002  0.20301  1.0000
  O   O2        1.0  0.94752  0.9927600000000001  0.20541  1.0000
  O   O3        1.0  0.20731999999999998  0.80084  0.09749000000000001  1.0000
  O   O4        1.0  0.90824  0.71378  0.05585  1.0000
  O   O5        1.0  0.77261  0.76547  0.11674000000000001  1.0000
  O   O6        1.0  0.19962999999999997  0.0145  0.08313  1.0000
  O   O7        1.0  0.26693999999999996  0.026550000000000008  0.295  1.0000
  O   O8        1.0  0.94658  0.99352  0.29746000000000006  1.0000
  O   O9        1.0  0.40015  0.20152  0.40292000000000006  1.0000
  O   O10       1.0  0.19651  0.2988  0.44149  1.0000
  O   O11       1.0  0.99295  0.22781000000000004  0.38588  1.0000
  O   O12       1.0  0.18016999999999989  0.98617  0.41696  1.0000
  O   O13       1.0  0.7593999999999999  0.026629999999999997  0.79587  1.0000
  O   O14       1.0  0.047070000000000035  0.9936200000000001  0.79737  1.0000
  O   O15       1.0  0.80072  0.2009700000000001  0.9027  1.0000
  O   O16       1.0  0.10160000000000005  0.2967800000000001  0.94152  1.0000
  O   O17       1.0  0.23812999999999998  0.23121999999999998  0.88582  1.0000
  O   O18       1.0  0.80664  0.98631  0.91688  1.0000
  O   O19       1.0  0.7380800000000002  0.9860800000000001  0.70384  1.0000
  O   O20       1.0  0.046650000000000004  0.993  0.70539  1.0000
  O   O21       1.0  0.5947100000000001  0.8024700000000005  0.59781  1.0000
  O   O22       1.0  0.80527  0.7151100000000004  0.55552  1.0000
  O   O23       1.0  0.99853  0.7723500000000001  0.61433  1.0000
  O   O24       1.0  0.8157199999999999  0.016339999999999986  0.58319  1.0000
