data_image0
_chemical_formula_structural       Cs2Cd4H32C64O32
_chemical_formula_sum              "Cs2 Cd4 H32 C64 O32"
_cell_length_a       12.84516
_cell_length_b       13.98992
_cell_length_c       14.25261
_cell_angle_alpha    89.98403999999998
_cell_angle_beta     108.33761000000001
_cell_angle_gamma    89.96268

_space_group_name_H-M_alt    "P 1"
_space_group_IT_number       1

loop_
  _space_group_symop_operation_xyz
  'x, y, z'

loop_
  _atom_site_type_symbol
  _atom_site_label
  _atom_site_symmetry_multiplicity
  _atom_site_fract_x
  _atom_site_fract_y
  _atom_site_fract_z
  _atom_site_occupancy
  Cs  Cs1       1.0  0.2591399999999999  0.8823100000000001  0.24769  1.0000
  Cs  Cs2       1.0  0.74136  0.3823300000000001  0.75403  1.0000
  Cd  Cd1       1.0  0.5122  0.07979  0.25162  1.0000
  Cd  Cd2       1.0  0.9816  0.7260200000000001  0.2510200000000001  1.0000
  Cd  Cd3       1.0  0.48789  0.58006  0.7484000000000002  1.0000
  Cd  Cd4       1.0  0.02046  0.22619000000000006  0.74931  1.0000
  H   H1        1.0  0.50919  0.3499100000000001  0.03527  1.0000
  H   H2        1.0  0.79848  0.5077200000000001  0.03477  1.0000
  H   H3        1.0  0.91043  0.4127200000000001  0.1793  1.0000
  H   H4        1.0  0.8216299999999999  0.28262  0.24833  1.0000
  H   H5        1.0  0.52239  0.8044100000000002  0.50907  1.0000
  H   H6        1.0  0.78148  0.8413300000000002  0.37972  1.0000
  H   H7        1.0  0.88776  0.712  0.48539  1.0000
  H   H8        1.0  0.80783  0.62268  0.59971  1.0000
  H   H9        1.0  0.97791  0.4551800000000001  0.4694  1.0000
  H   H10       1.0  0.68545  0.30286  0.4677000000000001  1.0000
  H   H11       1.0  0.5727900000000001  0.4072300000000001  0.33122000000000007  1.0000
  H   H12       1.0  0.6646199999999999  0.53786  0.2657  1.0000
  H   H13       1.0  0.006959999999999999  0.9958600000000002  0.02707  1.0000
  H   H14       1.0  0.72409  0.9913600000000002  0.1299  1.0000
  H   H15       1.0  0.64573  0.13026  0.022930000000000006  1.0000
  H   H16       1.0  0.7487  0.20282000000000006  0.91808  1.0000
  H   H17       1.0  0.49085  0.85046  0.96456  1.0000
  H   H18       1.0  0.20081999999999997  0.00792  0.96447  1.0000
  H   H19       1.0  0.08939000000000001  0.9126700000000001  0.8202100000000001  1.0000
  H   H20       1.0  0.17860000000000006  0.7822400000000003  0.7519400000000003  1.0000
  H   H21       1.0  0.47527  0.30447  0.4886300000000001  1.0000
  H   H22       1.0  0.21843  0.3415900000000001  0.62113  1.0000
  H   H23       1.0  0.11171000000000002  0.21242000000000005  0.5165700000000001  1.0000
  H   H24       1.0  0.1899200000000001  0.12295000000000002  0.4011800000000001  1.0000
  H   H25       1.0  0.022650000000000007  0.9539800000000003  0.5304  1.0000
  H   H26       1.0  0.31622  0.8019400000000001  0.53341  1.0000
  H   H27       1.0  0.42794  0.9076600000000002  0.66876  1.0000
  H   H28       1.0  0.33487000000000006  0.03757000000000001  0.7341500000000002  1.0000
  H   H29       1.0  0.99403  0.4961800000000001  0.9741000000000002  1.0000
  H   H30       1.0  0.2757200000000001  0.4912300000000001  0.8696500000000003  1.0000
  H   H31       1.0  0.35459  0.6301800000000001  0.97616  1.0000
  H   H32       1.0  0.25206  0.7030500000000001  0.08154  1.0000
  C   C1        1.0  0.59701  0.36288  0.06564000000000002  1.0000
  C   C2        1.0  0.64732  0.4334300000000001  0.02488  1.0000
  C   C3        1.0  0.76078  0.45126000000000005  0.06572  1.0000
  C   C4        1.0  0.8233899999999998  0.3975400000000001  0.1463  1.0000
  C   C5        1.0  0.7740599999999999  0.32536  0.18557000000000004  1.0000
  C   C6        1.0  0.6605199999999999  0.3081500000000001  0.1451  1.0000
  C   C7        1.0  0.58039  0.48658000000000007  0.93558  1.0000
  C   C8        1.0  0.60797  0.23026  0.18496  1.0000
  C   C9        1.0  0.6018  0.78344  0.50368  1.0000
  C   C10       1.0  0.6454  0.83142  0.4386500000000001  1.0000
  C   C11       1.0  0.74846  0.8045000000000002  0.43145  1.0000
  C   C12       1.0  0.8077200000000001  0.7304900000000002  0.4907800000000001  1.0000
  C   C13       1.0  0.76341  0.6811900000000001  0.55411  1.0000
  C   C14       1.0  0.65956  0.7072700000000002  0.56048  1.0000
  C   C15       1.0  0.58194  0.9114200000000002  0.37822000000000006  1.0000
  C   C16       1.0  0.61188  0.65613  0.62874  1.0000
  C   C17       1.0  0.8894299999999999  0.4454900000000001  0.4401000000000001  1.0000
  C   C18       1.0  0.83767  0.37465000000000004  0.4787300000000001  1.0000
  C   C19       1.0  0.72333  0.36047  0.43854  1.0000
  C   C20       1.0  0.66067  0.4192000000000001  0.36261000000000004  1.0000
  C   C21       1.0  0.71152  0.4914400000000001  0.32534  1.0000
  C   C22       1.0  0.8263099999999999  0.5038200000000003  0.36332  1.0000
  C   C23       1.0  0.87965  0.5797200000000002  0.3217200000000001  1.0000
  C   C24       1.0  0.9007299999999998  0.3174400000000001  0.56651  1.0000
  C   C25       1.0  0.92818  0.02518  0.026160000000000006  1.0000
  C   C26       1.0  0.87115  0.9853400000000002  0.08569  1.0000
  C   C27       1.0  0.76841  0.02315  0.084  1.0000
  C   C28       1.0  0.7247  0.10164000000000002  0.02369  1.0000
  C   C29       1.0  0.78188  0.14173000000000005  0.96516  1.0000
  C   C30       1.0  0.88364  0.10306000000000003  0.96498  1.0000
  C   C31       1.0  0.94061  0.14263000000000006  0.89704  1.0000
  C   C32       1.0  0.9167499999999998  0.9000700000000003  0.14783000000000002  1.0000
  C   C33       1.0  0.40295000000000014  0.8630900000000002  0.9343000000000002  1.0000
  C   C34       1.0  0.35225  0.9333700000000003  0.97513  1.0000
  C   C35       1.0  0.23883  0.9512500000000003  0.93404  1.0000
  C   C36       1.0  0.17644  0.8976200000000002  0.85339  1.0000
  C   C37       1.0  0.22599000000000005  0.8253200000000003  0.8144100000000001  1.0000
  C   C38       1.0  0.33957  0.8083800000000002  0.8548600000000001  1.0000
  C   C39       1.0  0.41934  0.98635  0.06437  1.0000
  C   C40       1.0  0.39223  0.7305000000000003  0.81504  1.0000
  C   C41       1.0  0.39625  0.2838200000000001  0.49521  1.0000
  C   C42       1.0  0.35388  0.33157  0.56119  1.0000
  C   C43       1.0  0.25102  0.30481000000000014  0.56913  1.0000
  C   C44       1.0  0.19127  0.23094000000000006  0.51007  1.0000
  C   C45       1.0  0.23458999999999997  0.18162000000000003  0.44623  1.0000
  C   C46       1.0  0.33786  0.20780000000000007  0.43872000000000005  1.0000
  C   C47       1.0  0.41808000000000006  0.4110600000000001  0.6219900000000002  1.0000
  C   C48       1.0  0.3846  0.15621000000000004  0.37015000000000003  1.0000
  C   C49       1.0  0.11108000000000003  0.9442300000000002  0.55989  1.0000
  C   C50       1.0  0.16353  0.87368  0.52127  1.0000
  C   C51       1.0  0.27782  0.85986  0.5617  1.0000
  C   C52       1.0  0.34004  0.9189800000000002  0.63747  1.0000
  C   C53       1.0  0.28845000000000004  0.9907000000000001  0.6748000000000002  1.0000
  C   C54       1.0  0.17367  0.002370000000000001  0.63708  1.0000
  C   C55       1.0  0.12007000000000007  0.07825  0.6786700000000001  1.0000
  C   C56       1.0  0.10048000000000003  0.8161000000000002  0.43384000000000006  1.0000
  C   C57       1.0  0.07257000000000012  0.52533  0.9744500000000003  1.0000
  C   C58       1.0  0.12917000000000003  0.4856200000000001  0.9144800000000002  1.0000
  C   C59       1.0  0.2316900000000001  0.5232700000000002  0.91573  1.0000
  C   C60       1.0  0.27586  0.6016600000000002  0.97591  1.0000
  C   C61       1.0  0.21895  0.6418100000000001  0.03474  1.0000
  C   C62       1.0  0.1174  0.6032000000000001  0.03528  1.0000
  C   C63       1.0  0.06062000000000001  0.6428000000000003  0.10323000000000003  1.0000
  C   C64       1.0  0.08304000000000007  0.40073000000000003  0.8523400000000002  1.0000
  O   O1        1.0  0.48484000000000005  0.5140200000000003  0.9279700000000002  1.0000
  O   O2        1.0  0.62426  0.5001300000000001  0.8668000000000002  1.0000
  O   O3        1.0  0.66769  0.16379000000000005  0.23643000000000006  1.0000
  O   O4        1.0  0.50399  0.22904000000000005  0.16678  1.0000
  O   O5        1.0  0.48225000000000007  0.92371  0.3712300000000001  1.0000
  O   O6        1.0  0.63192  0.9666800000000002  0.33422000000000013  1.0000
  O   O7        1.0  0.67386  0.60906  0.70073  1.0000
  O   O8        1.0  0.5081600000000001  0.6621100000000002  0.6143900000000002  1.0000
  O   O9        1.0  0.82452  0.65391  0.28391  1.0000
  O   O10       1.0  0.9793300000000001  0.5713  0.3243000000000001  1.0000
  O   O11       1.0  0.004520000000000011  0.30975  0.59043  1.0000
  O   O12       1.0  0.84789  0.2797900000000001  0.6194600000000001  1.0000
  O   O13       1.0  0.8811300000000002  0.18602000000000002  0.8190100000000001  1.0000
  O   O14       1.0  0.04291000000000006  0.13303  0.91451  1.0000
  O   O15       1.0  0.019820000000000004  0.8865400000000002  0.18003  1.0000
  O   O16       1.0  0.8504400000000002  0.8404700000000003  0.16607000000000005  1.0000
  O   O17       1.0  0.51466  0.01388  0.07163000000000001  1.0000
  O   O18       1.0  0.37580999999999987  0.9999300000000001  0.13339  1.0000
  O   O19       1.0  0.33270000000000005  0.6639200000000001  0.7638500000000001  1.0000
  O   O20       1.0  0.49619  0.72917  0.83311  1.0000
  O   O21       1.0  0.51765  0.4234600000000001  0.6286  1.0000
  O   O22       1.0  0.36908  0.4663700000000001  0.66687  1.0000
  O   O23       1.0  0.32213  0.10875000000000003  0.2990800000000001  1.0000
  O   O24       1.0  0.4882  0.16202000000000005  0.38406  1.0000
  O   O25       1.0  0.17559  0.15204000000000006  0.71745  1.0000
  O   O26       1.0  0.020210000000000013  0.07067000000000001  0.67553  1.0000
  O   O27       1.0  0.9966000000000003  0.8095300000000002  0.40968  1.0000
  O   O28       1.0  0.1527  0.7765200000000002  0.38109  1.0000
  O   O29       1.0  0.12104999999999999  0.6857700000000002  0.18119000000000005  1.0000
  O   O30       1.0  0.95826  0.6335300000000003  0.08588  1.0000
  O   O31       1.0  0.9801700000000002  0.38703  0.8211700000000002  1.0000
  O   O32       1.0  0.14954000000000006  0.34168000000000004  0.8333700000000003  1.0000
