data_image0
_chemical_formula_structural       La8H28C56N8O34
_chemical_formula_sum              "La8 H28 C56 N8 O34"
_cell_length_a       12.36669
_cell_length_b       13.28644
_cell_length_c       16.10072
_cell_angle_alpha    80.6701
_cell_angle_beta     66.62922
_cell_angle_gamma    61.84286000000001

_symmetry_space_group_name_H-M    'P 1'
_symmetry_Int_Tables_number       1

loop_
  _symmetry_equiv_pos_as_xyz
  'x,y,z'

loop_
  _atom_site_type_symbol
  _atom_site_label
  _atom_site_symmetry_multiplicity
  _atom_site_fract_x
  _atom_site_fract_y
  _atom_site_fract_z
  _atom_site_occupancy
  La  La1       1.0  0.15559  0.76176  0.06565  1.0000
  La  La2       1.0  0.034010000000000054  0.3394999999999999  0.28420999999999996  1.0000
  La  La3       1.0  0.6799500000000003  0.55755  0.7562699999999998  1.0000
  La  La4       1.0  0.8454800000000001  0.66002  0.47366999999999987  1.0000
  La  La5       1.0  0.01869000000000003  0.25781999999999994  0.55935  1.0000
  La  La6       1.0  0.34148999999999996  0.84479  0.78866  1.0000
  La  La7       1.0  0.001340000000000002  0.06155  0.25794  1.0000
  La  La8       1.0  0.019970000000000168  0.16741999999999999  0.9760099999999998  1.0000
  H   H1        1.0  0.7787099999999998  0.67229  0.29599  1.0000
  H   H2        1.0  0.8917100000000002  0.7067499999999999  0.27213  1.0000
  H   H3        1.0  0.9891199999999999  0.45213  0.04417  1.0000
  H   H4        1.0  0.02690000000000005  0.46873  0.8769299999999998  1.0000
  H   H5        1.0  0.11412000000000012  0.60485  0.7879999999999998  1.0000
  H   H6        1.0  0.6384799999999998  0.45932  0.16167  1.0000
  H   H7        1.0  0.44986  0.58805  0.29064  1.0000
  H   H8        1.0  0.49307999999999985  0.61575  0.4254499999999999  1.0000
  H   H9        1.0  0.2823399999999999  0.43377999999999994  0.93188  1.0000
  H   H10       1.0  0.35269000000000006  0.27878  0.8262299999999999  1.0000
  H   H11       1.0  0.5617599999999999  0.23099  0.6848099999999998  1.0000
  H   H12       1.0  0.96112  0.7380199999999999  0.74814  1.0000
  H   H13       1.0  0.04518000000000002  0.87938  0.66841  1.0000
  H   H14       1.0  0.05332000000000008  0.92894  0.5074499999999997  1.0000
  H   H15       1.0  0.25617000000000006  0.16983  0.78945  1.0000
  H   H16       1.0  0.12978000000000006  0.20811999999999994  0.7690599999999999  1.0000
  H   H17       1.0  0.5174000000000001  0.94175  0.5417  1.0000
  H   H18       1.0  0.6373400000000001  0.95219  0.3738299999999999  1.0000
  H   H19       1.0  0.5075800000000001  0.08841  0.28283  1.0000
  H   H20       1.0  0.7540399999999999  0.9511499999999998  0.65121  1.0000
  H   H21       1.0  0.6901700000000001  0.07967  0.7765999999999997  1.0000
  H   H22       1.0  0.48013999999999984  0.11552  0.91461  1.0000
  H   H23       1.0  0.3552999999999999  0.9285  0.42459999999999987  1.0000
  H   H24       1.0  0.54674  0.7722  0.31642999999999993  1.0000
  H   H25       1.0  0.52187  0.72706  0.17889999999999995  1.0000
  H   H26       1.0  0.5465199999999998  0.24216  0.25540999999999997  1.0000
  H   H27       1.0  0.39777999999999997  0.38878999999999997  0.18002  1.0000
  H   H28       1.0  0.5012599999999998  0.44045  0.01884  1.0000
  C   C1        1.0  0.024229999999999998  0.58282  0.1392  1.0000
  C   C2        1.0  0.03367999999999998  0.59037  0.0443  1.0000
  C   C3        1.0  0.017729999999999996  0.51584  0.0041199999999999995  1.0000
  C   C4        1.0  0.04120000000000015  0.52383  0.9104399999999998  1.0000
  C   C5        1.0  0.0863300000000001  0.6014099999999999  0.8611199999999998  1.0000
  C   C6        1.0  0.09958000000000018  0.67543  0.9056499999999997  1.0000
  C   C7        1.0  0.15188999999999991  0.75443  0.86095  1.0000
  C   C8        1.0  0.8892900000000001  0.31917  0.16299  1.0000
  C   C9        1.0  0.7770199999999999  0.40095  0.22967999999999994  1.0000
  C   C10       1.0  0.6516099999999999  0.46788  0.22265  1.0000
  C   C11       1.0  0.5474500000000001  0.53976  0.29412  1.0000
  C   C12       1.0  0.5699400000000001  0.55496  0.3703299999999999  1.0000
  C   C13       1.0  0.6966400000000001  0.49383  0.37085  1.0000
  C   C14       1.0  0.7377300000000002  0.52303  0.4351399999999999  1.0000
  C   C15       1.0  0.39025  0.5836  0.89593  1.0000
  C   C16       1.0  0.43113999999999997  0.48545  0.84405  1.0000
  C   C17       1.0  0.36600000000000016  0.41567999999999994  0.8683799999999998  1.0000
  C   C18       1.0  0.40678  0.32884  0.8094199999999998  1.0000
  C   C19       1.0  0.5221800000000001  0.30243  0.7302699999999998  1.0000
  C   C20       1.0  0.58901  0.36736  0.7146399999999998  1.0000
  C   C21       1.0  0.7262100000000002  0.33268  0.6484899999999998  1.0000
  C   C22       1.0  0.89353  0.61695  0.67076  1.0000
  C   C23       1.0  0.9458900000000003  0.6977399999999999  0.62992  1.0000
  C   C24       1.0  0.9752299999999999  0.75593  0.67725  1.0000
  C   C25       1.0  0.01892000000000011  0.83619  0.6331899999999998  1.0000
  C   C26       1.0  0.026650000000000184  0.86217  0.5428199999999997  1.0000
  C   C27       1.0  0.9962400000000001  0.80203  0.4997799999999999  1.0000
  C   C28       1.0  0.9894999999999998  0.8287399999999999  0.4073299999999999  1.0000
  C   C29       1.0  0.2528500000000001  0.07944  0.63621  1.0000
  C   C30       1.0  0.3346799999999999  0.08195  0.54005  1.0000
  C   C31       1.0  0.46682  0.00469  0.50071  1.0000
  C   C32       1.0  0.53318  0.009579999999999995  0.4066799999999999  1.0000
  C   C33       1.0  0.4624199999999999  0.08652  0.35603999999999997  1.0000
  C   C34       1.0  0.32854  0.16269999999999998  0.3996399999999999  1.0000
  C   C35       1.0  0.24381999999999998  0.24153999999999998  0.35393999999999987  1.0000
  C   C36       1.0  0.6332599999999996  0.8165199999999999  0.66064  1.0000
  C   C37       1.0  0.59935  0.8997  0.7243  1.0000
  C   C38       1.0  0.6697900000000001  0.96263  0.71339  1.0000
  C   C39       1.0  0.6332000000000002  0.03474999999999999  0.7830399999999997  1.0000
  C   C40       1.0  0.51716  0.054299999999999994  0.8609199999999998  1.0000
  C   C41       1.0  0.4459600000000002  0.9972399999999999  0.86504  1.0000
  C   C42       1.0  0.30873999999999996  0.030639999999999983  0.9308499999999997  1.0000
  C   C43       1.0  0.13049  0.08073000000000001  0.3937  1.0000
  C   C44       1.0  0.24029000000000011  0.9834699999999998  0.33972999999999987  1.0000
  C   C45       1.0  0.35260000000000014  0.9115299999999998  0.36186  1.0000
  C   C46       1.0  0.4576100000000002  0.82424  0.3018999999999999  1.0000
  C   C47       1.0  0.44543  0.7995899999999999  0.22440999999999994  1.0000
  C   C48       1.0  0.32792999999999994  0.86746  0.21068  1.0000
  C   C49       1.0  0.28873000000000004  0.8350199999999999  0.14694999999999997  1.0000
  C   C50       1.0  0.81515  0.12029  0.17379999999999995  1.0000
  C   C51       1.0  0.72123  0.2034  0.13523  1.0000
  C   C52       1.0  0.58494  0.26207  0.18472999999999995  1.0000
  C   C53       1.0  0.50362  0.34489  0.14296999999999996  1.0000
  C   C54       1.0  0.5604899999999999  0.37214  0.05261  1.0000
  C   C55       1.0  0.6957599999999999  0.31089  0.007309999999999998  1.0000
  C   C56       1.0  0.7686899999999999  0.33811  0.91442  1.0000
  N   N1        1.0  0.06599000000000009  0.6742  0.9985699999999998  1.0000
  N   N2        1.0  0.7975299999999999  0.41469  0.3053499999999999  1.0000
  N   N3        1.0  0.5421  0.46053  0.76637  1.0000
  N   N4        1.0  0.96237  0.71741  0.5399799999999999  1.0000
  N   N5        1.0  0.2666700000000001  0.16448999999999997  0.49274999999999997  1.0000
  N   N6        1.0  0.48723  0.91784  0.8013999999999998  1.0000
  N   N7        1.0  0.23040000000000008  0.9616899999999999  0.26283  1.0000
  N   N8        1.0  0.77546  0.22453999999999996  0.04546999999999998  1.0000
  O   O1        1.0  0.033199999999999966  0.66241  0.17038999999999996  1.0000
  O   O2        1.0  0.008819999999999986  0.50175  0.18853  1.0000
  O   O3        1.0  0.15526  0.81909  0.9162199999999999  1.0000
  O   O4        1.0  0.19675000000000004  0.76787  0.77529  1.0000
  O   O5        1.0  0.99327  0.2456  0.18783999999999995  1.0000
  O   O6        1.0  0.9036200000000001  0.31909  0.07862  1.0000
  O   O7        1.0  0.8646900000000002  0.46825999999999995  0.4224599999999999  1.0000
  O   O8        1.0  0.66061  0.60559  0.4920599999999999  1.0000
  O   O9        1.0  0.44173  0.65649  0.85464  1.0000
  O   O10       1.0  0.31700000000000006  0.59765  0.98121  1.0000
  O   O11       1.0  0.77913  0.39965  0.6468999999999998  1.0000
  O   O12       1.0  0.79524  0.24164  0.6009  1.0000
  O   O13       1.0  0.8694800000000001  0.56954  0.6162899999999998  1.0000
  O   O14       1.0  0.8677700000000002  0.5887  0.7540199999999998  1.0000
  O   O15       1.0  0.96845  0.7623299999999998  0.37261  1.0000
  O   O16       1.0  0.00035999999999995834  0.9167  0.36837  1.0000
  O   O17       1.0  0.80817  0.71232  0.321  1.0000
  O   O18       1.0  0.13187000000000007  0.16029  0.6660099999999998  1.0000
  O   O19       1.0  0.29912999999999995  0.0013899999999999963  0.6876  1.0000
  O   O20       1.0  0.11877000000000011  0.3095299999999999  0.4088199999999999  1.0000
  O   O21       1.0  0.2737  0.25368  0.26814  1.0000
  O   O22       1.0  0.57514  0.7454499999999998  0.69084  1.0000
  O   O23       1.0  0.7029200000000001  0.8136  0.5751  1.0000
  O   O24       1.0  0.24708000000000008  0.97672  0.9218399999999998  1.0000
  O   O25       1.0  0.24664000000000005  0.11523  0.98549  1.0000
  O   O26       1.0  0.0453  0.15589  0.35488  1.0000
  O   O27       1.0  0.10545999999999997  0.09227  0.47872  1.0000
  O   O28       1.0  0.16959000000000002  0.90477  0.14669  1.0000
  O   O29       1.0  0.35644  0.74302  0.10033  1.0000
  O   O30       1.0  0.9424099999999997  0.07417  0.11777  1.0000
  O   O31       1.0  0.78553  0.0892  0.25645  1.0000
  O   O32       1.0  0.8934399999999998  0.27361  0.8793199999999999  1.0000
  O   O33       1.0  0.7065899999999999  0.42413  0.8751099999999999  1.0000
  O   O34       1.0  0.16065999999999991  0.21298  0.81589  1.0000
