data_image0
_chemical_formula_structural       La8H40C56N8O40
_chemical_formula_sum              "La8 H40 C56 N8 O40"
_cell_length_a       17.75357
_cell_length_b       17.12971
_cell_length_c       17.16544
_cell_angle_alpha    75.1634
_cell_angle_beta     59.46726000000001
_cell_angle_gamma    59.691120000000005

_space_group_name_H-M_alt    "P 1"
_space_group_IT_number       1

loop_
  _space_group_symop_operation_xyz
  'x, y, z'

loop_
  _atom_site_type_symbol
  _atom_site_label
  _atom_site_symmetry_multiplicity
  _atom_site_fract_x
  _atom_site_fract_y
  _atom_site_fract_z
  _atom_site_occupancy
  La  La1       1.0  0.19864000000000012  0.79117  0.5300999999999999  1.0000
  La  La2       1.0  0.5191400000000002  0.70915  0.9705599999999998  1.0000
  La  La3       1.0  0.4916099999999996  0.5274  0.70634  1.0000
  La  La4       1.0  0.7318499999999999  0.96715  0.7888899999999998  1.0000
  La  La5       1.0  0.80176  0.20866  0.4692899999999999  1.0000
  La  La6       1.0  0.48105  0.29092  0.029139999999999992  1.0000
  La  La7       1.0  0.5085600000000003  0.47208  0.29363  1.0000
  La  La8       1.0  0.2684299999999999  0.03284  0.21063  1.0000
  H   H1        1.0  0.22321000000000005  0.83999  0.68237  1.0000
  H   H2        1.0  0.22789999999999985  0.90515  0.59942  1.0000
  H   H3        1.0  0.89122  0.71374  0.65415  1.0000
  H   H4        1.0  0.9883599999999999  0.56002  0.58074  1.0000
  H   H5        1.0  0.16843000000000008  0.50826  0.4720099999999999  1.0000
  H   H6        1.0  0.7430300000000001  0.66067  0.82319  1.0000
  H   H7        1.0  0.7259000000000001  0.59845  0.9083699999999998  1.0000
  H   H8        1.0  0.2630900000000001  0.77905  0.8426899999999998  1.0000
  H   H9        1.0  0.13502000000000003  0.93206  0.91633  1.0000
  H   H10       1.0  0.15433999999999987  0.9868800000000002  0.025469999999999993  1.0000
  H   H11       1.0  0.56517  0.67914  0.65738  1.0000
  H   H12       1.0  0.6349700000000004  0.59287  0.5963299999999998  1.0000
  H   H13       1.0  0.10834999999999995  0.65566  0.7820299999999998  1.0000
  H   H14       1.0  0.05303  0.58318  0.93593  1.0000
  H   H15       1.0  0.18057000000000006  0.47348  0.9885499999999998  1.0000
  H   H16       1.0  0.9042700000000002  0.81921  0.8394099999999999  1.0000
  H   H17       1.0  0.8267999999999999  0.9021  0.9045599999999998  1.0000
  H   H18       1.0  0.54065  0.845  0.7164299999999999  1.0000
  H   H19       1.0  0.56415  0.91912  0.56341  1.0000
  H   H20       1.0  0.63979  0.02671  0.50984  1.0000
  H   H21       1.0  0.77685  0.15999  0.31744  1.0000
  H   H22       1.0  0.77187  0.09504  0.40061  1.0000
  H   H23       1.0  0.10872999999999997  0.28685  0.34553  1.0000
  H   H24       1.0  0.01128000000000001  0.44036  0.41958  1.0000
  H   H25       1.0  0.8314000000000001  0.4913  0.52861  1.0000
  H   H26       1.0  0.25752999999999987  0.33888  0.17646  1.0000
  H   H27       1.0  0.2742899999999999  0.40124  0.09132  1.0000
  H   H28       1.0  0.7370199999999999  0.22042  0.1574  1.0000
  H   H29       1.0  0.8650799999999997  0.06744  0.08367  1.0000
  H   H30       1.0  0.84599  0.01294  0.9741299999999998  1.0000
  H   H31       1.0  0.43481  0.31996  0.34293  1.0000
  H   H32       1.0  0.3657  0.40616  0.4039  1.0000
  H   H33       1.0  0.89162  0.34436  0.21803999999999996  1.0000
  H   H34       1.0  0.9467699999999999  0.41696  0.0642  1.0000
  H   H35       1.0  0.81922  0.52657  0.01155  1.0000
  H   H36       1.0  0.09572000000000003  0.18107  0.16034  1.0000
  H   H37       1.0  0.17324999999999996  0.09835  0.09500999999999998  1.0000
  H   H38       1.0  0.4595800000000001  0.15499  0.28332  1.0000
  H   H39       1.0  0.43589000000000006  0.08084  0.4363999999999999  1.0000
  H   H40       1.0  0.35987999999999987  0.9734900000000002  0.48999  1.0000
  C   C1        1.0  0.9683800000000002  0.82726  0.6311599999999998  1.0000
  C   C2        1.0  0.015910000000000004  0.73965  0.59059  1.0000
  C   C3        1.0  0.96923  0.68705  0.60814  1.0000
  C   C4        1.0  0.023149999999999813  0.60247  0.56674  1.0000
  C   C5        1.0  0.12367000000000002  0.57309  0.50645  1.0000
  C   C6        1.0  0.16654000000000002  0.62818  0.49082  1.0000
  C   C7        1.0  0.27071  0.60411  0.43085  1.0000
  C   C8        1.0  0.42801999999999985  0.6684400000000001  0.86767  1.0000
  C   C9        1.0  0.3486000000000001  0.75579  0.90767  1.0000
  C   C10       1.0  0.2684200000000001  0.80667  0.8891799999999997  1.0000
  C   C11       1.0  0.19742999999999988  0.89103  0.93049  1.0000
  C   C12       1.0  0.20796999999999993  0.9221100000000001  0.99121  1.0000
  C   C13       1.0  0.28902999999999995  0.86892  0.007349999999999998  1.0000
  C   C14       1.0  0.30949999999999994  0.89538  0.06684  1.0000
  C   C15       1.0  0.2973600000000001  0.63048  0.66885  1.0000
  C   C16       1.0  0.2580700000000001  0.59035  0.75666  1.0000
  C   C17       1.0  0.1596400000000001  0.60917  0.8089599999999998  1.0000
  C   C18       1.0  0.12957  0.56829  0.89372  1.0000
  C   C19       1.0  0.20044999999999996  0.50727  0.92343  1.0000
  C   C20       1.0  0.29762000000000016  0.4904  0.8686699999999998  1.0000
  C   C21       1.0  0.3772599999999999  0.43041  0.8935499999999997  1.0000
  C   C22       1.0  0.59839  0.86682  0.82777  1.0000
  C   C23       1.0  0.60573  0.90725  0.74029  1.0000
  C   C24       1.0  0.57444  0.89048  0.68904  1.0000
  C   C25       1.0  0.5869800000000001  0.93215  0.6047299999999998  1.0000
  C   C26       1.0  0.62954  0.9917400000000002  0.57429  1.0000
  C   C27       1.0  0.65949  0.00614  0.62774  1.0000
  C   C28       1.0  0.7065100000000001  0.06516  0.602  1.0000
  C   C29       1.0  0.032220000000000054  0.17313  0.3675499999999999  1.0000
  C   C30       1.0  0.9844099999999999  0.26047  0.4088699999999999  1.0000
  C   C31       1.0  0.030800000000000008  0.31323  0.39169  1.0000
  C   C32       1.0  0.9767499999999998  0.39768000000000003  0.43342  1.0000
  C   C33       1.0  0.8763799999999999  0.42662  0.49383  1.0000
  C   C34       1.0  0.83378  0.37134  0.50919  1.0000
  C   C35       1.0  0.7297099999999999  0.39522  0.56923  1.0000
  C   C36       1.0  0.57239  0.33131  0.13207  1.0000
  C   C37       1.0  0.6517  0.24391  0.09213  1.0000
  C   C38       1.0  0.7318099999999997  0.19290000000000002  0.11073999999999998  1.0000
  C   C39       1.0  0.8027799999999999  0.1086  0.06936  1.0000
  C   C40       1.0  0.7922499999999999  0.07763  0.00853  1.0000
  C   C41       1.0  0.71119  0.13089  0.9923899999999998  1.0000
  C   C42       1.0  0.69068  0.10464  0.9327499999999997  1.0000
  C   C43       1.0  0.70259  0.36944  0.3310999999999999  1.0000
  C   C44       1.0  0.7418299999999999  0.40963  0.24345  1.0000
  C   C45       1.0  0.8402899999999996  0.39086  0.19113999999999998  1.0000
  C   C46       1.0  0.8702699999999997  0.43177  0.10643999999999998  1.0000
  C   C47       1.0  0.7993899999999999  0.4927900000000001  0.07668  1.0000
  C   C48       1.0  0.70227  0.50957  0.13144  1.0000
  C   C49       1.0  0.6226  0.56945  0.10649999999999997  1.0000
  C   C50       1.0  0.40195  0.13313  0.17186  1.0000
  C   C51       1.0  0.3945599999999999  0.09271000000000003  0.25934999999999997  1.0000
  C   C52       1.0  0.42574999999999985  0.10952  0.31069  1.0000
  C   C53       1.0  0.41308000000000006  0.06787  0.3950299999999999  1.0000
  C   C54       1.0  0.37037999999999993  0.00839  0.4254799999999999  1.0000
  C   C55       1.0  0.34058999999999995  0.99392  0.37192  1.0000
  C   C56       1.0  0.29346000000000005  0.93498  0.39778999999999987  1.0000
  N   N1        1.0  0.11462000000000003  0.71043  0.53243  1.0000
  N   N2        1.0  0.35952999999999985  0.78676  0.9663  1.0000
  N   N3        1.0  0.32736999999999994  0.53157  0.78628  1.0000
  N   N4        1.0  0.64913  0.96429  0.7097099999999998  1.0000
  N   N5        1.0  0.8858100000000001  0.28928  0.4671599999999999  1.0000
  N   N6        1.0  0.6407599999999998  0.21305  0.03346  1.0000
  N   N7        1.0  0.67254  0.46847  0.21381999999999995  1.0000
  N   N8        1.0  0.35126000000000007  0.03556  0.28984  1.0000
  O   O1        1.0  0.8756200000000002  0.86275  0.6868099999999998  1.0000
  O   O2        1.0  0.022230000000000017  0.8671  0.61002  1.0000
  O   O3        1.0  0.30247  0.65942  0.42566  1.0000
  O   O4        1.0  0.32783999999999996  0.52945  0.38558  1.0000
  O   O5        1.0  0.18492999999999998  0.88174  0.6510799999999998  1.0000
  O   O6        1.0  0.4273  0.63228  0.81047  1.0000
  O   O7        1.0  0.4984999999999999  0.62996  0.8906  1.0000
  O   O8        1.0  0.38988999999999996  0.84141  0.07262  1.0000
  O   O9        1.0  0.24839000000000003  0.97069  0.11096999999999997  1.0000
  O   O10       1.0  0.7144799999999999  0.6191  0.85452  1.0000
  O   O11       1.0  0.23997999999999997  0.68643  0.63312  1.0000
  O   O12       1.0  0.3901700000000001  0.60869  0.62944  1.0000
  O   O13       1.0  0.46308  0.42552  0.8389899999999998  1.0000
  O   O14       1.0  0.3607700000000001  0.38488  0.96809  1.0000
  O   O15       1.0  0.5699599999999999  0.6457400000000001  0.61574  1.0000
  O   O16       1.0  0.5585399999999999  0.81239  0.86441  1.0000
  O   O17       1.0  0.63365  0.88673  0.8661099999999998  1.0000
  O   O18       1.0  0.73465  0.0699  0.65605  1.0000
  O   O19       1.0  0.71893  0.11024  0.52724  1.0000
  O   O20       1.0  0.8352399999999999  0.84974  0.8816799999999998  1.0000
  O   O21       1.0  0.12523000000000004  0.13766000000000006  0.3127799999999999  1.0000
  O   O22       1.0  0.9786099999999999  0.13353  0.38711999999999996  1.0000
  O   O23       1.0  0.69788  0.34007  0.57414  1.0000
  O   O24       1.0  0.6726899999999999  0.46963  0.61486  1.0000
  O   O25       1.0  0.81508  0.11807  0.34872  1.0000
  O   O26       1.0  0.5733699999999998  0.3675800000000001  0.18897  1.0000
  O   O27       1.0  0.50179  0.36977  0.10929999999999997  1.0000
  O   O28       1.0  0.6103100000000001  0.15866  0.9269599999999998  1.0000
  O   O29       1.0  0.7518700000000001  0.02947  0.88839  1.0000
  O   O30       1.0  0.28565  0.38079  0.14520999999999995  1.0000
  O   O31       1.0  0.7599600000000001  0.31349  0.36685  1.0000
  O   O32       1.0  0.60976  0.39114  0.37053  1.0000
  O   O33       1.0  0.53682  0.57436  0.16112  1.0000
  O   O34       1.0  0.63918  0.61477  0.03186  1.0000
  O   O35       1.0  0.43058999999999986  0.35308  0.3843899999999999  1.0000
  O   O36       1.0  0.44188999999999984  0.1875  0.13515  1.0000
  O   O37       1.0  0.36665000000000003  0.11327  0.13351  1.0000
  O   O38       1.0  0.2655600000000001  0.93002  0.3436299999999999  1.0000
  O   O39       1.0  0.28077  0.89016  0.4726899999999999  1.0000
  O   O40       1.0  0.16483  0.15043000000000006  0.11831999999999997  1.0000
