data_image0
_chemical_formula_structural       Cu4H32C56N8O20
_chemical_formula_sum              "Cu4 H32 C56 N8 O20"
_cell_length_a       13.41482
_cell_length_b       13.97825
_cell_length_c       14.06431
_cell_angle_alpha    111.72617
_cell_angle_beta     90.0
_cell_angle_gamma    90.0

_space_group_name_H-M_alt    "P 1"
_space_group_IT_number       1

loop_
  _space_group_symop_operation_xyz
  'x, y, z'

loop_
  _atom_site_type_symbol
  _atom_site_label
  _atom_site_symmetry_multiplicity
  _atom_site_fract_x
  _atom_site_fract_y
  _atom_site_fract_z
  _atom_site_occupancy
  Cu  Cu1       1.0  0.54419  0.4111500000000001  0.95635  1.0000
  Cu  Cu2       1.0  0.04419  0.5888400000000003  0.54365  1.0000
  Cu  Cu3       1.0  0.45582  0.5888400000000003  0.04365  1.0000
  Cu  Cu4       1.0  0.9558200000000001  0.41116  0.45635  1.0000
  H   H1        1.0  0.2603  0.70658  0.08297000000000002  1.0000
  H   H2        1.0  0.1959  0.8890600000000002  0.14767  1.0000
  H   H3        1.0  0.50091  0.9891700000000002  0.22357  1.0000
  H   H4        1.0  0.55066  0.8060800000000002  0.15891  1.0000
  H   H5        1.0  0.45161  0.2534  0.13325  1.0000
  H   H6        1.0  0.28239  0.52775  0.28963  1.0000
  H   H7        1.0  0.22575000000000003  0.25311000000000006  0.35202  1.0000
  H   H8        1.0  0.4310999999999999  0.11111  0.1835  1.0000
  H   H9        1.0  0.7603  0.2934200000000001  0.41703  1.0000
  H   H10       1.0  0.6959000000000001  0.11093000000000003  0.35233  1.0000
  H   H11       1.0  0.00091  0.01082000000000001  0.27643  1.0000
  H   H12       1.0  0.05065999999999999  0.19391  0.34109  1.0000
  H   H13       1.0  0.9516099999999998  0.74659  0.36675  1.0000
  H   H14       1.0  0.78239  0.47225  0.21037  1.0000
  H   H15       1.0  0.72575  0.74689  0.14798  1.0000
  H   H16       1.0  0.9311  0.8888800000000004  0.3165  1.0000
  H   H17       1.0  0.7396999999999999  0.2934200000000001  0.91703  1.0000
  H   H18       1.0  0.8041  0.11093  0.85233  1.0000
  H   H19       1.0  0.49909  0.010819999999999977  0.77643  1.0000
  H   H20       1.0  0.44934  0.19390999999999994  0.84109  1.0000
  H   H21       1.0  0.54839  0.74659  0.86675  1.0000
  H   H22       1.0  0.71762  0.47225  0.71037  1.0000
  H   H23       1.0  0.77425  0.74689  0.64798  1.0000
  H   H24       1.0  0.5689  0.8888800000000002  0.8165000000000001  1.0000
  H   H25       1.0  0.2397  0.70658  0.58297  1.0000
  H   H26       1.0  0.3041  0.8890600000000002  0.64767  1.0000
  H   H27       1.0  0.99909  0.9891700000000002  0.72357  1.0000
  H   H28       1.0  0.94934  0.8060800000000002  0.65891  1.0000
  H   H29       1.0  0.04839  0.2534  0.63325  1.0000
  H   H30       1.0  0.21761  0.5277500000000002  0.7896300000000002  1.0000
  H   H31       1.0  0.27425  0.2531100000000001  0.85202  1.0000
  H   H32       1.0  0.0689  0.11110999999999999  0.6835  1.0000
  C   C1        1.0  0.31018  0.77214  0.11508  1.0000
  C   C2        1.0  0.2749  0.8728100000000002  0.15019  1.0000
  C   C3        1.0  0.34264  0.95449  0.18852  1.0000
  C   C4        1.0  0.44382  0.9305000000000002  0.19164  1.0000
  C   C5        1.0  0.47286  0.8272  0.15592  1.0000
  C   C6        1.0  0.30066  0.06190000000000002  0.22577000000000003  1.0000
  C   C7        1.0  0.34362  0.24111  0.24336  1.0000
  C   C8        1.0  0.39558  0.29254000000000013  0.19036000000000003  1.0000
  C   C9        1.0  0.37341  0.39528  0.2065  1.0000
  C   C10       1.0  0.30038  0.4483  0.27783  1.0000
  C   C11       1.0  0.24754  0.3954100000000001  0.32891  1.0000
  C   C12       1.0  0.26886  0.29249000000000014  0.31251000000000007  1.0000
  C   C13       1.0  0.42303  0.4416500000000001  0.13801  1.0000
  C   C14       1.0  0.16038  0.4426500000000001  0.39624  1.0000
  C   C15       1.0  0.81018  0.22786000000000003  0.38492  1.0000
  C   C16       1.0  0.7749  0.12719000000000003  0.34981  1.0000
  C   C17       1.0  0.84264  0.045499999999999985  0.31148  1.0000
  C   C18       1.0  0.94382  0.0695  0.30836  1.0000
  C   C19       1.0  0.97286  0.1728  0.34408  1.0000
  C   C20       1.0  0.80066  0.9381  0.27423  1.0000
  C   C21       1.0  0.84362  0.7588900000000002  0.25664  1.0000
  C   C22       1.0  0.8955799999999999  0.70745  0.30964  1.0000
  C   C23       1.0  0.87341  0.60471  0.2935  1.0000
  C   C24       1.0  0.80038  0.55169  0.22217  1.0000
  C   C25       1.0  0.74754  0.6045900000000002  0.17109  1.0000
  C   C26       1.0  0.76886  0.7075100000000001  0.18749  1.0000
  C   C27       1.0  0.92303  0.5583400000000001  0.36199  1.0000
  C   C28       1.0  0.66038  0.5573400000000001  0.10376  1.0000
  C   C29       1.0  0.68982  0.22786000000000012  0.88492  1.0000
  C   C30       1.0  0.7251  0.12718  0.84981  1.0000
  C   C31       1.0  0.65736  0.04550000000000001  0.8114800000000001  1.0000
  C   C32       1.0  0.55618  0.06950000000000006  0.80836  1.0000
  C   C33       1.0  0.52714  0.1728  0.84408  1.0000
  C   C34       1.0  0.69934  0.9381  0.77423  1.0000
  C   C35       1.0  0.65638  0.7588900000000002  0.7566400000000001  1.0000
  C   C36       1.0  0.60442  0.70745  0.80964  1.0000
  C   C37       1.0  0.62659  0.60471  0.7935  1.0000
  C   C38       1.0  0.69962  0.55169  0.7221700000000001  1.0000
  C   C39       1.0  0.75246  0.6045900000000002  0.67109  1.0000
  C   C40       1.0  0.73114  0.7075000000000002  0.68749  1.0000
  C   C41       1.0  0.57698  0.5583400000000001  0.86199  1.0000
  C   C42       1.0  0.83962  0.55734  0.60376  1.0000
  C   C43       1.0  0.18981999999999996  0.77214  0.61508  1.0000
  C   C44       1.0  0.22509999999999997  0.8728100000000002  0.65019  1.0000
  C   C45       1.0  0.15736  0.95449  0.68852  1.0000
  C   C46       1.0  0.05618  0.9305000000000003  0.69164  1.0000
  C   C47       1.0  0.02714  0.8272  0.65592  1.0000
  C   C48       1.0  0.19934  0.061900000000000004  0.72577  1.0000
  C   C49       1.0  0.15638  0.24111  0.74336  1.0000
  C   C50       1.0  0.10442  0.29254000000000013  0.69036  1.0000
  C   C51       1.0  0.12659  0.39528  0.7065  1.0000
  C   C52       1.0  0.19962  0.44830000000000003  0.77783  1.0000
  C   C53       1.0  0.25246  0.39541000000000004  0.82891  1.0000
  C   C54       1.0  0.23114  0.29249000000000025  0.81251  1.0000
  C   C55       1.0  0.07698  0.4416500000000001  0.63801  1.0000
  C   C56       1.0  0.3396199999999999  0.4426500000000001  0.89624  1.0000
  N   N1        1.0  0.4075  0.7491100000000003  0.11756  1.0000
  N   N2        1.0  0.36644  0.13642  0.22217  1.0000
  N   N3        1.0  0.9075  0.25089  0.38244  1.0000
  N   N4        1.0  0.86644  0.8635700000000002  0.27783  1.0000
  N   N5        1.0  0.5925  0.25089000000000017  0.8824400000000002  1.0000
  N   N6        1.0  0.6335599999999999  0.8635700000000002  0.77783  1.0000
  N   N7        1.0  0.0925  0.7491100000000003  0.61756  1.0000
  N   N8        1.0  0.13356  0.13642000000000004  0.7221700000000001  1.0000
  O   O1        1.0  0.21348  0.07921  0.25578  1.0000
  O   O2        1.0  0.48435  0.38238000000000005  0.07331  1.0000
  O   O3        1.0  0.39903  0.5328100000000001  0.14702  1.0000
  O   O4        1.0  0.16609  0.53634  0.45717  1.0000
  O   O5        1.0  0.08658  0.38157  0.38514  1.0000
  O   O6        1.0  0.71348  0.9207800000000005  0.24422  1.0000
  O   O7        1.0  0.9843499999999998  0.6176200000000002  0.42669  1.0000
  O   O8        1.0  0.89903  0.46719  0.35298000000000007  1.0000
  O   O9        1.0  0.6660899999999998  0.4636600000000001  0.04283000000000001  1.0000
  O   O10       1.0  0.58658  0.6184300000000003  0.11486  1.0000
  O   O11       1.0  0.78652  0.9207800000000003  0.74421  1.0000
  O   O12       1.0  0.51565  0.6176200000000002  0.9266900000000001  1.0000
  O   O13       1.0  0.60098  0.46719  0.85298  1.0000
  O   O14       1.0  0.83391  0.46365  0.54283  1.0000
  O   O15       1.0  0.9134199999999999  0.61842  0.61486  1.0000
  O   O16       1.0  0.28652  0.07921000000000003  0.7557800000000001  1.0000
  O   O17       1.0  0.01565  0.38238000000000005  0.57331  1.0000
  O   O18       1.0  0.10097  0.5328100000000001  0.6470200000000002  1.0000
  O   O19       1.0  0.33391  0.53634  0.95717  1.0000
  O   O20       1.0  0.41342  0.38157  0.88514  1.0000
