data_image0
_chemical_formula_structural       Zn4H32C48N8O16
_chemical_formula_sum              "Zn4 H32 C48 N8 O16"
_cell_length_a       7.00974
_cell_length_b       15.61626
_cell_length_c       15.60879
_cell_angle_alpha    87.13458
_cell_angle_beta     77.05385
_cell_angle_gamma    77.04266

_space_group_name_H-M_alt    "P 1"
_space_group_IT_number       1

loop_
  _space_group_symop_operation_xyz
  'x, y, z'

loop_
  _atom_site_type_symbol
  _atom_site_label
  _atom_site_symmetry_multiplicity
  _atom_site_fract_x
  _atom_site_fract_y
  _atom_site_fract_z
  _atom_site_occupancy
  Zn  Zn1       1.0  0.13650000000000004  0.23861  0.73793  1.0000
  Zn  Zn2       1.0  0.11174000000000008  0.76211  0.26218  1.0000
  Zn  Zn3       1.0  0.62518  0.26198  0.23909  1.0000
  Zn  Zn4       1.0  0.12703000000000012  0.7377899999999997  0.76152  1.0000
  H   H1        1.0  0.2685200000000001  0.25834  0.16047  1.0000
  H   H2        1.0  0.19554000000000002  0.25442  0.00934  1.0000
  H   H3        1.0  0.4805700000000002  0.24746  0.87808  1.0000
  H   H4        1.0  0.8701400000000001  0.25189  0.05473  1.0000
  H   H5        1.0  0.6884400000000005  0.74135  0.83895  1.0000
  H   H6        1.0  0.45964000000000005  0.74576  0.99013  1.0000
  H   H7        1.0  0.6063500000000001  0.75286  0.12142  1.0000
  H   H8        1.0  0.17718  0.74749  0.94525  1.0000
  H   H9        1.0  0.4733700000000002  0.83947  0.25864  1.0000
  H   H10       1.0  0.55109  0.99046  0.25439  1.0000
  H   H11       1.0  0.2731400000000001  0.12182  0.24715  1.0000
  H   H12       1.0  0.8783300000000003  0.94563  0.25227  1.0000
  H   H13       1.0  0.5709900000000001  0.16084  0.74167  1.0000
  H   H14       1.0  0.79499  0.00964  0.74563  1.0000
  H   H15       1.0  0.64079  0.87862  0.7527099999999998  1.0000
  H   H16       1.0  0.07511000000000008  0.05504999999999999  0.74824  1.0000
  H   H17       1.0  0.9823300000000001  0.34028  0.24139  1.0000
  H   H18       1.0  0.055160000000000084  0.4912199999999999  0.24535  1.0000
  H   H19       1.0  0.7709800000000002  0.62237  0.25299  1.0000
  H   H20       1.0  0.38028000000000006  0.44608  0.24852  1.0000
  H   H21       1.0  0.56355  0.66031  0.75872  1.0000
  H   H22       1.0  0.7927600000000005  0.50967  0.75462  1.0000
  H   H23       1.0  0.6488100000000001  0.37802  0.74688  1.0000
  H   H24       1.0  0.07634000000000009  0.55293  0.75197  1.0000
  H   H25       1.0  0.77725  0.24129  0.66021  1.0000
  H   H26       1.0  0.69788  0.24529  0.50957  1.0000
  H   H27       1.0  0.9742900000000003  0.25307  0.37755  1.0000
  H   H28       1.0  0.37159  0.24812  0.55269  1.0000
  H   H29       1.0  0.6791000000000003  0.75858  0.33975  1.0000
  H   H30       1.0  0.4537100000000004  0.75466  0.49066  1.0000
  H   H31       1.0  0.6066100000000001  0.747  0.62229  1.0000
  H   H32       1.0  0.17349  0.75151  0.44686  1.0000
  C   C1        1.0  0.38514  0.25642  0.10104999999999999  1.0000
  C   C2        1.0  0.34641  0.25357  0.01778  1.0000
  C   C3        1.0  0.5041900000000001  0.24927  0.94449  1.0000
  C   C4        1.0  0.6969000000000003  0.24804  0.95727  1.0000
  C   C5        1.0  0.7224400000000002  0.25233  0.04287999999999999  1.0000
  C   C6        1.0  0.87437  0.24266  0.88232  1.0000
  C   C7        1.0  0.7432  0.74329  0.89855  1.0000
  C   C8        1.0  0.6181700000000003  0.74646  0.98174  1.0000
  C   C9        1.0  0.6983700000000002  0.75082  0.0551  1.0000
  C   C10       1.0  0.9026699999999999  0.75181  0.04266  1.0000
  C   C11       1.0  0.01809000000000007  0.7471899999999999  0.9571  1.0000
  C   C12       1.0  0.00013999999999996933  0.75733  0.1176  1.0000
  C   C13       1.0  0.35900999999999994  0.89898  0.25664  1.0000
  C   C14       1.0  0.4009500000000001  0.98215  0.2536  1.0000
  C   C15       1.0  0.24763000000000002  0.05545  0.24916  1.0000
  C   C16       1.0  0.05599000000000003  0.04283  0.24803999999999998  1.0000
  C   C17       1.0  0.02576000000000006  0.95737  0.25257  1.0000
  C   C18       1.0  0.8840700000000002  0.1178  0.24255  1.0000
  C   C19       1.0  0.5139400000000001  0.10136  0.7434999999999999  1.0000
  C   C20       1.0  0.63569  0.01814  0.74639  1.0000
  C   C21       1.0  0.55075  0.94492  0.7509  1.0000
  C   C22       1.0  0.3450800000000001  0.95744  0.7525999999999998  1.0000
  C   C23       1.0  0.23458000000000004  0.04302  0.74784  1.0000
  C   C24       1.0  0.24161000000000007  0.88251  0.75926  1.0000
  C   C25       1.0  0.8654900000000001  0.39966  0.24337999999999999  1.0000
  C   C26       1.0  0.9042200000000004  0.48286  0.24635  1.0000
  C   C27       1.0  0.7464300000000004  0.5561699999999999  0.25113  1.0000
  C   C28       1.0  0.5531600000000002  0.54384  0.25285  1.0000
  C   C29       1.0  0.52777  0.4582099999999999  0.24799999999999994  1.0000
  C   C30       1.0  0.37588  0.61926  0.25932  1.0000
  C   C31       1.0  0.5089700000000001  0.60068  0.75677  1.0000
  C   C32       1.0  0.6345100000000004  0.51765  0.7536599999999998  1.0000
  C   C33       1.0  0.55556  0.44408  0.7487999999999999  1.0000
  C   C34       1.0  0.35159  0.45614  0.74722  1.0000
  C   C35       1.0  0.23531999999999995  0.54157  0.75227  1.0000
  C   C36       1.0  0.2553500000000002  0.38097  0.74074  1.0000
  C   C37       1.0  0.8911700000000004  0.24321  0.6005  1.0000
  C   C38       1.0  0.8482200000000001  0.24628  0.51746  1.0000
  C   C39       1.0  0.0005100000000000422  0.25118  0.44386  1.0000
  C   C40       1.0  0.1921700000000001  0.25287  0.45606  1.0000
  C   C41       1.0  0.22377000000000002  0.24779  0.54143  1.0000
  C   C42       1.0  0.36262  0.25942  0.38071  1.0000
  C   C43       1.0  0.73549  0.75662  0.39945  1.0000
  C   C44       1.0  0.6130300000000005  0.75359  0.48251999999999995  1.0000
  C   C45       1.0  0.6971100000000006  0.74879  0.55604  1.0000
  C   C46       1.0  0.9026200000000001  0.7471  0.5438899999999999  1.0000
  C   C47       1.0  0.014030000000000072  0.7520199999999999  0.45843999999999996  1.0000
  C   C48       1.0  0.00446000000000001  0.7407999999999999  0.61927  1.0000
  N   N1        1.0  0.5703900000000002  0.25651  0.11353  1.0000
  N   N2        1.0  0.9410100000000005  0.7428899999999999  0.88641  1.0000
  N   N3        1.0  0.17347000000000024  0.88672  0.25683  1.0000
  N   N4        1.0  0.3163600000000001  0.11361  0.74331  1.0000
  N   N5        1.0  0.6800099999999999  0.3874899999999999  0.24331  1.0000
  N   N6        1.0  0.3113099999999999  0.61251  0.75698  1.0000
  N   N7        1.0  0.07703  0.24299  0.61239  1.0000
  N   N8        1.0  0.93299  0.75681  0.38756999999999997  1.0000
  O   O1        1.0  0.8492600000000001  0.22955  0.8048299999999998  1.0000
  O   O2        1.0  0.03952000000000005  0.25094  0.89605  1.0000
  O   O3        1.0  0.8847600000000001  0.77066  0.19514  1.0000
  O   O4        1.0  0.18727000000000021  0.74906  0.10386  1.0000
  O   O5        1.0  0.9225100000000003  0.19517  0.22935  1.0000
  O   O6        1.0  0.71056  0.10412  0.25087  1.0000
  O   O7        1.0  0.34534000000000026  0.80482  0.7705699999999998  1.0000
  O   O8        1.0  0.06090999999999998  0.8963299999999998  0.75362  1.0000
  O   O9        1.0  0.40076  0.69667  0.27264  1.0000
  O   O10       1.0  0.20990999999999996  0.6059  0.25148  1.0000
  O   O11       1.0  0.37090000000000023  0.30357  0.72739  1.0000
  O   O12       1.0  0.06812999999999997  0.39436  0.74857  1.0000
  O   O13       1.0  0.32417000000000024  0.2726  0.30336  1.0000
  O   O14       1.0  0.5365000000000002  0.25171  0.39401  1.0000
  O   O15       1.0  0.9026900000000004  0.72733  0.69665  1.0000
  O   O16       1.0  0.18357000000000007  0.74893  0.60594  1.0000
