data_image0
_chemical_formula_structural       Na4Cd6H24C64O40
_chemical_formula_sum              "Na4 Cd6 H24 C64 O40"
_cell_length_a       8.37748
_cell_length_b       15.202829999999999
_cell_length_c       15.709529999999999
_cell_angle_alpha    104.80239
_cell_angle_beta     95.7269
_cell_angle_gamma    103.457

_space_group_name_H-M_alt    "P 1"
_space_group_IT_number       1

loop_
  _space_group_symop_operation_xyz
  'x, y, z'

loop_
  _atom_site_type_symbol
  _atom_site_label
  _atom_site_symmetry_multiplicity
  _atom_site_fract_x
  _atom_site_fract_y
  _atom_site_fract_z
  _atom_site_occupancy
  Na  Na1       1.0  0.21435999999999997  0.25008  0.87452  1.0000
  Na  Na2       1.0  0.3888400000000001  0.11603000000000002  0.6536400000000001  1.0000
  Na  Na3       1.0  0.7856699999999999  0.74105  0.11685000000000002  1.0000
  Na  Na4       1.0  0.61123  0.88395  0.3334600000000001  1.0000
  Cd  Cd1       1.0  0.21833999999999998  0.54199  0.0007300000000000002  1.0000
  Cd  Cd2       1.0  0.71588  0.17633  0.84584  1.0000
  Cd  Cd3       1.0  0.25041000000000013  0.96558  0.43214  1.0000
  Cd  Cd4       1.0  0.7818200000000001  0.4569900000000001  0.9981100000000002  1.0000
  Cd  Cd5       1.0  0.2848  0.82324  0.15161  1.0000
  Cd  Cd6       1.0  0.74913  0.03345999999999997  0.5645  1.0000
  H   H1        1.0  0.34657  0.58032  0.76143  1.0000
  H   H2        1.0  0.56082  0.4503  0.54137  1.0000
  H   H3        1.0  0.62151  0.33687  0.6237  1.0000
  H   H4        1.0  0.32792  0.68702  0.51362  1.0000
  H   H5        1.0  0.62176  0.68759  0.7553500000000001  1.0000
  H   H6        1.0  0.6841600000000002  0.8628200000000003  0.8065200000000002  1.0000
  H   H7        1.0  0.8321  0.52227  0.70926  1.0000
  H   H8        1.0  0.17311000000000004  0.76752  0.67829  1.0000
  H   H9        1.0  0.27304999999999996  0.8224800000000001  0.84244  1.0000
  H   H10       1.0  0.8764199999999999  0.7714400000000001  0.6159900000000003  1.0000
  H   H11       1.0  0.007699999999999996  0.54329  0.43641  1.0000
  H   H12       1.0  0.9967899999999998  0.62448  0.31696  1.0000
  H   H13       1.0  0.65462  0.42018  0.24027  1.0000
  H   H14       1.0  0.43917  0.55243  0.45851  1.0000
  H   H15       1.0  0.38028  0.6652000000000001  0.3745900000000001  1.0000
  H   H16       1.0  0.67011  0.31299  0.48592000000000013  1.0000
  H   H17       1.0  0.37688999999999995  0.31465  0.24491  1.0000
  H   H18       1.0  0.31569  0.13950999999999997  0.19171  1.0000
  H   H19       1.0  0.16754000000000005  0.47767  0.2887200000000001  1.0000
  H   H20       1.0  0.82437  0.23348000000000002  0.32037  1.0000
  H   H21       1.0  0.72633  0.17716  0.15601  1.0000
  H   H22       1.0  0.12131000000000002  0.22845000000000001  0.3805  1.0000
  H   H23       1.0  0.99577  0.45754  0.56219  1.0000
  H   H24       1.0  0.006370000000000023  0.37549  0.68109  1.0000
  C   C1        1.0  0.3660299999999999  0.47352  0.8616  1.0000
  C   C2        1.0  0.4386099999999999  0.46347  0.77688  1.0000
  C   C3        1.0  0.4075699999999999  0.52727  0.73111  1.0000
  C   C4        1.0  0.45192000000000004  0.52168  0.6472700000000002  1.0000
  C   C5        1.0  0.52756  0.45301  0.60681  1.0000
  C   C6        1.0  0.56139  0.39088  0.65267  1.0000
  C   C7        1.0  0.5191499999999999  0.39482  0.73778  1.0000
  C   C8        1.0  0.55546  0.32037  0.77491  1.0000
  C   C9        1.0  0.3958399999999999  0.87283  0.53765  1.0000
  C   C10       1.0  0.4544099999999999  0.82501  0.60309  1.0000
  C   C11       1.0  0.40966  0.72646  0.57667  1.0000
  C   C12       1.0  0.46605999999999986  0.6773  0.6321  1.0000
  C   C13       1.0  0.57118  0.72527  0.71385  1.0000
  C   C14       1.0  0.60762  0.82337  0.74183  1.0000
  C   C15       1.0  0.5495899999999999  0.8745300000000001  0.6884200000000003  1.0000
  C   C16       1.0  0.5888899999999999  0.9789899999999998  0.72543  1.0000
  C   C17       1.0  0.9011499999999999  0.56305  0.88804  1.0000
  C   C18       1.0  0.9867  0.6185500000000002  0.83112  1.0000
  C   C19       1.0  0.9307499999999997  0.5870099999999999  0.73899  1.0000
  C   C20       1.0  0.99734  0.6405  0.6843  1.0000
  C   C21       1.0  0.12088999999999996  0.72583  0.72064  1.0000
  C   C22       1.0  0.17674999999999988  0.75645  0.81273  1.0000
  C   C23       1.0  0.11201999999999993  0.70387  0.86922  1.0000
  C   C24       1.0  0.16950000000000012  0.7409000000000001  0.9679400000000001  1.0000
  C   C25       1.0  0.86181  0.87883  0.50926  1.0000
  C   C26       1.0  0.89858  0.78474  0.48489  1.0000
  C   C27       1.0  0.9033099999999997  0.73827  0.55105  1.0000
  C   C28       1.0  0.94232  0.65196  0.53286  1.0000
  C   C29       1.0  0.9776199999999999  0.61079  0.4490300000000001  1.0000
  C   C30       1.0  0.97224  0.6567  0.3829100000000001  1.0000
  C   C31       1.0  0.9312  0.74337  0.39944  1.0000
  C   C32       1.0  0.91485  0.78204  0.32132  1.0000
  C   C33       1.0  0.63534  0.52488  0.13808  1.0000
  C   C34       1.0  0.5619799999999998  0.53627  0.2226  1.0000
  C   C35       1.0  0.5924199999999997  0.47315  0.26926  1.0000
  C   C36       1.0  0.54718  0.47947000000000006  0.35294  1.0000
  C   C37       1.0  0.47193999999999986  0.54859  0.39282  1.0000
  C   C38       1.0  0.4391  0.61032  0.34621  1.0000
  C   C39       1.0  0.48148  0.60526  0.26096  1.0000
  C   C40       1.0  0.44522999999999996  0.67917  0.22309  1.0000
  C   C41       1.0  0.59942  0.12671000000000002  0.4600300000000001  1.0000
  C   C42       1.0  0.5428  0.17575  0.3954  1.0000
  C   C43       1.0  0.58805  0.27422  0.42283  1.0000
  C   C44       1.0  0.5319700000000002  0.32393  0.36789  1.0000
  C   C45       1.0  0.42699  0.27645  0.28597  1.0000
  C   C46       1.0  0.39131  0.1784  0.25676  1.0000
  C   C47       1.0  0.44925  0.12686  0.30966  1.0000
  C   C48       1.0  0.41261  0.02257999999999999  0.27315  1.0000
  C   C49       1.0  0.10032999999999997  0.43621  0.11029000000000003  1.0000
  C   C50       1.0  0.013200000000000028  0.38109000000000004  0.16703000000000007  1.0000
  C   C51       1.0  0.0689  0.41291  0.25908  1.0000
  C   C52       1.0  0.0016499999999999935  0.35966  0.31374  1.0000
  C   C53       1.0  0.87754  0.27451  0.27771  1.0000
  C   C54       1.0  0.8225100000000001  0.24331  0.18557  1.0000
  C   C55       1.0  0.88819  0.29568  0.12912  1.0000
  C   C56       1.0  0.8327599999999998  0.25858  0.03038  1.0000
  C   C57       1.0  0.13196000000000002  0.11944000000000006  0.4867500000000001  1.0000
  C   C58       1.0  0.09914000000000002  0.21453999999999998  0.51146  1.0000
  C   C59       1.0  0.09507  0.26142  0.44568  1.0000
  C   C60       1.0  0.05749000000000005  0.34815000000000007  0.4647400000000001  1.0000
  C   C61       1.0  0.024269999999999924  0.38961  0.54899  1.0000
  C   C62       1.0  0.029880000000000025  0.34346  0.6148400000000002  1.0000
  C   C63       1.0  0.0686900000000001  0.25624000000000013  0.5972900000000002  1.0000
  C   C64       1.0  0.08476000000000007  0.21700000000000008  0.6748400000000002  1.0000
  O   O1        1.0  0.41234000000000004  0.55702  0.9169000000000003  1.0000
  O   O2        1.0  0.25357  0.40686  0.8704400000000002  1.0000
  O   O3        1.0  0.51853  0.32593000000000005  0.8573000000000002  1.0000
  O   O4        1.0  0.6088399999999998  0.25535  0.73278  1.0000
  O   O5        1.0  0.41333000000000003  0.57981  0.59755  1.0000
  O   O6        1.0  0.47924999999999995  0.88429  0.47609  1.0000
  O   O7        1.0  0.26091999999999993  0.89734  0.54505  1.0000
  O   O8        1.0  0.58653  0.031069999999999987  0.67144  1.0000
  O   O9        1.0  0.6184  0.013649999999999992  0.80926  1.0000
  O   O10       1.0  0.95098  0.49024  0.8963000000000002  1.0000
  O   O11       1.0  0.7833599999999996  0.58593  0.9231  1.0000
  O   O12       1.0  0.14609999999999995  0.68311  0.01676  1.0000
  O   O13       1.0  0.23319  0.82845  0.00276  1.0000
  O   O14       1.0  0.93749  0.59903  0.5933300000000002  1.0000
  O   O15       1.0  0.84932  0.91484  0.59039  1.0000
  O   O16       1.0  0.8424800000000001  0.9196900000000001  0.4490000000000001  1.0000
  O   O17       1.0  0.06409000000000012  0.8038200000000001  0.2943600000000001  1.0000
  O   O18       1.0  0.7844699999999998  0.7854200000000002  0.28057  1.0000
  O   O19       1.0  0.94618  0.16948  0.7855  1.0000
  O   O20       1.0  0.49843  0.23682  0.87984  1.0000
  O   O21       1.0  0.5856  0.44219  0.08205  1.0000
  O   O22       1.0  0.75265  0.58983  0.13015  1.0000
  O   O23       1.0  0.48472999999999994  0.67422  0.14132  1.0000
  O   O24       1.0  0.3894899999999999  0.74364  0.26414  1.0000
  O   O25       1.0  0.58555  0.42136  0.40273  1.0000
  O   O26       1.0  0.51091  0.11081999999999999  0.51871  1.0000
  O   O27       1.0  0.73822  0.10644  0.45536  1.0000
  O   O28       1.0  0.41992999999999997  0.9723100000000001  0.32841  1.0000
  O   O29       1.0  0.38147  0.98649  0.18957  1.0000
  O   O30       1.0  0.049560000000000014  0.50841  0.10021  1.0000
  O   O31       1.0  0.22078  0.41433  0.07769  1.0000
  O   O32       1.0  0.85675  0.3168  0.98206  1.0000
  O   O33       1.0  0.77039  0.17098999999999995  0.99549  1.0000
  O   O34       1.0  0.061809999999999976  0.40121000000000007  0.40455  1.0000
  O   O35       1.0  0.15039999999999998  0.08465  0.40643  1.0000
  O   O36       1.0  0.14261  0.07675999999999995  0.54632  1.0000
  O   O37       1.0  0.93543  0.19513000000000005  0.7014600000000002  1.0000
  O   O38       1.0  0.21587999999999996  0.21368  0.71526  1.0000
  O   O39       1.0  0.05001999999999997  0.82623  0.20876000000000006  1.0000
  O   O40       1.0  0.50726  0.76426  0.12005  1.0000
