data_image0
_chemical_formula_structural       Zn6H48C36N48O6
_chemical_formula_sum              "Zn6 H48 C36 N48 O6"
_cell_length_a       13.25126
_cell_length_b       15.202819999999997
_cell_length_c       15.212160000000003
_cell_angle_alpha    112.03349
_cell_angle_beta     106.91399
_cell_angle_gamma    106.91529999999999

_symmetry_space_group_name_H-M    'P 1'
_symmetry_Int_Tables_number       1

loop_
  _symmetry_equiv_pos_as_xyz
  'x,y,z'

loop_
  _atom_site_type_symbol
  _atom_site_label
  _atom_site_symmetry_multiplicity
  _atom_site_fract_x
  _atom_site_fract_y
  _atom_site_fract_z
  _atom_site_occupancy
  Zn  Zn1       1.0  0.77299  0.5201399999999998  0.80511  1.0000
  Zn  Zn2       1.0  0.25274  0.28546000000000005  0.47961000000000004  1.0000
  Zn  Zn3       1.0  0.9685099999999998  0.19429999999999994  0.71478  1.0000
  Zn  Zn4       1.0  0.22701000000000005  0.4798600000000001  0.19489000000000006  1.0000
  Zn  Zn5       1.0  0.74726  0.71454  0.52039  1.0000
  Zn  Zn6       1.0  0.03149999999999988  0.8057  0.28522  1.0000
  H   H1        1.0  0.98605  0.48058999999999996  0.71827  1.0000
  H   H2        1.0  0.059930000000000094  0.4103300000000001  0.7545500000000003  1.0000
  H   H3        1.0  0.09849999999999996  0.51956  0.94634  1.0000
  H   H4        1.0  0.16886999999999996  0.59335  0.89604  1.0000
  H   H5        1.0  0.17117000000000002  0.7562400000000001  0.00917  1.0000
  H   H6        1.0  0.12462999999999995  0.68492  0.07111  1.0000
  H   H7        1.0  0.07560000000000001  0.83867  0.10652  1.0000
  H   H8        1.0  0.98696  0.77977  0.96772  1.0000
  H   H9        1.0  0.50505  0.23739  0.51884  1.0000
  H   H10       1.0  0.64945  0.3445  0.58951  1.0000
  H   H11       1.0  0.5793000000000001  0.4271800000000001  0.48116  1.0000
  H   H12       1.0  0.5752900000000001  0.30247000000000007  0.4069200000000001  1.0000
  H   H13       1.0  0.4149  0.25279  0.24410000000000004  1.0000
  H   H14       1.0  0.43994999999999995  0.38646  0.31572000000000006  1.0000
  H   H15       1.0  0.23686000000000001  0.26764000000000004  0.16158000000000006  1.0000
  H   H16       1.0  0.20676  0.18742  0.21967  1.0000
  H   H17       1.0  0.26788  0.28199  0.76242  1.0000
  H   H18       1.0  0.30518  0.24514  0.65573  1.0000
  H   H19       1.0  0.15169000000000002  0.05336999999999999  0.57282  1.0000
  H   H20       1.0  0.27287000000000006  0.10456000000000007  0.69727  1.0000
  H   H21       1.0  0.16253000000000017  0.9918500000000002  0.7472500000000002  1.0000
  H   H22       1.0  0.053319999999999944  0.92882  0.61376  1.0000
  H   H23       1.0  0.96917  0.89407  0.73192  1.0000
  H   H24       1.0  0.020040000000000096  0.03291000000000015  0.8126800000000002  1.0000
  H   H25       1.0  0.013950000000000027  0.51941  0.28173000000000004  1.0000
  H   H26       1.0  0.9400799999999999  0.58967  0.24546  1.0000
  H   H27       1.0  0.90151  0.48044  0.053670000000000016  1.0000
  H   H28       1.0  0.8311299999999999  0.40665  0.10396  1.0000
  H   H29       1.0  0.8288299999999997  0.24376000000000006  0.99083  1.0000
  H   H30       1.0  0.8753699999999999  0.31508  0.9288900000000002  1.0000
  H   H31       1.0  0.9244  0.16133  0.89348  1.0000
  H   H32       1.0  0.013040000000000001  0.22023  0.03228  1.0000
  H   H33       1.0  0.4949599999999999  0.7626  0.48116  1.0000
  H   H34       1.0  0.35055  0.6555  0.41049000000000013  1.0000
  H   H35       1.0  0.4206999999999999  0.57282  0.51884  1.0000
  H   H36       1.0  0.42471  0.69753  0.59308  1.0000
  H   H37       1.0  0.5851  0.7472100000000002  0.7559000000000002  1.0000
  H   H38       1.0  0.5600499999999999  0.6135400000000002  0.6842800000000002  1.0000
  H   H39       1.0  0.7631499999999998  0.73236  0.83842  1.0000
  H   H40       1.0  0.79325  0.81258  0.78033  1.0000
  H   H41       1.0  0.73212  0.7180100000000004  0.23758000000000007  1.0000
  H   H42       1.0  0.69482  0.75486  0.34428  1.0000
  H   H43       1.0  0.8483100000000001  0.9466300000000003  0.4271800000000001  1.0000
  H   H44       1.0  0.7271299999999998  0.8954400000000002  0.30273000000000005  1.0000
  H   H45       1.0  0.83748  0.00814  0.25275  1.0000
  H   H46       1.0  0.9466799999999999  0.07118000000000002  0.3862400000000001  1.0000
  H   H47       1.0  0.03083  0.10593  0.26809  1.0000
  H   H48       1.0  0.97996  0.9670900000000002  0.18733000000000002  1.0000
  C   C1        1.0  0.8952  0.37422  0.7591  1.0000
  C   C2        1.0  0.00731999999999999  0.45157  0.77418  1.0000
  C   C3        1.0  0.0822200000000001  0.5457700000000001  0.8873200000000001  1.0000
  C   C4        1.0  0.09295  0.70443  0.00899  1.0000
  C   C5        1.0  0.018690000000000085  0.7625200000000002  0.03167  1.0000
  C   C6        1.0  0.9160399999999997  0.69978  0.04035000000000001  1.0000
  C   C7        1.0  0.52065  0.3849000000000001  0.6254700000000001  1.0000
  C   C8        1.0  0.55543  0.32261  0.54827  1.0000
  C   C9        1.0  0.5364499999999999  0.34168000000000004  0.45446000000000003  1.0000
  C   C10       1.0  0.38852  0.30458  0.29581  1.0000
  C   C11       1.0  0.256  0.26893000000000006  0.23751000000000005  1.0000
  C   C12       1.0  0.21612999999999996  0.34052  0.30017  1.0000
  C   C13       1.0  0.13594000000000006  0.24067000000000008  0.6149700000000001  1.0000
  C   C14       1.0  0.23294000000000012  0.22578000000000015  0.6773000000000002  1.0000
  C   C15       1.0  0.19468  0.11274  0.6582  1.0000
  C   C16       1.0  0.0841200000000002  0.9914  0.6954900000000003  1.0000
  C   C17       1.0  0.9874000000000002  0.9689900000000001  0.7311200000000002  1.0000
  C   C18       1.0  0.8758500000000001  0.9598800000000001  0.6596200000000001  1.0000
  C   C19       1.0  0.10481000000000003  0.62577  0.24090000000000006  1.0000
  C   C20       1.0  0.9926900000000002  0.5484300000000002  0.22582000000000002  1.0000
  C   C21       1.0  0.91778  0.45423000000000013  0.11268000000000002  1.0000
  C   C22       1.0  0.9070499999999998  0.29557  0.99101  1.0000
  C   C23       1.0  0.9813099999999999  0.23747999999999994  0.96834  1.0000
  C   C24       1.0  0.0839600000000001  0.3002200000000002  0.9596500000000002  1.0000
  C   C25       1.0  0.47934999999999994  0.61509  0.37453  1.0000
  C   C26       1.0  0.44457  0.6773900000000003  0.45174  1.0000
  C   C27       1.0  0.46356  0.65831  0.54554  1.0000
  C   C28       1.0  0.6114800000000001  0.6954200000000001  0.7042000000000003  1.0000
  C   C29       1.0  0.7440000000000001  0.7310700000000001  0.7624900000000002  1.0000
  C   C30       1.0  0.78387  0.65947  0.69983  1.0000
  C   C31       1.0  0.8640599999999998  0.75933  0.38503  1.0000
  C   C32       1.0  0.7670699999999999  0.7742199999999999  0.3227  1.0000
  C   C33       1.0  0.80533  0.8872600000000003  0.3418  1.0000
  C   C34       1.0  0.9158899999999999  0.008600000000000012  0.30452  1.0000
  C   C35       1.0  0.012610000000000007  0.031009999999999992  0.26888  1.0000
  C   C36       1.0  0.12416000000000002  0.04012000000000004  0.34039  1.0000
  N   N1        1.0  0.80625  0.39409000000000005  0.7717700000000001  1.0000
  N   N2        1.0  0.72244  0.30208000000000007  0.7526600000000002  1.0000
  N   N3        1.0  0.7590100000000001  0.2293500000000001  0.7291600000000003  1.0000
  N   N4        1.0  0.86685  0.27232000000000006  0.7322500000000001  1.0000
  N   N5        1.0  0.8180000000000002  0.6120000000000001  0.9593800000000001  1.0000
  N   N6        1.0  0.74885  0.57687  0.0021600000000000005  1.0000
  N   N7        1.0  0.8024999999999998  0.6412500000000002  0.10465  1.0000
  N   N8        1.0  0.90759  0.71966  0.13099000000000002  1.0000
  N   N9        1.0  0.41187999999999997  0.3779100000000002  0.6057100000000001  1.0000
  N   N10       1.0  0.42028000000000004  0.4507000000000001  0.6979100000000001  1.0000
  N   N11       1.0  0.52966  0.49983000000000005  0.7706900000000002  1.0000
  N   N12       1.0  0.59429  0.45993  0.72753  1.0000
  N   N13       1.0  0.20567000000000002  0.3474400000000001  0.38767000000000007  1.0000
  N   N14       1.0  0.17162999999999995  0.42548  0.42262  1.0000
  N   N15       1.0  0.16124999999999998  0.46361  0.35848  1.0000
  N   N16       1.0  0.18808999999999998  0.4114  0.28036000000000005  1.0000
  N   N17       1.0  0.03434000000000001  0.22795  0.62216  1.0000
  N   N18       1.0  0.96969  0.24726000000000006  0.54962  1.0000
  N   N19       1.0  0.029710000000000018  0.27077  0.50046  1.0000
  N   N20       1.0  0.13434  0.26748  0.54005  1.0000
  N   N21       1.0  0.85859  0.04048000000000002  0.65261  1.0000
  N   N22       1.0  0.7464499999999997  0.99719  0.5744500000000001  1.0000
  N   N23       1.0  0.6977100000000002  0.8947000000000003  0.5363200000000001  1.0000
  N   N24       1.0  0.77668  0.86888  0.58868  1.0000
  N   N25       1.0  0.19375999999999993  0.60591  0.22824  1.0000
  N   N26       1.0  0.27756000000000003  0.6979200000000001  0.24735000000000004  1.0000
  N   N27       1.0  0.24099  0.77065  0.27084  1.0000
  N   N28       1.0  0.13316  0.72768  0.26776  1.0000
  N   N29       1.0  0.18201  0.388  0.04062  1.0000
  N   N30       1.0  0.25115000000000004  0.42313000000000006  0.9978400000000001  1.0000
  N   N31       1.0  0.19750000000000004  0.3587500000000001  0.89536  1.0000
  N   N32       1.0  0.09242000000000007  0.28034000000000014  0.8690100000000001  1.0000
  N   N33       1.0  0.5881200000000001  0.62209  0.3943  1.0000
  N   N34       1.0  0.5797199999999998  0.5493  0.3021  1.0000
  N   N35       1.0  0.47033999999999987  0.50017  0.22932000000000005  1.0000
  N   N36       1.0  0.40571999999999997  0.54007  0.27248  1.0000
  N   N37       1.0  0.79433  0.65256  0.61233  1.0000
  N   N38       1.0  0.82838  0.5745200000000003  0.5773800000000001  1.0000
  N   N39       1.0  0.83876  0.5363900000000003  0.6415200000000002  1.0000
  N   N40       1.0  0.81191  0.5886  0.71965  1.0000
  N   N41       1.0  0.9656699999999998  0.77205  0.37784000000000006  1.0000
  N   N42       1.0  0.030320000000000107  0.7527400000000002  0.4503800000000001  1.0000
  N   N43       1.0  0.9702899999999999  0.7292300000000003  0.49955  1.0000
  N   N44       1.0  0.86567  0.73252  0.45995000000000014  1.0000
  N   N45       1.0  0.14140999999999992  0.95952  0.3474  1.0000
  N   N46       1.0  0.25355  0.002809999999999997  0.42555  1.0000
  N   N47       1.0  0.30229000000000006  0.10530000000000009  0.4636900000000001  1.0000
  N   N48       1.0  0.22332999999999995  0.13112000000000004  0.4113300000000001  1.0000
  O   O1        1.0  0.02159999999999999  0.60997  0.90737  1.0000
  O   O2        1.0  0.4116  0.2975  0.39002  1.0000
  O   O3        1.0  0.1143  0.09275000000000001  0.7025  1.0000
  O   O4        1.0  0.9784  0.3900300000000001  0.09263000000000003  1.0000
  O   O5        1.0  0.58841  0.7025000000000001  0.6099800000000001  1.0000
  O   O6        1.0  0.8857  0.9072500000000001  0.29751000000000005  1.0000
