data_image0
_chemical_formula_structural       Zn6H24C72O36
_chemical_formula_sum              "Zn6 H24 C72 O36"
_cell_length_a       12.64713
_cell_length_b       15.36493
_cell_length_c       17.79501
_cell_angle_alpha    71.97055
_cell_angle_beta     75.26563000000002
_cell_angle_gamma    87.3858

_space_group_name_H-M_alt    "P 1"
_space_group_IT_number       1

loop_
  _space_group_symop_operation_xyz
  'x, y, z'

loop_
  _atom_site_type_symbol
  _atom_site_label
  _atom_site_symmetry_multiplicity
  _atom_site_fract_x
  _atom_site_fract_y
  _atom_site_fract_z
  _atom_site_occupancy
  Zn  Zn1       1.0  0.007339999999999991  0.2444399999999999  0.33892  1.0000
  Zn  Zn2       1.0  0.13027  0.40959  0.16577  1.0000
  Zn  Zn3       1.0  0.80075  0.95035  0.23067  1.0000
  Zn  Zn4       1.0  0.9931900000000001  0.75593  0.66044  1.0000
  Zn  Zn5       1.0  0.8698300000000001  0.58994  0.83442  1.0000
  Zn  Zn6       1.0  0.19877  0.04916  0.76768  1.0000
  H   H1        1.0  0.28559000000000007  0.97917  0.42891  1.0000
  H   H2        1.0  0.73588  0.18426  0.25338  1.0000
  H   H3        1.0  0.45782  0.31999999999999995  0.16273  1.0000
  H   H4        1.0  0.43607  0.98857  0.31485  1.0000
  H   H5        1.0  0.60293  0.32843999999999995  0.04748  1.0000
  H   H6        1.0  0.93256  0.38689  0.04666  1.0000
  H   H7        1.0  0.9662100000000001  0.91204  0.41467  1.0000
  H   H8        1.0  0.16951  0.11643000000000002  0.21341  1.0000
  H   H9        1.0  0.99852  0.62826  0.23053  1.0000
  H   H10       1.0  0.67814  0.7029900000000001  0.3393099999999999  1.0000
  H   H11       1.0  0.77279  0.41951000000000005  0.4091499999999999  1.0000
  H   H12       1.0  0.32867  0.5701999999999998  0.46871  1.0000
  H   H13       1.0  0.71363  0.020569999999999956  0.57087  1.0000
  H   H14       1.0  0.26494  0.81309  0.74589  1.0000
  H   H15       1.0  0.5432700000000001  0.6791999999999996  0.83715  1.0000
  H   H16       1.0  0.5634  0.011019999999999988  0.68634  1.0000
  H   H17       1.0  0.3972000000000002  0.67066  0.95263  1.0000
  H   H18       1.0  0.06679000000000006  0.6133599999999998  0.95412  1.0000
  H   H19       1.0  0.033990000000000006  0.08748  0.58344  1.0000
  H   H20       1.0  0.8315700000000003  0.8838299999999997  0.78573  1.0000
  H   H21       1.0  0.0007300000000000036  0.37122  0.76786  1.0000
  H   H22       1.0  0.32143  0.29707999999999996  0.65952  1.0000
  H   H23       1.0  0.22729000000000002  0.58084  0.59128  1.0000
  H   H24       1.0  0.67157  0.4312000000000001  0.53157  1.0000
  C   C1        1.0  0.35099  0.20505  0.23684  1.0000
  C   C2        1.0  0.22304000000000004  0.9905200000000001  0.39501999999999987  1.0000
  C   C3        1.0  0.84369  0.28297999999999995  0.15413  1.0000
  C   C4        1.0  0.23907000000000003  0.05757000000000002  0.31818  1.0000
  C   C5        1.0  0.34276  0.11008  0.28101  1.0000
  C   C6        1.0  0.6565400000000001  0.24763000000000002  0.15443  1.0000
  C   C7        1.0  0.74536  0.23214  0.19234  1.0000
  C   C8        1.0  0.45348000000000005  0.24679  0.19457  1.0000
  C   C9        1.0  0.060710000000000014  0.015149999999999999  0.30869  1.0000
  C   C10       1.0  0.55124  0.19817999999999997  0.19608  1.0000
  C   C11       1.0  0.93415  0.27624000000000004  0.19609  1.0000
  C   C12       1.0  0.12447000000000003  0.9401399999999996  0.43045  1.0000
  C   C13       1.0  0.44033  0.06196000000000001  0.28381  1.0000
  C   C14       1.0  0.54248  0.10362  0.2415  1.0000
  C   C15       1.0  0.9725  0.44442999999999994  0.30459  1.0000
  C   C16       1.0  0.25198  0.2635  0.23851  1.0000
  C   C17       1.0  0.63765  0.04218  0.24045  1.0000
  C   C18       1.0  0.66911  0.3152999999999999  0.07804999999999997  1.0000
  C   C19       1.0  0.8557900000000002  0.34765  0.07697  1.0000
  C   C20       1.0  0.042599999999999985  0.9522500000000002  0.38746  1.0000
  C   C21       1.0  0.7681100000000001  0.3646  0.03941  1.0000
  C   C22       1.0  0.10607999999999997  0.87305  0.51461  1.0000
  C   C23       1.0  0.89307  0.51644  0.31918  1.0000
  C   C24       1.0  0.15693  0.06866  0.27484  1.0000
  C   C25       1.0  0.7819600000000003  0.43823000000000006  0.9593699999999997  1.0000
  C   C26       1.0  0.50306  0.56884  0.42562  1.0000
  C   C27       1.0  0.98057  0.018379999999999997  0.25848  1.0000
  C   C28       1.0  0.9185400000000001  0.6085  0.27295  1.0000
  C   C29       1.0  0.8405200000000003  0.67488  0.28107  1.0000
  C   C30       1.0  0.60447  0.52933  0.44166  1.0000
  C   C31       1.0  0.73705  0.64983  0.33463  1.0000
  C   C32       1.0  0.7910600000000001  0.49154999999999976  0.37479  1.0000
  C   C33       1.0  0.71127  0.5577699999999998  0.38288  1.0000
  C   C34       1.0  0.87006  0.774  0.23522  1.0000
  C   C35       1.0  0.40288  0.53987  0.48411  1.0000
  C   C36       1.0  0.49849000000000016  0.6336099999999999  0.3448199999999999  1.0000
  C   C37       1.0  0.6494700000000001  0.7945200000000002  0.7630699999999998  1.0000
  C   C38       1.0  0.77656  0.009109999999999984  0.60441  1.0000
  C   C39       1.0  0.15626000000000007  0.7160899999999999  0.84602  1.0000
  C   C40       1.0  0.76101  0.9421400000000001  0.68123  1.0000
  C   C41       1.0  0.65733  0.8895399999999999  0.71899  1.0000
  C   C42       1.0  0.34394  0.75095  0.84533  1.0000
  C   C43       1.0  0.25508  0.7661599999999998  0.80736  1.0000
  C   C44       1.0  0.54716  0.75242  0.8054  1.0000
  C   C45       1.0  0.9399000000000001  0.9848000000000001  0.6896899999999998  1.0000
  C   C46       1.0  0.4491500000000001  0.8006299999999995  0.80387  1.0000
  C   C47       1.0  0.06538999999999996  0.7235200000000002  0.8042  1.0000
  C   C48       1.0  0.87515  0.05942999999999999  0.56848  1.0000
  C   C49       1.0  0.55941  0.9374799999999999  0.71681  1.0000
  C   C50       1.0  0.45732  0.89533  0.75904  1.0000
  C   C51       1.0  0.027870000000000016  0.55574  0.6952  1.0000
  C   C52       1.0  0.7484000000000003  0.73592  0.7612999999999998  1.0000
  C   C53       1.0  0.36134000000000005  0.9560499999999997  0.76042  1.0000
  C   C54       1.0  0.33114000000000016  0.68375  0.9219599999999998  1.0000
  C   C55       1.0  0.144  0.65191  0.92343  1.0000
  C   C56       1.0  0.9575400000000002  0.047409999999999966  0.61092  1.0000
  C   C57       1.0  0.23194000000000006  0.6348399999999997  0.96085  1.0000
  C   C58       1.0  0.8931900000000004  0.12671000000000002  0.4844999999999999  1.0000
  C   C59       1.0  0.10678000000000014  0.48356999999999994  0.68023  1.0000
  C   C60       1.0  0.84371  0.9312399999999996  0.72415  1.0000
  C   C61       1.0  0.21813  0.56149  0.04105  1.0000
  C   C62       1.0  0.4970399999999999  0.43183999999999995  0.57414  1.0000
  C   C63       1.0  0.02050999999999999  0.9826499999999999  0.73933  1.0000
  C   C64       1.0  0.08089000000000003  0.39135  0.72578  1.0000
  C   C65       1.0  0.15896  0.32505999999999996  0.71751  1.0000
  C   C66       1.0  0.39566  0.4712799999999998  0.55811  1.0000
  C   C67       1.0  0.2626700000000001  0.35029  0.66431  1.0000
  C   C68       1.0  0.20902999999999997  0.5086499999999999  0.62504  1.0000
  C   C69       1.0  0.28877  0.4425  0.61667  1.0000
  C   C70       1.0  0.12949999999999998  0.22592999999999996  0.76331  1.0000
  C   C71       1.0  0.59733  0.46111  0.51588  1.0000
  C   C72       1.0  0.5007000000000001  0.36542  0.6543799999999997  1.0000
  O   O1        1.0  0.17097  0.2378399999999999  0.30052  1.0000
  O   O2        1.0  0.25919  0.33523  0.17738999999999994  1.0000
  O   O3        1.0  0.017149999999999995  0.32939  0.15587  1.0000
  O   O4        1.0  0.8566500000000002  0.5012599999999998  0.94338  1.0000
  O   O5        1.0  0.004910000000000017  0.8485099999999998  0.55362  1.0000
  O   O6        1.0  0.91999  0.2215299999999999  0.26858  1.0000
  O   O7        1.0  0.72074  0.06262  0.17767999999999995  1.0000
  O   O8        1.0  0.18628000000000008  0.8433299999999999  0.54236  1.0000
  O   O9        1.0  0.7244000000000003  0.4375400000000001  0.9119999999999998  1.0000
  O   O10       1.0  0.78769  0.82732  0.22785  1.0000
  O   O11       1.0  0.63477  0.96988  0.29947  1.0000
  O   O12       1.0  0.8946100000000001  0.96468  0.2965  1.0000
  O   O13       1.0  0.94759  0.36261  0.35113  1.0000
  O   O14       1.0  0.057519999999999995  0.47137000000000007  0.24545  1.0000
  O   O15       1.0  0.9679300000000002  0.80082  0.2089  1.0000
  O   O16       1.0  0.99977  0.06796  0.18588  1.0000
  O   O17       1.0  0.5032  0.5977999999999998  0.28927  1.0000
  O   O18       1.0  0.48758  0.7174299999999998  0.33761  1.0000
  O   O19       1.0  0.8296600000000002  0.7620399999999998  0.6995499999999998  1.0000
  O   O20       1.0  0.74074  0.6636  0.82197  1.0000
  O   O21       1.0  0.9820300000000004  0.67085  0.84445  1.0000
  O   O22       1.0  0.14364  0.49837  0.05678  1.0000
  O   O23       1.0  0.9943  0.15116  0.4452  1.0000
  O   O24       1.0  0.07968000000000003  0.77849  0.73176  1.0000
  O   O25       1.0  0.2756400000000001  0.93385  0.82115  1.0000
  O   O26       1.0  0.81257  0.15673999999999996  0.45744  1.0000
  O   O27       1.0  0.27527  0.56238  0.08863  1.0000
  O   O28       1.0  0.21221999999999996  0.17258000000000004  0.76878  1.0000
  O   O29       1.0  0.36569  0.030179999999999957  0.70296  1.0000
  O   O30       1.0  0.10717999999999997  0.034990000000000014  0.70001  1.0000
  O   O31       1.0  0.05280999999999998  0.63764  0.64873  1.0000
  O   O32       1.0  0.9432500000000001  0.52878  0.75459  1.0000
  O   O33       1.0  0.03178000000000004  0.19918  0.79132  1.0000
  O   O34       1.0  0.000360000000000066  0.9355400000000003  0.8126899999999998  1.0000
  O   O35       1.0  0.49740999999999996  0.39823000000000003  0.7115  1.0000
  O   O36       1.0  0.5086000000000003  0.28191999999999995  0.65919  1.0000
