data_image0
_chemical_formula_structural       Cu8Si2H24C64O32
_chemical_formula_sum              "Cu8 Si2 H24 C64 O32"
_cell_length_a       8.9588
_cell_length_b       17.79492
_cell_length_c       17.79492
_cell_angle_alpha    90.0
_cell_angle_beta     90.0
_cell_angle_gamma    90.0

_symmetry_space_group_name_H-M    'P 1'
_symmetry_Int_Tables_number       1

loop_
  _symmetry_equiv_pos_as_xyz
  'x,y,z'

loop_
  _atom_site_type_symbol
  _atom_site_label
  _atom_site_symmetry_multiplicity
  _atom_site_fract_x
  _atom_site_fract_y
  _atom_site_fract_z
  _atom_site_occupancy
  Cu  Cu1       1.0  0.42034  0.96044  0.5395600000000003  1.0000
  Cu  Cu2       1.0  0.42034  0.5395600000000003  0.96044  1.0000
  Cu  Cu3       1.0  0.42034  0.96044  0.96044  1.0000
  Cu  Cu4       1.0  0.42034  0.5395600000000003  0.5395600000000003  1.0000
  Cu  Cu5       1.0  0.5796499999999999  0.039560000000000005  0.039560000000000005  1.0000
  Cu  Cu6       1.0  0.5796499999999999  0.46044  0.46044  1.0000
  Cu  Cu7       1.0  0.5796499999999999  0.039560000000000005  0.46044  1.0000
  Cu  Cu8       1.0  0.5796499999999999  0.46044  0.039560000000000005  1.0000
  Si  Si1       1.0  0.0  0.75  0.25  1.0000
  Si  Si2       1.0  0.0  0.25  0.75  1.0000
  H   H1        1.0  0.86174  0.8718800000000001  0.3445900000000001  1.0000
  H   H2        1.0  0.86174  0.62813  0.15542  1.0000
  H   H3        1.0  0.86174  0.15542  0.8718800000000001  1.0000
  H   H4        1.0  0.86174  0.3445900000000001  0.62813  1.0000
  H   H5        1.0  0.13826  0.12813  0.8445900000000002  1.0000
  H   H6        1.0  0.13826  0.37188000000000004  0.65542  1.0000
  H   H7        1.0  0.13826  0.8445900000000002  0.37188000000000004  1.0000
  H   H8        1.0  0.13826  0.65542  0.12813  1.0000
  H   H9        1.0  0.13826  0.12813  0.65542  1.0000
  H   H10       1.0  0.13826  0.37188000000000004  0.8445900000000002  1.0000
  H   H11       1.0  0.13826  0.8445900000000002  0.12813  1.0000
  H   H12       1.0  0.13826  0.65542  0.37188000000000004  1.0000
  H   H13       1.0  0.86174  0.8718800000000001  0.15542  1.0000
  H   H14       1.0  0.86174  0.62813  0.3445900000000001  1.0000
  H   H15       1.0  0.86174  0.15542  0.62813  1.0000
  H   H16       1.0  0.86174  0.3445900000000001  0.8718800000000001  1.0000
  H   H17       1.0  0.59772  0.75  0.5042600000000002  1.0000
  H   H18       1.0  0.59772  0.75  0.99574  1.0000
  H   H19       1.0  0.59772  0.99574  0.75  1.0000
  H   H20       1.0  0.59772  0.5042600000000002  0.75  1.0000
  H   H21       1.0  0.4022799999999999  0.25  0.00426  1.0000
  H   H22       1.0  0.4022799999999999  0.25  0.49574000000000007  1.0000
  H   H23       1.0  0.4022799999999999  0.00426  0.25  1.0000
  H   H24       1.0  0.4022799999999999  0.49574000000000007  0.25  1.0000
  C   C1        1.0  0.82686  0.81803  0.36774  1.0000
  C   C2        1.0  0.72662  0.81805  0.42831000000000014  1.0000
  C   C3        1.0  0.65933  0.88856  0.45872  1.0000
  C   C4        1.0  0.82686  0.68198  0.13226  1.0000
  C   C5        1.0  0.72662  0.68195  0.07169  1.0000
  C   C6        1.0  0.65933  0.6114500000000002  0.04128000000000001  1.0000
  C   C7        1.0  0.82686  0.13226  0.81803  1.0000
  C   C8        1.0  0.72662  0.07169  0.81805  1.0000
  C   C9        1.0  0.65933  0.04128000000000001  0.88856  1.0000
  C   C10       1.0  0.82686  0.36774  0.68198  1.0000
  C   C11       1.0  0.72662  0.42831000000000014  0.68195  1.0000
  C   C12       1.0  0.65933  0.45872  0.6114500000000002  1.0000
  C   C13       1.0  0.17314  0.18198  0.8677400000000002  1.0000
  C   C14       1.0  0.27337  0.18195  0.9283100000000001  1.0000
  C   C15       1.0  0.34067  0.11145000000000001  0.9587200000000001  1.0000
  C   C16       1.0  0.17314  0.31802  0.63226  1.0000
  C   C17       1.0  0.27337  0.31805  0.5717  1.0000
  C   C18       1.0  0.34067  0.3885500000000001  0.54128  1.0000
  C   C19       1.0  0.17314  0.8677400000000002  0.31802  1.0000
  C   C20       1.0  0.27337  0.9283100000000001  0.31805  1.0000
  C   C21       1.0  0.34067  0.9587200000000001  0.3885500000000001  1.0000
  C   C22       1.0  0.17314  0.63226  0.18198  1.0000
  C   C23       1.0  0.27337  0.5717  0.18195  1.0000
  C   C24       1.0  0.34067  0.54128  0.11145000000000001  1.0000
  C   C25       1.0  0.17314  0.18198  0.63226  1.0000
  C   C26       1.0  0.27337  0.18195  0.5717  1.0000
  C   C27       1.0  0.34067  0.11145000000000001  0.54128  1.0000
  C   C28       1.0  0.17314  0.31802  0.8677400000000002  1.0000
  C   C29       1.0  0.27337  0.31805  0.9283100000000001  1.0000
  C   C30       1.0  0.34067  0.3885500000000001  0.9587200000000001  1.0000
  C   C31       1.0  0.17314  0.8677400000000002  0.18198  1.0000
  C   C32       1.0  0.27337  0.9283100000000001  0.18195  1.0000
  C   C33       1.0  0.34067  0.9587200000000001  0.11145000000000001  1.0000
  C   C34       1.0  0.17314  0.63226  0.31802  1.0000
  C   C35       1.0  0.27337  0.5717  0.31805  1.0000
  C   C36       1.0  0.34067  0.54128  0.3885500000000001  1.0000
  C   C37       1.0  0.82686  0.81803  0.13226  1.0000
  C   C38       1.0  0.72662  0.81805  0.07169  1.0000
  C   C39       1.0  0.65933  0.88856  0.04128000000000001  1.0000
  C   C40       1.0  0.82686  0.68198  0.36774  1.0000
  C   C41       1.0  0.72662  0.68195  0.42831000000000014  1.0000
  C   C42       1.0  0.65933  0.6114500000000002  0.45872  1.0000
  C   C43       1.0  0.82686  0.13226  0.68198  1.0000
  C   C44       1.0  0.72662  0.07169  0.68195  1.0000
  C   C45       1.0  0.65933  0.04128000000000001  0.6114500000000002  1.0000
  C   C46       1.0  0.82686  0.36774  0.81803  1.0000
  C   C47       1.0  0.72662  0.42831000000000014  0.81805  1.0000
  C   C48       1.0  0.65933  0.45872  0.88856  1.0000
  C   C49       1.0  0.87883  0.75  0.33674  1.0000
  C   C50       1.0  0.6774599999999998  0.75  0.4584  1.0000
  C   C51       1.0  0.87883  0.75  0.16326  1.0000
  C   C52       1.0  0.6774599999999998  0.75  0.0416  1.0000
  C   C53       1.0  0.87883  0.16326  0.75  1.0000
  C   C54       1.0  0.6774599999999998  0.0416  0.75  1.0000
  C   C55       1.0  0.87883  0.33674  0.75  1.0000
  C   C56       1.0  0.6774599999999998  0.4584  0.75  1.0000
  C   C57       1.0  0.12117000000000001  0.25  0.83674  1.0000
  C   C58       1.0  0.32254  0.25  0.95841  1.0000
  C   C59       1.0  0.12117000000000001  0.25  0.6632600000000001  1.0000
  C   C60       1.0  0.32254  0.25  0.5416  1.0000
  C   C61       1.0  0.12117000000000001  0.83674  0.25  1.0000
  C   C62       1.0  0.32254  0.95841  0.25  1.0000
  C   C63       1.0  0.12117000000000001  0.6632600000000001  0.25  1.0000
  C   C64       1.0  0.32254  0.5416  0.25  1.0000
  O   O1        1.0  0.5562699999999999  0.8793000000000002  0.5079  1.0000
  O   O2        1.0  0.70432  0.9515300000000001  0.4324800000000001  1.0000
  O   O3        1.0  0.5562699999999999  0.62071  0.9921000000000001  1.0000
  O   O4        1.0  0.70432  0.5484800000000001  0.06752  1.0000
  O   O5        1.0  0.5562699999999999  0.9921000000000001  0.8793000000000002  1.0000
  O   O6        1.0  0.70432  0.06752  0.9515300000000001  1.0000
  O   O7        1.0  0.5562699999999999  0.5079  0.62071  1.0000
  O   O8        1.0  0.70432  0.4324800000000001  0.5484800000000001  1.0000
  O   O9        1.0  0.44373  0.12071000000000001  0.0079  1.0000
  O   O10       1.0  0.29567999999999994  0.04847  0.93248  1.0000
  O   O11       1.0  0.44373  0.37929  0.49210000000000004  1.0000
  O   O12       1.0  0.29567999999999994  0.45153  0.56752  1.0000
  O   O13       1.0  0.44373  0.0079  0.37929  1.0000
  O   O14       1.0  0.29567999999999994  0.93248  0.45153  1.0000
  O   O15       1.0  0.44373  0.49210000000000004  0.12071000000000001  1.0000
  O   O16       1.0  0.29567999999999994  0.56752  0.04847  1.0000
  O   O17       1.0  0.44373  0.12071000000000001  0.49210000000000004  1.0000
  O   O18       1.0  0.29567999999999994  0.04847  0.56752  1.0000
  O   O19       1.0  0.44373  0.37929  0.0079  1.0000
  O   O20       1.0  0.29567999999999994  0.45153  0.93248  1.0000
  O   O21       1.0  0.44373  0.0079  0.12071000000000001  1.0000
  O   O22       1.0  0.29567999999999994  0.93248  0.04847  1.0000
  O   O23       1.0  0.44373  0.49210000000000004  0.37929  1.0000
  O   O24       1.0  0.29567999999999994  0.56752  0.45153  1.0000
  O   O25       1.0  0.5562699999999999  0.8793000000000002  0.9921000000000001  1.0000
  O   O26       1.0  0.70432  0.9515300000000001  0.06752  1.0000
  O   O27       1.0  0.5562699999999999  0.62071  0.5079  1.0000
  O   O28       1.0  0.70432  0.5484800000000001  0.4324800000000001  1.0000
  O   O29       1.0  0.5562699999999999  0.9921000000000001  0.62071  1.0000
  O   O30       1.0  0.70432  0.06752  0.5484800000000001  1.0000
  O   O31       1.0  0.5562699999999999  0.5079  0.8793000000000002  1.0000
  O   O32       1.0  0.70432  0.4324800000000001  0.9515300000000001  1.0000
