data_image0
_chemical_formula_structural       Cd4H48C60N24
_chemical_formula_sum              "Cd4 H48 C60 N24"
_cell_length_a       8.64613
_cell_length_b       8.62851
_cell_length_c       21.1346
_cell_angle_alpha    90.0869
_cell_angle_beta     90.05558
_cell_angle_gamma    90.78039000000001

_symmetry_space_group_name_H-M    'P 1'
_symmetry_Int_Tables_number       1

loop_
  _symmetry_equiv_pos_as_xyz
  'x,y,z'

loop_
  _atom_site_type_symbol
  _atom_site_label
  _atom_site_symmetry_multiplicity
  _atom_site_fract_x
  _atom_site_fract_y
  _atom_site_fract_z
  _atom_site_occupancy
  Cd  Cd1       1.0  0.98971  0.84812  0.42600999999999994  1.0000
  Cd  Cd2       1.0  0.01184  0.15561  0.92398  1.0000
  Cd  Cd3       1.0  0.16706  0.97962  0.67115  1.0000
  Cd  Cd4       1.0  0.83536  0.020009999999999993  0.17283  1.0000
  H   H1        1.0  0.29064  0.11261  0.24888  1.0000
  H   H2        1.0  0.60108  0.5028899999999998  0.26582  1.0000
  H   H3        1.0  0.72539  0.06402  0.34703  1.0000
  H   H4        1.0  0.66278  0.8510899999999998  0.37352  1.0000
  H   H5        1.0  0.2563  0.59922  0.33028  1.0000
  H   H6        1.0  0.24442000000000003  0.8777  0.26824  1.0000
  H   H7        1.0  0.47292  0.56039  0.1675  1.0000
  H   H8        1.0  0.99292  0.57182  0.20273  1.0000
  H   H9        1.0  0.1153  0.31728  0.26358  1.0000
  H   H10       1.0  0.75826  0.5965  0.33825  1.0000
  H   H11       1.0  0.15388  0.36579  0.40488999999999997  1.0000
  H   H12       1.0  0.95491  0.14992  0.35619  1.0000
  H   H13       1.0  0.71156  0.88845  0.74818  1.0000
  H   H14       1.0  0.39791  0.5002299999999998  0.76468  1.0000
  H   H15       1.0  0.27729  0.94035  0.84637  1.0000
  H   H16       1.0  0.33999  0.15308  0.87278  1.0000
  H   H17       1.0  0.74649  0.4038199999999999  0.82917  1.0000
  H   H18       1.0  0.75678  0.12451999999999999  0.7668599999999999  1.0000
  H   H19       1.0  0.52546  0.43972  0.66769  1.0000
  H   H20       1.0  0.0064  0.42739  0.70098  1.0000
  H   H21       1.0  0.88727  0.68255  0.76213  1.0000
  H   H22       1.0  0.2408  0.4077699999999999  0.83835  1.0000
  H   H23       1.0  0.84512  0.6431699999999999  0.90234  1.0000
  H   H24       1.0  0.04749  0.8566099999999998  0.85439  1.0000
  H   H25       1.0  0.87886  0.2783799999999999  0.49949  1.0000
  H   H26       1.0  0.50321  0.59643  0.5142  1.0000
  H   H27       1.0  0.94593  0.71749  0.59474  1.0000
  H   H28       1.0  0.15954  0.6576099999999998  0.61792  1.0000
  H   H29       1.0  0.3921  0.24197  0.58082  1.0000
  H   H30       1.0  0.11214  0.22807  0.52001  1.0000
  H   H31       1.0  0.44074  0.47112  0.41787  1.0000
  H   H32       1.0  0.40656  0.98907  0.4487999999999999  1.0000
  H   H33       1.0  0.66611  0.10343  0.5111  1.0000
  H   H34       1.0  0.41727  0.75613  0.58757  1.0000
  H   H35       1.0  0.66511  0.15437  0.64891  1.0000
  H   H36       1.0  0.8709300000000001  0.9494299999999999  0.60019  1.0000
  H   H37       1.0  0.11845999999999998  0.71949  6.999999999999998e-05  1.0000
  H   H38       1.0  0.4953  0.4018799999999999  0.01452  1.0000
  H   H39       1.0  0.05276  0.28069  0.09524  1.0000
  H   H40       1.0  0.84169  0.34435  0.12157  1.0000
  H   H41       1.0  0.60479  0.7545799999999999  0.07993  1.0000
  H   H42       1.0  0.88383  0.76674  0.01872  1.0000
  H   H43       1.0  0.55844  0.52828  0.91793  1.0000
  H   H44       1.0  0.58792  0.01063  0.9497099999999999  1.0000
  H   H45       1.0  0.32921  0.89418  0.01121  1.0000
  H   H46       1.0  0.58297  0.24323999999999998  0.08782  1.0000
  H   H47       1.0  0.33671  0.84512  0.14937  1.0000
  H   H48       1.0  0.12953  0.05028999999999999  0.10181999999999998  1.0000
  C   C1        1.0  0.50555  0.0685  0.29829  1.0000
  C   C2        1.0  0.40042  0.15954  0.26541  1.0000
  C   C3        1.0  0.43779  0.31432  0.25337  1.0000
  C   C4        1.0  0.57707  0.38108  0.27438  1.0000
  C   C5        1.0  0.67946  0.28857  0.30852  1.0000
  C   C6        1.0  0.64628  0.13218  0.31911  1.0000
  C   C7        1.0  0.55221  0.8175199999999998  0.3531  1.0000
  C   C8        1.0  0.34055  0.69318  0.33044  1.0000
  C   C9        1.0  0.33121  0.83273  0.29982  1.0000
  C   C10       1.0  0.35763  0.53758  0.18599  1.0000
  C   C11       1.0  0.11152  0.53315  0.20403  1.0000
  C   C12       1.0  0.16846  0.40439  0.23371  1.0000
  C   C13       1.0  0.8429600000000002  0.50886  0.34849  1.0000
  C   C14       1.0  0.04122  0.38568  0.38403  1.0000
  C   C15       1.0  0.94352  0.2749399999999999  0.35899  1.0000
  C   C16       1.0  0.49674000000000007  0.9341699999999998  0.79756  1.0000
  C   C17       1.0  0.60159  0.84225  0.7647899999999999  1.0000
  C   C18       1.0  0.56346  0.68733  0.75292  1.0000
  C   C19       1.0  0.42355000000000004  0.6216599999999998  0.7736999999999999  1.0000
  C   C20       1.0  0.32179  0.71507  0.8077899999999999  1.0000
  C   C21       1.0  0.35584  0.87137  0.81842  1.0000
  C   C22       1.0  0.45076  0.1858  0.8523899999999999  1.0000
  C   C23       1.0  0.66228  0.30983  0.8293999999999999  1.0000
  C   C24       1.0  0.67107  0.16991999999999993  0.7988099999999999  1.0000
  C   C25       1.0  0.64123  0.46257  0.6857499999999999  1.0000
  C   C26       1.0  0.88782  0.46607  0.70282  1.0000
  C   C27       1.0  0.83231  0.5952299999999998  0.73274  1.0000
  C   C28       1.0  0.15642  0.49632  0.8478899999999999  1.0000
  C   C29       1.0  0.95845  0.62196  0.8823  1.0000
  C   C30       1.0  0.05769  0.73147  0.85754  1.0000
  C   C31       1.0  0.93265  0.4955399999999999  0.54692  1.0000
  C   C32       1.0  0.83673  0.38967  0.51519  1.0000
  C   C33       1.0  0.68371  0.42873999999999995  0.50291  1.0000
  C   C34       1.0  0.62352  0.57033  0.52296  1.0000
  C   C35       1.0  0.72037  0.67298  0.55626  1.0000
  C   C36       1.0  0.87518  0.63815  0.56695  1.0000
  C   C37       1.0  0.18713  0.5438799999999999  0.59947  1.0000
  C   C38       1.0  0.30197  0.32803  0.57986  1.0000
  C   C39       1.0  0.16131  0.31758  0.54998  1.0000
  C   C40       1.0  0.45805  0.35416  0.43518  1.0000
  C   C41       1.0  0.45071  0.10703  0.4512399999999999  1.0000
  C   C42       1.0  0.58159  0.16  0.48168  1.0000
  C   C43       1.0  0.5081  0.84113  0.59623  1.0000
  C   C44       1.0  0.64038  0.04011  0.6293099999999999  1.0000
  C   C45       1.0  0.74588  0.93989  0.60412  1.0000
  C   C46       1.0  0.06584  0.50244  0.04764  1.0000
  C   C47       1.0  0.16113000000000002  0.60825  0.01564  1.0000
  C   C48       1.0  0.31417  0.5692899999999997  0.00315  1.0000
  C   C49       1.0  0.37502  0.4281699999999999  0.02339  1.0000
  C   C50       1.0  0.2787  0.32566  0.05689999999999999  1.0000
  C   C51       1.0  0.12375  0.36001  0.06763  1.0000
  C   C52       1.0  0.81279  0.45617  0.1017  1.0000
  C   C53       1.0  0.69574  0.66938  0.0798  1.0000
  C   C54       1.0  0.83589  0.6787899999999998  0.04962  1.0000
  C   C55       1.0  0.53966  0.64503  0.93537  1.0000
  C   C56       1.0  0.5447  0.8923  0.95168  1.0000
  C   C57       1.0  0.41433  0.83818  0.9819  1.0000
  C   C58       1.0  0.49219999999999997  0.15835  0.09656999999999999  1.0000
  C   C59       1.0  0.36076  0.95937  0.12983  1.0000
  C   C60       1.0  0.25471  0.05940999999999999  0.10498999999999999  1.0000
  N   N1        1.0  0.47876  0.6846499999999998  0.36371  1.0000
  N   N2        1.0  0.46768  0.9133899999999999  0.31414  1.0000
  N   N3        1.0  0.22947  0.61447  0.17389  1.0000
  N   N4        1.0  0.32728  0.40836  0.22259  1.0000
  N   N5        1.0  0.9773799999999999  0.53116  0.37748  1.0000
  N   N6        1.0  0.81603  0.35406999999999994  0.33552  1.0000
  N   N7        1.0  0.52447  0.3186599999999999  0.8628299999999999  1.0000
  N   N8        1.0  0.53483  0.08945  0.81336  1.0000
  N   N9        1.0  0.76871  0.38501  0.67315  1.0000
  N   N10       1.0  0.67313  0.5919599999999999  0.72226  1.0000
  N   N11       1.0  0.02118  0.47576  0.87632  1.0000
  N   N12       1.0  0.18485  0.65071  0.83469  1.0000
  N   N13       1.0  0.31713  0.46968  0.61069  1.0000
  N   N14       1.0  0.08652  0.45655  0.56249  1.0000
  N   N15       1.0  0.37536  0.22802  0.42182  1.0000
  N   N16       1.0  0.58497  0.31977  0.47199  1.0000
  N   N17       1.0  0.49232999999999993  0.97735  0.62434  1.0000
  N   N18       1.0  0.6609300000000001  0.81203  0.58219  1.0000
  N   N19       1.0  0.6823400000000001  0.53009  0.11229999999999998  1.0000
  N   N20       1.0  0.91209  0.54138  0.06347  1.0000
  N   N21       1.0  0.62119  0.7719499999999998  0.9222199999999999  1.0000
  N   N22       1.0  0.41231  0.6784  0.97208  1.0000
  N   N23       1.0  0.50861  0.02222  0.1245  1.0000
  N   N24       1.0  0.33901  0.18726999999999994  0.08293  1.0000
