data_image0
_chemical_formula_structural       Ca4Cd4H32C64O40
_chemical_formula_sum              "Ca4 Cd4 H32 C64 O40"
_cell_length_a       14.23651
_cell_length_b       15.78439
_cell_length_c       15.78439
_cell_angle_alpha    78.13806
_cell_angle_beta     63.03869000000001
_cell_angle_gamma    63.03869000000001

_symmetry_space_group_name_H-M    'P 1'
_symmetry_Int_Tables_number       1

loop_
  _symmetry_equiv_pos_as_xyz
  'x,y,z'

loop_
  _atom_site_type_symbol
  _atom_site_label
  _atom_site_symmetry_multiplicity
  _atom_site_fract_x
  _atom_site_fract_y
  _atom_site_fract_z
  _atom_site_occupancy
  Ca  Ca1       1.0  0.03829999999999998  0.00032  0.42363  1.0000
  Ca  Ca2       1.0  0.4610100000000001  0.00041  0.5771999999999998  1.0000
  Ca  Ca3       1.0  0.9610100000000001  0.5772  0.00041  1.0000
  Ca  Ca4       1.0  0.5383  0.4236300000000001  0.00032  1.0000
  Cd  Cd1       1.0  0.2658599999999999  0.9689400000000001  0.49952999999999986  1.0000
  Cd  Cd2       1.0  0.73502  0.03044  0.4994299999999999  1.0000
  Cd  Cd3       1.0  0.7658599999999999  0.49953000000000003  0.9689399999999998  1.0000
  Cd  Cd4       1.0  0.23502000000000003  0.49943  0.03043999999999999  1.0000
  H   H1        1.0  0.12277000000000007  0.64542  0.26995999999999987  1.0000
  H   H2        1.0  0.14102999999999993  0.7822700000000001  0.4075599999999999  1.0000
  H   H3        1.0  0.32608  0.58417  0.17728  1.0000
  H   H4        1.0  0.50378  0.71549  0.22738  1.0000
  H   H5        1.0  0.03749000000000006  0.3547  0.73047  1.0000
  H   H6        1.0  0.3309000000000002  0.21833  0.5928999999999998  1.0000
  H   H7        1.0  0.08663000000000011  0.41644  0.8233499999999998  1.0000
  H   H8        1.0  0.44686999999999993  0.28412  0.7724799999999998  1.0000
  H   H9        1.0  0.23208999999999996  0.7303100000000002  0.6453299999999997  1.0000
  H   H10       1.0  0.07663999999999997  0.59266  0.78196  1.0000
  H   H11       1.0  0.08994999999999997  0.82308  0.58381  1.0000
  H   H12       1.0  0.7805300000000002  0.77257  0.71569  1.0000
  H   H13       1.0  0.6074999999999999  0.26972  0.3546199999999999  1.0000
  H   H14       1.0  0.45102999999999976  0.4072700000000001  0.21802  1.0000
  H   H15       1.0  0.4967200000000002  0.17697000000000004  0.4161299999999999  1.0000
  H   H16       1.0  0.26903  0.22754000000000005  0.2843699999999999  1.0000
  H   H17       1.0  0.62277  0.26996  0.6454199999999998  1.0000
  H   H18       1.0  0.6410300000000001  0.40756  0.7822699999999998  1.0000
  H   H19       1.0  0.8260799999999999  0.17728000000000002  0.58417  1.0000
  H   H20       1.0  0.003780000000000047  0.22738000000000005  0.7154899999999998  1.0000
  H   H21       1.0  0.5374900000000002  0.73047  0.3547  1.0000
  H   H22       1.0  0.8309000000000001  0.5929000000000001  0.21832999999999994  1.0000
  H   H23       1.0  0.58663  0.82335  0.41643999999999987  1.0000
  H   H24       1.0  0.9468699999999999  0.77248  0.28412  1.0000
  H   H25       1.0  0.7320900000000002  0.64533  0.7303099999999998  1.0000
  H   H26       1.0  0.5766400000000002  0.78196  0.59266  1.0000
  H   H27       1.0  0.5899500000000001  0.58381  0.8230699999999997  1.0000
  H   H28       1.0  0.2805300000000003  0.71569  0.7725699999999998  1.0000
  H   H29       1.0  0.10749999999999998  0.35462  0.26972  1.0000
  H   H30       1.0  0.9510299999999998  0.21802000000000002  0.40726999999999997  1.0000
  H   H31       1.0  0.99672  0.41613  0.17697  1.0000
  H   H32       1.0  0.76903  0.28437  0.22754  1.0000
  C   C1        1.0  0.3174200000000002  0.82732  0.37697999999999987  1.0000
  C   C2        1.0  0.5341400000000001  0.58933  0.11445999999999998  1.0000
  C   C3        1.0  0.32192999999999994  0.75762  0.32284  1.0000
  C   C4        1.0  0.22069999999999995  0.7459200000000001  0.3467  1.0000
  C   C5        1.0  0.22080999999999995  0.68409  0.29413  1.0000
  C   C6        1.0  0.32410000000000005  0.63315  0.21817999999999996  1.0000
  C   C7        1.0  0.42506000000000005  0.64486  0.19482  1.0000
  C   C8        1.0  0.42484  0.70707  0.24675999999999995  1.0000
  C   C9        1.0  0.5225400000000001  0.17251  0.6225399999999999  1.0000
  C   C10       1.0  0.23759000000000008  0.41068000000000005  0.8852399999999998  1.0000
  C   C11       1.0  0.40280000000000016  0.24217  0.67723  1.0000
  C   C12       1.0  0.3134  0.25436  0.65374  1.0000
  C   C13       1.0  0.19866000000000014  0.3163600000000001  0.7064099999999998  1.0000
  C   C14       1.0  0.17478000000000013  0.36727  0.7822299999999998  1.0000
  C   C15       1.0  0.2645300000000001  0.35511000000000004  0.8051699999999998  1.0000
  C   C16       1.0  0.37885999999999986  0.29260000000000014  0.7532  1.0000
  C   C17       1.0  0.85524  0.62266  0.8274599999999998  1.0000
  C   C18       1.0  0.8767999999999999  0.8853500000000002  0.58929  1.0000
  C   C19       1.0  0.9202199999999998  0.6772100000000002  0.75778  1.0000
  C   C20       1.0  0.033260000000000095  0.6535500000000001  0.7457999999999998  1.0000
  C   C21       1.0  0.09519999999999988  0.7061400000000002  0.68385  1.0000
  C   C22       1.0  0.04295000000000003  0.78205  0.6329499999999998  1.0000
  C   C23       1.0  0.9301699999999999  0.80516  0.64489  1.0000
  C   C24       1.0  0.8679200000000001  0.75323  0.7072899999999998  1.0000
  C   C25       1.0  0.30535999999999996  0.37716  0.1726  1.0000
  C   C26       1.0  0.3517  0.11461000000000003  0.41077  1.0000
  C   C27       1.0  0.35513999999999996  0.32281  0.24231999999999995  1.0000
  C   C28       1.0  0.43234999999999996  0.34648000000000007  0.2542499999999999  1.0000
  C   C29       1.0  0.4849400000000001  0.29383  0.31614  1.0000
  C   C30       1.0  0.45776000000000006  0.21799  0.3671  1.0000
  C   C31       1.0  0.38024000000000024  0.19486  0.3552099999999999  1.0000
  C   C32       1.0  0.32850000000000007  0.24683  0.29284999999999994  1.0000
  C   C33       1.0  0.8174200000000005  0.37698  0.82732  1.0000
  C   C34       1.0  0.03414000000000001  0.11446  0.58933  1.0000
  C   C35       1.0  0.8219300000000002  0.32284  0.7576199999999997  1.0000
  C   C36       1.0  0.7207  0.3467  0.7459199999999999  1.0000
  C   C37       1.0  0.7208099999999995  0.29413  0.6840899999999999  1.0000
  C   C38       1.0  0.8241000000000002  0.21818000000000004  0.63315  1.0000
  C   C39       1.0  0.92505  0.19483  0.6448599999999998  1.0000
  C   C40       1.0  0.9248400000000002  0.24676  0.70707  1.0000
  C   C41       1.0  0.022540000000000032  0.62254  0.17251  1.0000
  C   C42       1.0  0.7375899999999999  0.88524  0.4106799999999999  1.0000
  C   C43       1.0  0.9028000000000005  0.67723  0.24216999999999997  1.0000
  C   C44       1.0  0.8134  0.65374  0.25436  1.0000
  C   C45       1.0  0.6986600000000003  0.7064100000000002  0.31635999999999986  1.0000
  C   C46       1.0  0.6747800000000002  0.78223  0.36727  1.0000
  C   C47       1.0  0.7645300000000004  0.80517  0.3551099999999999  1.0000
  C   C48       1.0  0.87886  0.7532000000000001  0.2926  1.0000
  C   C49       1.0  0.3552400000000002  0.82747  0.62266  1.0000
  C   C50       1.0  0.37679999999999997  0.58929  0.8853499999999997  1.0000
  C   C51       1.0  0.4202299999999998  0.7577800000000001  0.67721  1.0000
  C   C52       1.0  0.53325  0.7458  0.6535499999999999  1.0000
  C   C53       1.0  0.5951999999999995  0.6838500000000002  0.70614  1.0000
  C   C54       1.0  0.5429500000000002  0.63296  0.7820499999999999  1.0000
  C   C55       1.0  0.4301699999999998  0.6448900000000002  0.8051599999999999  1.0000
  C   C56       1.0  0.36792  0.7072900000000001  0.7532299999999997  1.0000
  C   C57       1.0  0.8053600000000002  0.17261000000000004  0.3771599999999999  1.0000
  C   C58       1.0  0.8517  0.4107700000000001  0.11460999999999998  1.0000
  C   C59       1.0  0.85514  0.24232  0.32281  1.0000
  C   C60       1.0  0.9323500000000005  0.25425  0.3464799999999999  1.0000
  C   C61       1.0  0.9849400000000005  0.31614  0.29383  1.0000
  C   C62       1.0  0.95776  0.3671000000000001  0.21798999999999996  1.0000
  C   C63       1.0  0.8802400000000002  0.35521  0.19485999999999995  1.0000
  C   C64       1.0  0.8285000000000002  0.29285  0.24682999999999994  1.0000
  O   O1        1.0  0.21758999999999998  0.89856  0.41608  1.0000
  O   O2        1.0  0.40394999999999986  0.8207100000000003  0.3862199999999999  1.0000
  O   O3        1.0  0.61825  0.61353  0.07915  1.0000
  O   O4        1.0  0.53909  0.51745  0.08336  1.0000
  O   O5        1.0  0.12021999999999998  0.67638  0.3206399999999999  1.0000
  O   O6        1.0  0.5328900000000003  0.10123  0.5839299999999997  1.0000
  O   O7        1.0  0.61188  0.17932  0.6124799999999998  1.0000
  O   O8        1.0  0.31093000000000004  0.3861200000000001  0.9202399999999997  1.0000
  O   O9        1.0  0.13927000000000014  0.4828200000000001  0.9163599999999997  1.0000
  O   O10       1.0  0.11713000000000007  0.32424  0.6796799999999998  1.0000
  O   O11       1.0  0.8836700000000002  0.58385  0.8986899999999998  1.0000
  O   O12       1.0  0.7758999999999999  0.6127  0.82068  1.0000
  O   O13       1.0  0.7683599999999997  0.92053  0.61353  1.0000
  O   O14       1.0  0.9440199999999997  0.9163800000000002  0.51722  1.0000
  O   O15       1.0  0.20362  0.67953  0.67601  1.0000
  O   O16       1.0  0.36638000000000004  0.4158500000000001  0.10124999999999999  1.0000
  O   O17       1.0  0.20938  0.38681000000000004  0.17926  1.0000
  O   O18       1.0  0.30334  0.07934  0.3862099999999999  1.0000
  O   O19       1.0  0.37757000000000007  0.08355  0.48283999999999994  1.0000
  O   O20       1.0  0.55867  0.32045  0.3239699999999999  1.0000
  O   O21       1.0  0.71759  0.4160800000000001  0.8985599999999999  1.0000
  O   O22       1.0  0.9039400000000003  0.38622  0.8207099999999998  1.0000
  O   O23       1.0  0.11825  0.07915  0.61353  1.0000
  O   O24       1.0  0.039089999999999986  0.08336  0.51745  1.0000
  O   O25       1.0  0.6202200000000002  0.3206400000000001  0.6763799999999999  1.0000
  O   O26       1.0  0.032889999999999954  0.5839300000000001  0.10122999999999997  1.0000
  O   O27       1.0  0.11187999999999995  0.6124800000000002  0.17932  1.0000
  O   O28       1.0  0.81093  0.92024  0.38612  1.0000
  O   O29       1.0  0.6392700000000002  0.91637  0.4828099999999999  1.0000
  O   O30       1.0  0.61713  0.6796800000000002  0.32423999999999986  1.0000
  O   O31       1.0  0.38366999999999984  0.89869  0.58385  1.0000
  O   O32       1.0  0.2758999999999999  0.82068  0.6127  1.0000
  O   O33       1.0  0.26836  0.61353  0.92053  1.0000
  O   O34       1.0  0.4440200000000004  0.51722  0.9163799999999999  1.0000
  O   O35       1.0  0.7036099999999996  0.67601  0.67952  1.0000
  O   O36       1.0  0.86637  0.10125000000000003  0.4158499999999999  1.0000
  O   O37       1.0  0.7093800000000002  0.17926000000000003  0.3868099999999999  1.0000
  O   O38       1.0  0.8033399999999999  0.3862100000000001  0.07934  1.0000
  O   O39       1.0  0.8775699999999999  0.4828400000000001  0.08354999999999997  1.0000
  O   O40       1.0  0.058670000000000035  0.32397  0.3204499999999999  1.0000
