data_image0
_chemical_formula_structural       Co4H42C68S2N6O16
_chemical_formula_sum              "Co4 H42 C68 S2 N6 O16"
_cell_length_a       12.07775
_cell_length_b       12.178040000000001
_cell_length_c       13.65807
_cell_angle_alpha    102.94661
_cell_angle_beta     100.27695
_cell_angle_gamma    99.0339

_space_group_name_H-M_alt    "P 1"
_space_group_IT_number       1

loop_
  _space_group_symop_operation_xyz
  'x, y, z'

loop_
  _atom_site_type_symbol
  _atom_site_label
  _atom_site_symmetry_multiplicity
  _atom_site_fract_x
  _atom_site_fract_y
  _atom_site_fract_z
  _atom_site_occupancy
  Co  Co1       1.0  0.25527  0.9682399999999999  0.10902000000000002  1.0000
  Co  Co2       1.0  0.13963  0.26787  0.18145  1.0000
  Co  Co3       1.0  0.7433800000000003  0.03105000000000001  0.8886  1.0000
  Co  Co4       1.0  0.86167  0.73221  0.82259  1.0000
  H   H1        1.0  0.47043000000000007  0.90185  0.04151  1.0000
  H   H2        1.0  0.5481900000000002  0.7290599999999999  0.9969000000000001  1.0000
  H   H3        1.0  0.25689  0.54178  0.07548  1.0000
  H   H4        1.0  0.18849000000000002  0.7256199999999999  0.11531  1.0000
  H   H5        1.0  0.3897300000000001  0.43512  0.020600000000000004  1.0000
  H   H6        1.0  0.5880600000000001  0.52712  0.30564  1.0000
  H   H7        1.0  0.7883500000000001  0.4911199999999999  0.32496  1.0000
  H   H8        1.0  0.81829  0.292  0.26521  1.0000
  H   H9        1.0  0.72343  0.029580000000000016  0.3687300000000001  1.0000
  H   H10       1.0  0.89875  0.9739  0.45334000000000013  1.0000
  H   H11       1.0  0.06275  0.96223  0.36565  1.0000
  H   H12       1.0  0.9972300000000002  0.35314  0.3532100000000001  1.0000
  H   H13       1.0  0.005990000000000032  0.35217000000000004  0.5340200000000002  1.0000
  H   H14       1.0  0.31496  0.21505999999999995  0.53023  1.0000
  H   H15       1.0  0.29317  0.21993  0.34829  1.0000
  H   H16       1.0  0.2503  0.24344  0.68479  1.0000
  H   H17       1.0  0.03824000000000002  0.35386  0.69282  1.0000
  H   H18       1.0  0.99164  0.4073499999999999  0.85341  1.0000
  H   H19       1.0  0.99772  0.38380999999999993  0.03001  1.0000
  H   H20       1.0  0.24728  0.18633  0.00735  1.0000
  H   H21       1.0  0.2449900000000001  0.19513  0.8287400000000003  1.0000
  H   H22       1.0  0.5290300000000001  0.09894000000000003  0.9585  1.0000
  H   H23       1.0  0.45104  0.27188  0.0036100000000000004  1.0000
  H   H24       1.0  0.7422400000000001  0.45952999999999994  0.9250700000000001  1.0000
  H   H25       1.0  0.81056  0.27582  0.88487  1.0000
  H   H26       1.0  0.6094500000000003  0.56582  0.9797500000000002  1.0000
  H   H27       1.0  0.41199  0.47242000000000006  0.6944300000000002  1.0000
  H   H28       1.0  0.2117700000000001  0.5086500000000002  0.6749000000000003  1.0000
  H   H29       1.0  0.18128  0.7074399999999998  0.7347200000000003  1.0000
  H   H30       1.0  0.27799  0.9706100000000001  0.63135  1.0000
  H   H31       1.0  0.1023  0.025620000000000007  0.54659  1.0000
  H   H32       1.0  0.9383700000000001  0.03629000000000006  0.6346700000000001  1.0000
  H   H33       1.0  0.003029999999999977  0.64852  0.64716  1.0000
  H   H34       1.0  0.9933300000000003  0.64674  0.46562  1.0000
  H   H35       1.0  0.6844  0.78369  0.46861000000000014  1.0000
  H   H36       1.0  0.70701  0.7808  0.6514700000000001  1.0000
  H   H37       1.0  0.75006  0.75659  0.3148500000000001  1.0000
  H   H38       1.0  0.9623700000000002  0.64655  0.30686  1.0000
  H   H39       1.0  0.00806000000000001  0.59222  0.14560000000000003  1.0000
  H   H40       1.0  0.001060000000000047  0.61651  0.9690400000000002  1.0000
  H   H41       1.0  0.75196  0.81384  0.99343  1.0000
  H   H42       1.0  0.75434  0.8044  0.17168  1.0000
  C   C1        1.0  0.4252  0.82122  0.04920000000000001  1.0000
  C   C2        1.0  0.46912  0.72222  0.02444  1.0000
  C   C3        1.0  0.41033  0.61679  0.03387  1.0000
  C   C4        1.0  0.30609  0.61991  0.06612  1.0000
  C   C5        1.0  0.26813  0.7225  0.08959000000000003  1.0000
  C   C6        1.0  0.44915000000000005  0.50824  0.012850000000000002  1.0000
  C   C7        1.0  0.42572  0.13455  0.1824  1.0000
  C   C8        1.0  0.6386700000000001  0.21558  0.22580000000000003  1.0000
  C   C9        1.0  0.52561  0.23532999999999998  0.21906000000000003  1.0000
  C   C10       1.0  0.50915  0.34959  0.24657  1.0000
  C   C11       1.0  0.39204000000000006  0.3808499999999999  0.23458000000000007  1.0000
  C   C12       1.0  0.60459  0.44072  0.28532  1.0000
  C   C13       1.0  0.71531  0.41999  0.29481  1.0000
  C   C14       1.0  0.7325800000000001  0.3083  0.26385000000000003  1.0000
  C   C15       1.0  0.7966500000000002  0.06928000000000001  0.24552000000000004  1.0000
  C   C16       1.0  0.7996500000000001  0.03400000000000003  0.33677000000000007  1.0000
  C   C17       1.0  0.8973800000000003  0.001630000000000027  0.38318000000000013  1.0000
  C   C18       1.0  0.99018  0.9971699999999999  0.336  1.0000
  C   C19       1.0  0.98986  0.03440000000000001  0.24633000000000005  1.0000
  C   C20       1.0  0.8954700000000001  0.07699  0.20362000000000005  1.0000
  C   C21       1.0  0.08909000000000003  0.023410000000000018  0.19658000000000006  1.0000
  C   C22       1.0  0.8983900000000002  0.12931  0.11417000000000001  1.0000
  C   C23       1.0  0.06724000000000001  0.32457  0.39533000000000007  1.0000
  C   C24       1.0  0.07303000000000003  0.32383  0.49741000000000013  1.0000
  C   C25       1.0  0.16425  0.2856  0.55082  1.0000
  C   C26       1.0  0.24352000000000004  0.24722  0.49422  1.0000
  C   C27       1.0  0.23218000000000003  0.25041  0.3921400000000001  1.0000
  C   C28       1.0  0.17716  0.27869  0.65644  1.0000
  C   C29       1.0  0.10777  0.31313  0.7197  1.0000
  C   C30       1.0  0.12052  0.30664  0.82549  1.0000
  C   C31       1.0  0.04977000000000005  0.35816000000000003  0.8854100000000003  1.0000
  C   C32       1.0  0.05392000000000004  0.3464  0.9846000000000001  1.0000
  C   C33       1.0  0.19220999999999996  0.23530000000000004  0.97132  1.0000
  C   C34       1.0  0.19123000000000012  0.24173  0.87102  1.0000
  C   C35       1.0  0.57401  0.17967000000000008  0.9508500000000002  1.0000
  C   C36       1.0  0.5301  0.27865  0.9759900000000002  1.0000
  C   C37       1.0  0.58893  0.3841300000000001  0.9665900000000002  1.0000
  C   C38       1.0  0.69301  0.38118  0.9341  1.0000
  C   C39       1.0  0.731  0.27848  0.9107300000000002  1.0000
  C   C40       1.0  0.5500400000000002  0.4927099999999999  0.9875600000000002  1.0000
  C   C41       1.0  0.5743  0.8654999999999999  0.81862  1.0000
  C   C42       1.0  0.36178000000000005  0.7834499999999999  0.7735500000000001  1.0000
  C   C43       1.0  0.47506  0.7639399999999997  0.7807900000000001  1.0000
  C   C44       1.0  0.49137  0.6496699999999999  0.75321  1.0000
  C   C45       1.0  0.6084300000000002  0.61837  0.7651300000000002  1.0000
  C   C46       1.0  0.39564  0.55886  0.71461  1.0000
  C   C47       1.0  0.28486  0.5797  0.7054000000000001  1.0000
  C   C48       1.0  0.26721000000000006  0.69125  0.7360300000000002  1.0000
  C   C49       1.0  0.20535999999999996  0.9309699999999997  0.7548  1.0000
  C   C50       1.0  0.20173000000000002  0.9656199999999999  0.6631800000000002  1.0000
  C   C51       1.0  0.1041500000000001  0.99856  0.6171100000000003  1.0000
  C   C52       1.0  0.011599999999999985  0.0024499999999999388  0.66454  1.0000
  C   C53       1.0  0.011580000000000056  0.96438  0.7537400000000002  1.0000
  C   C54       1.0  0.10645000000000006  0.9225600000000002  0.7965800000000002  1.0000
  C   C55       1.0  0.91141  0.97666  0.80283  1.0000
  C   C56       1.0  0.10131000000000001  0.8676899999999997  0.8841900000000003  1.0000
  C   C57       1.0  0.9326900000000001  0.67682  0.6053400000000001  1.0000
  C   C58       1.0  0.92701  0.67624  0.5028300000000001  1.0000
  C   C59       1.0  0.83631  0.7150099999999998  0.44919  1.0000
  C   C60       1.0  0.75627  0.7524699999999999  0.50529  1.0000
  C   C61       1.0  0.76815  0.75061  0.60792  1.0000
  C   C62       1.0  0.82283  0.72082  0.34316  1.0000
  C   C63       1.0  0.8915599999999999  0.6853699999999998  0.27959  1.0000
  C   C64       1.0  0.8807  0.69462  0.17490000000000003  1.0000
  C   C65       1.0  0.94981  0.64154  0.11418  1.0000
  C   C66       1.0  0.9451000000000003  0.65343  0.015130000000000003  1.0000
  C   C67       1.0  0.8069100000000001  0.76474  0.029430000000000005  1.0000
  C   C68       1.0  0.8080500000000003  0.7578699999999999  0.12942  1.0000
  S   S1        1.0  0.6594900000000001  0.07524  0.17388000000000003  1.0000
  S   S2        1.0  0.34207  0.92388  0.82604  1.0000
  N   N1        1.0  0.1454  0.2895699999999999  0.34159  1.0000
  N   N2        1.0  0.32644  0.8242899999999999  0.08297  1.0000
  N   N3        1.0  0.12601  0.28821  0.029870000000000008  1.0000
  N   N4        1.0  0.8552  0.71299  0.6596000000000001  1.0000
  N   N5        1.0  0.67292  0.17642000000000005  0.9172500000000002  1.0000
  N   N6        1.0  0.87375  0.71293  0.97133  1.0000
  O   O1        1.0  0.38363000000000014  0.09381999999999999  0.08501000000000003  1.0000
  O   O2        1.0  0.38736000000000004  0.08690999999999999  0.24649  1.0000
  O   O3        1.0  0.38208  0.48356  0.25154000000000004  1.0000
  O   O4        1.0  0.30568000000000006  0.29217  0.2035  1.0000
  O   O5        1.0  0.9529700000000003  0.23397999999999997  0.13741000000000003  1.0000
  O   O6        1.0  0.8453300000000001  0.06759000000000001  0.02582  1.0000
  O   O7        1.0  0.12846000000000002  0.09773  0.15099  1.0000
  O   O8        1.0  0.13583  0.93672  0.19793  1.0000
  O   O9        1.0  0.6115000000000002  0.90728  0.91617  1.0000
  O   O10       1.0  0.61768  0.9133999999999999  0.7564900000000002  1.0000
  O   O11       1.0  0.61766  0.51607  0.74849  1.0000
  O   O12       1.0  0.6942800000000002  0.7076199999999999  0.7954600000000002  1.0000
  O   O13       1.0  0.043470000000000016  0.76434  0.86197  1.0000
  O   O14       1.0  0.15387999999999993  0.9281199999999997  0.97265  1.0000
  O   O15       1.0  0.87179  0.90411  0.8496000000000002  1.0000
  O   O16       1.0  0.86734  0.06482999999999994  0.80164  1.0000
