data_image0
_chemical_formula_structural       Cd12H24C32O48
_chemical_formula_sum              "Cd12 H24 C32 O48"
_cell_length_a       9.66997
_cell_length_b       14.03281
_cell_length_c       15.66261
_cell_angle_alpha    89.97496
_cell_angle_beta     90.0
_cell_angle_gamma    90.0

_symmetry_space_group_name_H-M    'P 1'
_symmetry_Int_Tables_number       1

loop_
  _symmetry_equiv_pos_as_xyz
  'x,y,z'

loop_
  _atom_site_type_symbol
  _atom_site_label
  _atom_site_symmetry_multiplicity
  _atom_site_fract_x
  _atom_site_fract_y
  _atom_site_fract_z
  _atom_site_occupancy
  Cd  Cd1       1.0  0.60899  0.8699299999999998  0.49774  1.0000
  Cd  Cd2       1.0  0.86258  0.99567  0.3861799999999999  1.0000
  Cd  Cd3       1.0  0.77631  0.7313399999999998  0.78112  1.0000
  Cd  Cd4       1.0  0.60899  0.13008  0.50226  1.0000
  Cd  Cd5       1.0  0.86258  0.00433  0.61382  1.0000
  Cd  Cd6       1.0  0.77631  0.26867  0.21888  1.0000
  Cd  Cd7       1.0  0.38962  0.63035  0.9984999999999999  1.0000
  Cd  Cd8       1.0  0.13833  0.50469  0.88583  1.0000
  Cd  Cd9       1.0  0.22463  0.7683799999999997  0.28148  1.0000
  Cd  Cd10      1.0  0.38962  0.36964999999999987  0.0015  1.0000
  Cd  Cd11      1.0  0.13833  0.4953199999999999  0.11417  1.0000
  Cd  Cd12      1.0  0.22463  0.23161999999999996  0.71853  1.0000
  H   H1        1.0  0.67884  0.6750799999999999  0.43684  1.0000
  H   H2        1.0  0.78273  0.8930999999999998  0.22699  1.0000
  H   H3        1.0  0.90556  0.6581799999999998  0.4913899999999999  1.0000
  H   H4        1.0  0.013660000000000002  0.8047099999999998  0.54407  1.0000
  H   H5        1.0  0.5615  0.9621099999999998  0.20038999999999996  1.0000
  H   H6        1.0  0.4701600000000001  0.05583999999999999  0.3231  1.0000
  H   H7        1.0  0.67884  0.3249199999999999  0.56316  1.0000
  H   H8        1.0  0.78273  0.10690999999999999  0.77301  1.0000
  H   H9        1.0  0.90556  0.3418299999999999  0.50861  1.0000
  H   H10       1.0  0.013660000000000002  0.1953  0.45593  1.0000
  H   H11       1.0  0.5615  0.0379  0.7996099999999998  1.0000
  H   H12       1.0  0.4701600000000001  0.9441599999999999  0.6769  1.0000
  H   H13       1.0  0.32041  0.8247899999999998  0.93642  1.0000
  H   H14       1.0  0.21702999999999997  0.60627  0.72604  1.0000
  H   H15       1.0  0.0946  0.84204  0.9924199999999997  1.0000
  H   H16       1.0  0.98683  0.69572  0.04579  1.0000
  H   H17       1.0  0.43948  0.53791  0.7002299999999998  1.0000
  H   H18       1.0  0.52942  0.4439  0.82312  1.0000
  H   H19       1.0  0.32041  0.17522  0.06358  1.0000
  H   H20       1.0  0.21702999999999997  0.39374  0.27396  1.0000
  H   H21       1.0  0.0946  0.15797  0.00758  1.0000
  H   H22       1.0  0.98683  0.3042899999999999  0.95421  1.0000
  H   H23       1.0  0.43948  0.46208999999999995  0.29977  1.0000
  H   H24       1.0  0.52942  0.5561  0.17688  1.0000
  C   C1        1.0  0.78103  0.72391  0.59099  1.0000
  C   C2        1.0  0.84249  0.72236  0.50081  1.0000
  C   C3        1.0  0.9355500000000001  0.8115699999999998  0.49305  1.0000
  C   C4        1.0  0.01939  0.8090999999999998  0.40944999999999987  1.0000
  C   C5        1.0  0.69931  0.07559999999999997  0.23955  1.0000
  C   C6        1.0  0.62733  0.9803699999999997  0.25508  1.0000
  C   C7        1.0  0.53533  0.99281  0.33555  1.0000
  C   C8        1.0  0.43422000000000005  0.90799  0.34134  1.0000
  C   C9        1.0  0.78103  0.2761  0.40901  1.0000
  C   C10       1.0  0.84249  0.27765  0.49919  1.0000
  C   C11       1.0  0.9355500000000001  0.18843999999999994  0.50695  1.0000
  C   C12       1.0  0.01939  0.19090999999999994  0.59055  1.0000
  C   C13       1.0  0.69931  0.9244099999999997  0.76046  1.0000
  C   C14       1.0  0.62733  0.01963  0.74492  1.0000
  C   C15       1.0  0.53533  0.007199999999999998  0.6644499999999998  1.0000
  C   C16       1.0  0.43422000000000005  0.09202  0.65866  1.0000
  C   C17       1.0  0.21928  0.7763099999999997  0.09213  1.0000
  C   C18       1.0  0.15759  0.77787  0.00177  1.0000
  C   C19       1.0  0.06442  0.6886699999999998  0.99448  1.0000
  C   C20       1.0  0.98056  0.6909699999999998  0.91074  1.0000
  C   C21       1.0  0.30086  0.42448999999999987  0.73806  1.0000
  C   C22       1.0  0.37288  0.51944  0.75451  1.0000
  C   C23       1.0  0.46407  0.50687  0.83541  1.0000
  C   C24       1.0  0.56409  0.59209  0.8414699999999998  1.0000
  C   C25       1.0  0.21928  0.2237  0.9078699999999997  1.0000
  C   C26       1.0  0.15759  0.22214  0.9982299999999998  1.0000
  C   C27       1.0  0.06442  0.31134  0.00552  1.0000
  C   C28       1.0  0.98056  0.30904  0.08927  1.0000
  C   C29       1.0  0.30086  0.5755199999999998  0.26194  1.0000
  C   C30       1.0  0.37288  0.48055999999999993  0.24549  1.0000
  C   C31       1.0  0.46407  0.4931399999999999  0.16459  1.0000
  C   C32       1.0  0.56409  0.4079099999999999  0.15852999999999995  1.0000
  O   O1        1.0  0.6597  0.7574599999999998  0.60181  1.0000
  O   O2        1.0  0.8612300000000002  0.69524  0.64982  1.0000
  O   O3        1.0  0.73795  0.7312699999999998  0.43539  1.0000
  O   O4        1.0  0.85627  0.8953999999999998  0.50305  1.0000
  O   O5        1.0  0.02112  0.8810099999999997  0.3593399999999999  1.0000
  O   O6        1.0  0.09016  0.73451  0.39615  1.0000
  O   O7        1.0  0.81963  0.09054  0.27204  1.0000
  O   O8        1.0  0.63242  0.13828  0.19898  1.0000
  O   O9        1.0  0.72229  0.9045799999999999  0.27564  1.0000
  O   O10       1.0  0.61764  0.00458  0.40878  1.0000
  O   O11       1.0  0.43133000000000005  0.8528999999999998  0.40618  1.0000
  O   O12       1.0  0.35472  0.89978  0.27736  1.0000
  O   O13       1.0  0.6597  0.24254999999999993  0.39819  1.0000
  O   O14       1.0  0.8612300000000002  0.3047699999999999  0.35018  1.0000
  O   O15       1.0  0.73795  0.26874  0.56461  1.0000
  O   O16       1.0  0.85627  0.10461  0.4969499999999999  1.0000
  O   O17       1.0  0.02112  0.11898999999999998  0.64066  1.0000
  O   O18       1.0  0.09016  0.2655  0.60385  1.0000
  O   O19       1.0  0.81963  0.90946  0.72796  1.0000
  O   O20       1.0  0.63242  0.8617299999999998  0.80102  1.0000
  O   O21       1.0  0.72229  0.09542999999999997  0.72436  1.0000
  O   O22       1.0  0.61764  0.99543  0.59122  1.0000
  O   O23       1.0  0.43133000000000005  0.14709999999999998  0.59382  1.0000
  O   O24       1.0  0.35472  0.10021999999999999  0.72264  1.0000
  O   O25       1.0  0.34032  0.7424999999999998  0.10347999999999997  1.0000
  O   O26       1.0  0.13875  0.8048099999999998  0.15088  1.0000
  O   O27       1.0  0.26063  0.7688999999999998  0.93542  1.0000
  O   O28       1.0  0.14386  0.60482  0.00446  1.0000
  O   O29       1.0  0.9787500000000001  0.6185999999999998  0.86122  1.0000
  O   O30       1.0  0.91009  0.76548  0.89643  1.0000
  O   O31       1.0  0.18056  0.40952  0.77055  1.0000
  O   O32       1.0  0.36747  0.36218999999999996  0.69684  1.0000
  O   O33       1.0  0.2777  0.59528  0.77468  1.0000
  O   O34       1.0  0.38186  0.4952999999999999  0.90875  1.0000
  O   O35       1.0  0.56302  0.64825  0.90532  1.0000
  O   O36       1.0  0.64616  0.60002  0.7787799999999998  1.0000
  O   O37       1.0  0.34032  0.25751  0.89652  1.0000
  O   O38       1.0  0.13875  0.1952  0.84912  1.0000
  O   O39       1.0  0.26063  0.2311  0.06457999999999997  1.0000
  O   O40       1.0  0.14386  0.3951899999999999  0.99554  1.0000
  O   O41       1.0  0.9787500000000001  0.3814099999999999  0.13878  1.0000
  O   O42       1.0  0.91009  0.23453  0.10357  1.0000
  O   O43       1.0  0.18056  0.5904899999999998  0.22945  1.0000
  O   O44       1.0  0.36747  0.63782  0.30316  1.0000
  O   O45       1.0  0.2777  0.40473  0.22532  1.0000
  O   O46       1.0  0.38186  0.5047  0.09124999999999997  1.0000
  O   O47       1.0  0.56302  0.3517499999999999  0.09468  1.0000
  O   O48       1.0  0.64616  0.3999799999999999  0.22121999999999994  1.0000
