data_image0
_chemical_formula_structural       Mn8H32C64O32
_chemical_formula_sum              "Mn8 H32 C64 O32"
_cell_length_a       11.18234
_cell_length_b       13.04779
_cell_length_c       13.05127
_cell_angle_alpha    89.99953999999998
_cell_angle_beta     90.10854999999998
_cell_angle_gamma    90.00091999999998

_symmetry_space_group_name_H-M    'P 1'
_symmetry_Int_Tables_number       1

loop_
  _symmetry_equiv_pos_as_xyz
  'x,y,z'

loop_
  _atom_site_type_symbol
  _atom_site_label
  _atom_site_symmetry_multiplicity
  _atom_site_fract_x
  _atom_site_fract_y
  _atom_site_fract_z
  _atom_site_occupancy
  Mn  Mn1       1.0  0.30569  0.75984  0.4908499999999999  1.0000
  Mn  Mn2       1.0  0.17415  0.7381  0.72409  1.0000
  Mn  Mn3       1.0  0.80846  0.23984  0.5082499999999999  1.0000
  Mn  Mn4       1.0  0.67501  0.26281  0.27659  1.0000
  Mn  Mn5       1.0  0.05717  0.50862  0.7601199999999999  1.0000
  Mn  Mn6       1.0  0.9249100000000001  0.27584  0.73579  1.0000
  Mn  Mn7       1.0  0.5587  0.49158  0.23996  1.0000
  Mn  Mn8       1.0  0.42401  0.72361  0.26078  1.0000
  H   H1        1.0  0.42128000000000004  0.49575  0.48848999999999987  1.0000
  H   H2        1.0  0.35859  0.42831  0.80581  1.0000
  H   H3        1.0  0.46665  0.26212  0.7857599999999998  1.0000
  H   H4        1.0  0.54738  0.21169  0.6153  1.0000
  H   H5        1.0  0.05744  0.99125  0.3868199999999999  1.0000
  H   H6        1.0  0.96582  0.17611  0.12514  1.0000
  H   H7        1.0  0.14547  0.11066  0.03252  1.0000
  H   H8        1.0  0.27412  0.97744  0.11515  1.0000
  H   H9        1.0  0.92308  0.50423  0.5117  1.0000
  H   H10       1.0  0.85938  0.57161  0.19443  1.0000
  H   H11       1.0  0.96571  0.7388699999999999  0.21493  1.0000
  H   H12       1.0  0.04629  0.78936  0.38582  1.0000
  H   H13       1.0  0.55707  0.00999  0.61179  1.0000
  H   H14       1.0  0.46393000000000006  0.82564  0.8731099999999998  1.0000
  H   H15       1.0  0.64452  0.88914  0.96601  1.0000
  H   H16       1.0  0.7746000000000001  0.02133  0.88409  1.0000
  H   H17       1.0  0.17170000000000002  0.51197  0.4955  1.0000
  H   H18       1.0  0.10989  0.19425999999999996  0.42818999999999996  1.0000
  H   H19       1.0  0.21685000000000001  0.21479  0.2615199999999999  1.0000
  H   H20       1.0  0.29695  0.38599  0.21141  1.0000
  H   H21       1.0  0.80705  0.6132  0.98975  1.0000
  H   H22       1.0  0.71429  0.8747099999999999  0.17431999999999995  1.0000
  H   H23       1.0  0.89486  0.96727  0.11086  1.0000
  H   H24       1.0  0.024759999999999994  0.88504  0.97891  1.0000
  H   H25       1.0  0.67353  0.48817  0.50407  1.0000
  H   H26       1.0  0.60861  0.80548  0.57163  1.0000
  H   H27       1.0  0.71499  0.78511  0.7386699999999999  1.0000
  H   H28       1.0  0.7972200000000002  0.61478  0.7888199999999997  1.0000
  H   H29       1.0  0.30733  0.38729  0.00965  1.0000
  H   H30       1.0  0.21548  0.12568  0.8246599999999997  1.0000
  H   H31       1.0  0.39579  0.03313  0.8893999999999997  1.0000
  H   H32       1.0  0.52517  0.11567  0.02215  1.0000
  C   C1        1.0  0.32013  0.57154  0.65687  1.0000
  C   C2        1.0  0.5412  0.32483  0.43927999999999995  1.0000
  C   C3        1.0  0.24893000000000004  0.89363  0.3017699999999999  1.0000
  C   C4        1.0  0.89397  0.13079  0.31509  1.0000
  C   C5        1.0  0.48802  0.34984999999999994  0.54017  1.0000
  C   C6        1.0  0.42921  0.44356999999999996  0.5527  1.0000
  C   C7        1.0  0.38165  0.47137  0.6478399999999999  1.0000
  C   C8        1.0  0.39501  0.40563  0.7320199999999999  1.0000
  C   C9        1.0  0.4551900000000001  0.31257  0.7201999999999997  1.0000
  C   C10       1.0  0.50065  0.2841  0.6248299999999999  1.0000
  C   C11       1.0  0.17239  0.9748499999999999  0.25485  1.0000
  C   C12       1.0  0.07516  0.01585  0.30866  1.0000
  C   C13       1.0  0.99996  0.08721  0.26102  1.0000
  C   C14       1.0  0.02486  0.12022  0.16079999999999997  1.0000
  C   C15       1.0  0.12448  0.08263  0.10883999999999998  1.0000
  C   C16       1.0  0.19721  0.00904  0.15501999999999994  1.0000
  C   C17       1.0  0.82241  0.42836  0.34354  1.0000
  C   C18       1.0  0.04147  0.67566  0.56101  1.0000
  C   C19       1.0  0.7506900000000001  0.10587  0.69713  1.0000
  C   C20       1.0  0.39154  0.87122  0.68387  1.0000
  C   C21       1.0  0.9879800000000001  0.6507500000000002  0.4602999999999999  1.0000
  C   C22       1.0  0.93043  0.55656  0.4475999999999999  1.0000
  C   C23       1.0  0.8834  0.52861  0.35231  1.0000
  C   C24       1.0  0.8958200000000001  0.59457  0.26823  1.0000
  C   C25       1.0  0.95486  0.6881600000000001  0.28033  1.0000
  C   C26       1.0  0.0  0.71678  0.37587  1.0000
  C   C27       1.0  0.6730100000000001  0.025089999999999998  0.7437499999999999  1.0000
  C   C28       1.0  0.57476  0.98512  0.6899299999999998  1.0000
  C   C29       1.0  0.4985  0.91452  0.7374699999999998  1.0000
  C   C30       1.0  0.52345  0.8811699999999999  0.83766  1.0000
  C   C31       1.0  0.6237700000000002  0.91766  0.88973  1.0000
  C   C32       1.0  0.69737  0.99062  0.84372  1.0000
  C   C33       1.0  0.07163  0.34254  0.57132  1.0000
  C   C34       1.0  0.29074  0.56107  0.32461  1.0000
  C   C35       1.0  0.99979  0.69803  0.89394  1.0000
  C   C36       1.0  0.64241  0.68476  0.12849  1.0000
  C   C37       1.0  0.23739  0.46033  0.34957  1.0000
  C   C38       1.0  0.17935  0.44764  0.44345  1.0000
  C   C39       1.0  0.13258  0.35218  0.4712099999999999  1.0000
  C   C40       1.0  0.14588  0.26818  0.4053  1.0000
  C   C41       1.0  0.20541000000000004  0.28025  0.31206999999999996  1.0000
  C   C42       1.0  0.2502600000000001  0.3758699999999999  0.28368  1.0000
  C   C43       1.0  0.92276  0.74501  0.9747899999999998  1.0000
  C   C44       1.0  0.8247200000000001  0.69132  0.01476  1.0000
  C   C45       1.0  0.74876  0.73894  0.08544999999999997  1.0000
  C   C46       1.0  0.77369  0.8390900000000001  0.11884  1.0000
  C   C47       1.0  0.87405  0.89097  0.08243999999999999  1.0000
  C   C48       1.0  0.94745  0.8448499999999999  0.00945  1.0000
  C   C49       1.0  0.57311  0.6565900000000001  0.42701999999999996  1.0000
  C   C50       1.0  0.7926900000000001  0.43929  0.6754599999999997  1.0000
  C   C51       1.0  0.50149  0.30204  0.10608  1.0000
  C   C52       1.0  0.14307  0.31542  0.86964  1.0000
  C   C53       1.0  0.73872  0.53986  0.65037  1.0000
  C   C54       1.0  0.68067  0.55245  0.55626  1.0000
  C   C55       1.0  0.63317  0.6476599999999999  0.52808  1.0000
  C   C56       1.0  0.64525  0.73166  0.59427  1.0000
  C   C57       1.0  0.70459  0.7197  0.68784  1.0000
  C   C58       1.0  0.7505500000000002  0.62443  0.71633  1.0000
  C   C59       1.0  0.4232600000000001  0.25537  0.02551  1.0000
  C   C60       1.0  0.32524  0.30912  0.985  1.0000
  C   C61       1.0  0.24948  0.26152  0.91376  1.0000
  C   C62       1.0  0.27458  0.16131000000000004  0.88057  1.0000
  C   C63       1.0  0.37466  0.10938  0.9177  1.0000
  C   C64       1.0  0.44783000000000006  0.15553  0.99104  1.0000
  O   O1        1.0  0.34552  0.6405200000000001  0.59186  1.0000
  O   O2        1.0  0.24337  0.58631  0.73014  1.0000
  O   O3        1.0  0.51013  0.37374  0.35911  1.0000
  O   O4        1.0  0.62155  0.25248  0.4335699999999999  1.0000
  O   O5        1.0  0.32243  0.8483  0.24161  1.0000
  O   O6        1.0  0.23617  0.87349  0.39651  1.0000
  O   O7        1.0  0.81151  0.16659  0.25666  1.0000
  O   O8        1.0  0.89132  0.13107  0.4123899999999999  1.0000
  O   O9        1.0  0.84862  0.35935000000000006  0.40829999999999994  1.0000
  O   O10       1.0  0.7448  0.41377  0.27084  1.0000
  O   O11       1.0  0.012000000000000002  0.62619  0.6411299999999998  1.0000
  O   O12       1.0  0.1211  0.7484799999999999  0.5667199999999999  1.0000
  O   O13       1.0  0.82408  0.15113  0.75784  1.0000
  O   O14       1.0  0.73905  0.1259  0.60214  1.0000
  O   O15       1.0  0.30864  0.8375  0.7429899999999999  1.0000
  O   O16       1.0  0.3885  0.86894  0.5865599999999999  1.0000
  O   O17       1.0  0.09687000000000001  0.40749  0.6404099999999998  1.0000
  O   O18       1.0  0.9952700000000001  0.26867  0.58572  1.0000
  O   O19       1.0  0.2608  0.64126  0.37389  1.0000
  O   O20       1.0  0.37031  0.56663  0.25193  1.0000
  O   O21       1.0  0.07318  0.75848  0.84865  1.0000
  O   O22       1.0  0.9875900000000001  0.60318  0.8738699999999998  1.0000
  O   O23       1.0  0.55792  0.74281  0.1614  1.0000
  O   O24       1.0  0.64207  0.58741  0.13129  1.0000
  O   O25       1.0  0.59992  0.59109  0.35893  1.0000
  O   O26       1.0  0.49649  0.72954  0.41063999999999995  1.0000
  O   O27       1.0  0.76341  0.35886000000000007  0.62608  1.0000
  O   O28       1.0  0.87254  0.43366  0.74817  1.0000
  O   O29       1.0  0.57569  0.24174  0.15082  1.0000
  O   O30       1.0  0.4899  0.39696  0.12624  1.0000
  O   O31       1.0  0.06077  0.2569  0.83357  1.0000
  O   O32       1.0  0.14007  0.41278  0.869  1.0000
