data_image0
_chemical_formula_structural       Ca6H24C48O24
_chemical_formula_sum              "Ca6 H24 C48 O24"
_cell_length_a       10.92712
_cell_length_b       13.9934
_cell_length_c       14.8967
_cell_angle_alpha    76.07092
_cell_angle_beta     68.65662
_cell_angle_gamma    67.15056

_space_group_name_H-M_alt    "P 1"
_space_group_IT_number       1

loop_
  _space_group_symop_operation_xyz
  'x, y, z'

loop_
  _atom_site_type_symbol
  _atom_site_label
  _atom_site_symmetry_multiplicity
  _atom_site_fract_x
  _atom_site_fract_y
  _atom_site_fract_z
  _atom_site_occupancy
  Ca  Ca1       1.0  0.5232800000000001  0.97227  0.37594  1.0000
  Ca  Ca2       1.0  0.8697500000000002  0.52783  0.12374999999999999  1.0000
  Ca  Ca3       1.0  0.47670999999999997  0.027730000000000005  0.62406  1.0000
  Ca  Ca4       1.0  0.1302300000000001  0.47218  0.8762499999999999  1.0000
  Ca  Ca5       1.0  0.78999  0.74992  0.25002  1.0000
  Ca  Ca6       1.0  0.2099900000000001  0.2500899999999999  0.74998  1.0000
  H   H1        1.0  0.72125  0.18154  0.25319  1.0000
  H   H2        1.0  0.81074  0.32276  0.15179  1.0000
  H   H3        1.0  0.15404999999999996  0.09636000000000004  0.9748799999999999  1.0000
  H   H4        1.0  0.06373000000000005  0.95444  0.08044  1.0000
  H   H5        1.0  0.6344800000000002  0.82788  0.06916  1.0000
  H   H6        1.0  0.35932  0.14297  0.10525  1.0000
  H   H7        1.0  0.15536  0.31898  0.24607  1.0000
  H   H8        1.0  0.28434000000000004  0.17752  0.34768  1.0000
  H   H9        1.0  0.22518  0.40342  0.52561  1.0000
  H   H10       1.0  0.09902000000000001  0.54553  0.41991  1.0000
  H   H11       1.0  0.5317600000000001  0.6722700000000001  0.43104  1.0000
  H   H12       1.0  0.6074999999999999  0.35676  0.39496  1.0000
  H   H13       1.0  0.27872999999999987  0.8184600000000002  0.74681  1.0000
  H   H14       1.0  0.1892400000000001  0.67725  0.8482099999999999  1.0000
  H   H15       1.0  0.84594  0.90365  0.02512  1.0000
  H   H16       1.0  0.9362500000000002  0.04557000000000002  0.9195599999999998  1.0000
  H   H17       1.0  0.36551000000000006  0.17213  0.9308399999999998  1.0000
  H   H18       1.0  0.64067  0.8570400000000002  0.8947499999999998  1.0000
  H   H19       1.0  0.8446200000000001  0.68102  0.75393  1.0000
  H   H20       1.0  0.71564  0.82249  0.65232  1.0000
  H   H21       1.0  0.77481  0.59659  0.47439  1.0000
  H   H22       1.0  0.90096  0.45446999999999993  0.58009  1.0000
  H   H23       1.0  0.4682200000000001  0.3277300000000001  0.56896  1.0000
  H   H24       1.0  0.39248  0.64324  0.60504  1.0000
  C   C1        1.0  0.82746  0.97667  0.23424  1.0000
  C   C2        1.0  0.88744  0.05974  0.17302  1.0000
  C   C3        1.0  0.81646  0.16382999999999998  0.19269  1.0000
  C   C4        1.0  0.8670099999999998  0.24275  0.13534  1.0000
  C   C5        1.0  0.98917  0.21859000000000003  0.05645  1.0000
  C   C6        1.0  0.04314000000000005  0.30294  0.99608  1.0000
  C   C7        1.0  0.06012999999999999  0.1145  0.03627  1.0000
  C   C8        1.0  0.010080000000000004  0.0354  0.09483  1.0000
  C   C9        1.0  0.4949700000000001  0.96825  0.20043999999999998  1.0000
  C   C10       1.0  0.49662000000000006  0.98375  0.09731  1.0000
  C   C11       1.0  0.57579  0.90277  0.03831  1.0000
  C   C12       1.0  0.42037  0.08113  0.05849  1.0000
  C   C13       1.0  0.03749999999999996  0.52353  0.26604  1.0000
  C   C14       1.0  0.11983999999999992  0.4405000000000001  0.32693  1.0000
  C   C15       1.0  0.17242999999999997  0.33653  0.30685  1.0000
  C   C16       1.0  0.24436000000000002  0.25751  0.36422  1.0000
  C   C17       1.0  0.26356000000000007  0.28142  0.4435  1.0000
  C   C18       1.0  0.34124  0.19699  0.50395  1.0000
  C   C19       1.0  0.2106600000000001  0.38542  0.46397  1.0000
  C   C20       1.0  0.1403100000000001  0.46463  0.40537  1.0000
  C   C21       1.0  0.6634000000000001  0.53157  0.29973  1.0000
  C   C22       1.0  0.5778600000000002  0.51617  0.40285999999999994  1.0000
  C   C23       1.0  0.51709  0.5973  0.4617799999999999  1.0000
  C   C24       1.0  0.56002  0.41875  0.44163  1.0000
  C   C25       1.0  0.17252000000000003  0.02334000000000003  0.7657599999999998  1.0000
  C   C26       1.0  0.11254999999999996  0.94027  0.82698  1.0000
  C   C27       1.0  0.18352000000000007  0.8361799999999999  0.80731  1.0000
  C   C28       1.0  0.13297999999999993  0.75725  0.86466  1.0000
  C   C29       1.0  0.010820000000000045  0.78142  0.9435499999999999  1.0000
  C   C30       1.0  0.95685  0.6970600000000001  0.00392  1.0000
  C   C31       1.0  0.93985  0.88551  0.9637299999999998  1.0000
  C   C32       1.0  0.9899000000000001  0.96461  0.9051699999999998  1.0000
  C   C33       1.0  0.50502  0.03176  0.79955  1.0000
  C   C34       1.0  0.5033700000000001  0.016260000000000045  0.9026899999999999  1.0000
  C   C35       1.0  0.42420000000000013  0.09723  0.96169  1.0000
  C   C36       1.0  0.5796099999999998  0.91888  0.94151  1.0000
  C   C37       1.0  0.9624900000000001  0.47647  0.73396  1.0000
  C   C38       1.0  0.8801400000000003  0.5594999999999999  0.67307  1.0000
  C   C39       1.0  0.8275499999999999  0.66348  0.69315  1.0000
  C   C40       1.0  0.7556199999999998  0.7425  0.63578  1.0000
  C   C41       1.0  0.73642  0.71859  0.5565  1.0000
  C   C42       1.0  0.65875  0.80301  0.49605  1.0000
  C   C43       1.0  0.78933  0.61458  0.53603  1.0000
  C   C44       1.0  0.8596699999999999  0.53538  0.59463  1.0000
  C   C45       1.0  0.33658  0.46843  0.70027  1.0000
  C   C46       1.0  0.4221200000000003  0.48384  0.59714  1.0000
  C   C47       1.0  0.4828899999999997  0.40271  0.53822  1.0000
  C   C48       1.0  0.4399699999999999  0.58126  0.55837  1.0000
  O   O1        1.0  0.7215000000000001  0.0050399999999999985  0.30853  1.0000
  O   O2        1.0  0.8813999999999999  0.8852700000000001  0.20892  1.0000
  O   O3        1.0  0.13912  0.2871899999999999  0.91444  1.0000
  O   O4        1.0  0.9949199999999999  0.39318  0.02652  1.0000
  O   O5        1.0  0.58195  0.88544  0.23185  1.0000
  O   O6        1.0  0.40969  0.03824000000000002  0.25552  1.0000
  O   O7        1.0  0.03230000000000004  0.49493999999999994  0.19229  1.0000
  O   O8        1.0  0.976  0.61505  0.29114  1.0000
  O   O9        1.0  0.33964000000000005  0.21265000000000006  0.58587  1.0000
  O   O10       1.0  0.41361000000000003  0.10687000000000003  0.47339999999999993  1.0000
  O   O11       1.0  0.6989500000000001  0.6145299999999998  0.26815  1.0000
  O   O12       1.0  0.7026599999999998  0.46143  0.24478  1.0000
  O   O13       1.0  0.27848000000000006  0.99497  0.69147  1.0000
  O   O14       1.0  0.11858000000000006  0.11473999999999998  0.79108  1.0000
  O   O15       1.0  0.8608600000000001  0.71282  0.08556  1.0000
  O   O16       1.0  0.0050599999999998485  0.6068300000000002  0.97348  1.0000
  O   O17       1.0  0.41803000000000023  0.11456000000000005  0.7681499999999998  1.0000
  O   O18       1.0  0.59029  0.96177  0.74448  1.0000
  O   O19       1.0  0.96768  0.50506  0.80771  1.0000
  O   O20       1.0  0.023979999999999998  0.3849600000000001  0.70886  1.0000
  O   O21       1.0  0.6603400000000001  0.78736  0.4141299999999999  1.0000
  O   O22       1.0  0.5863800000000002  0.89314  0.52659  1.0000
  O   O23       1.0  0.3010399999999999  0.38547000000000003  0.73185  1.0000
  O   O24       1.0  0.2973300000000001  0.5385699999999998  0.7552199999999999  1.0000
