data_image0
_chemical_formula_structural       Zn8H16C52O32
_chemical_formula_sum              "Zn8 H16 C52 O32"
_cell_length_a       12.19605
_cell_length_b       14.14727
_cell_length_c       15.50107
_cell_angle_alpha    90.04767
_cell_angle_beta     97.45359
_cell_angle_gamma    90.01215

_symmetry_space_group_name_H-M    'P 1'
_symmetry_Int_Tables_number       1

loop_
  _symmetry_equiv_pos_as_xyz
  'x,y,z'

loop_
  _atom_site_type_symbol
  _atom_site_label
  _atom_site_symmetry_multiplicity
  _atom_site_fract_x
  _atom_site_fract_y
  _atom_site_fract_z
  _atom_site_occupancy
  Zn  Zn1       1.0  0.3755  0.21216999999999994  0.4414400000000001  1.0000
  Zn  Zn2       1.0  0.27513  0.12204999999999998  0.26613  1.0000
  Zn  Zn3       1.0  0.62472  0.71202  0.05939000000000001  1.0000
  Zn  Zn4       1.0  0.7249600000000002  0.62199  0.23477000000000006  1.0000
  Zn  Zn5       1.0  0.6245100000000001  0.78783  0.5585600000000002  1.0000
  Zn  Zn6       1.0  0.72488  0.87795  0.73387  1.0000
  Zn  Zn7       1.0  0.37528  0.28798  0.9406200000000001  1.0000
  Zn  Zn8       1.0  0.27504  0.37801  0.76523  1.0000
  H   H1        1.0  0.03491000000000001  0.53494  0.15736000000000006  1.0000
  H   H2        1.0  0.30667  0.56826  0.03321000000000002  1.0000
  H   H3        1.0  0.15197  0.35926  0.18014  1.0000
  H   H4        1.0  0.4919  0.43708999999999987  0.2567300000000001  1.0000
  H   H5        1.0  0.9638500000000001  0.03325  0.34241  1.0000
  H   H6        1.0  0.6937100000000003  0.06654  0.4682100000000001  1.0000
  H   H7        1.0  0.8484800000000002  0.85825  0.3205000000000001  1.0000
  H   H8        1.0  0.50853  0.9354499999999998  0.24413000000000007  1.0000
  H   H9        1.0  0.96509  0.46505  0.84265  1.0000
  H   H10       1.0  0.69334  0.43174  0.9667900000000003  1.0000
  H   H11       1.0  0.84804  0.64074  0.8198600000000003  1.0000
  H   H12       1.0  0.50811  0.56291  0.7432700000000002  1.0000
  H   H13       1.0  0.03615999999999999  0.9667499999999998  0.65759  1.0000
  H   H14       1.0  0.30629999999999996  0.9334599999999997  0.53179  1.0000
  H   H15       1.0  0.15153000000000005  0.14175  0.6795100000000002  1.0000
  H   H16       1.0  0.4914800000000001  0.06455  0.7558700000000003  1.0000
  C   C1        1.0  0.01987000000000001  0.5184  0.08830000000000003  1.0000
  C   C2        1.0  0.4088600000000001  0.50672  0.14223  1.0000
  C   C3        1.0  0.21523  0.4665  0.10079  1.0000
  C   C4        1.0  0.1061  0.4813599999999999  0.0472  1.0000
  C   C5        1.0  0.9153000000000002  0.5378499999999999  0.04282000000000001  1.0000
  C   C6        1.0  0.30948000000000003  0.51809  0.08666  1.0000
  C   C7        1.0  0.32231  0.3910999999999999  0.22593000000000005  1.0000
  C   C8        1.0  0.83104  0.58405  0.09116000000000003  1.0000
  C   C9        1.0  0.22311  0.402  0.16963000000000006  1.0000
  C   C10       1.0  0.41511  0.44437  0.21305000000000004  1.0000
  C   C11       1.0  0.5082  0.5639199999999999  0.12986  1.0000
  C   C12       1.0  0.32713  0.31905  0.29587  1.0000
  C   C13       1.0  0.3241  0.19453  0.09984000000000003  1.0000
  C   C14       1.0  0.9794200000000002  0.017439999999999997  0.41156  1.0000
  C   C15       1.0  0.59116  0.005509999999999999  0.3587100000000001  1.0000
  C   C16       1.0  0.78476  0.96501  0.4003500000000001  1.0000
  C   C17       1.0  0.8939000000000001  0.98049  0.4535200000000001  1.0000
  C   C18       1.0  0.08408  0.03783  0.4563600000000001  1.0000
  C   C19       1.0  0.6904900000000002  0.016509999999999997  0.4145500000000001  1.0000
  C   C20       1.0  0.67803  0.8896499999999998  0.2751800000000001  1.0000
  C   C21       1.0  0.16772  0.084  0.40738  1.0000
  C   C22       1.0  0.7771900000000002  0.9005799999999998  0.3314000000000001  1.0000
  C   C23       1.0  0.58518  0.94292  0.2879600000000001  1.0000
  C   C24       1.0  0.49203000000000013  0.06355  0.37047000000000013  1.0000
  C   C25       1.0  0.67336  0.8184499999999998  0.20456000000000005  1.0000
  C   C26       1.0  0.6780900000000001  0.6950699999999997  0.4000100000000001  1.0000
  C   C27       1.0  0.9801300000000002  0.48159999999999986  0.9117  1.0000
  C   C28       1.0  0.59114  0.4932799999999999  0.8577700000000003  1.0000
  C   C29       1.0  0.7847800000000001  0.5335  0.8992100000000002  1.0000
  C   C30       1.0  0.8939000000000001  0.51864  0.9528100000000003  1.0000
  C   C31       1.0  0.08471000000000005  0.46214999999999995  0.9571800000000003  1.0000
  C   C32       1.0  0.69053  0.4819099999999999  0.91334  1.0000
  C   C33       1.0  0.67769  0.60889  0.77407  1.0000
  C   C34       1.0  0.16897000000000006  0.41594999999999993  0.9088400000000002  1.0000
  C   C35       1.0  0.7769000000000001  0.598  0.83037  1.0000
  C   C36       1.0  0.5849000000000001  0.55562  0.78695  1.0000
  C   C37       1.0  0.4918100000000001  0.43608  0.8701400000000002  1.0000
  C   C38       1.0  0.67288  0.6809499999999999  0.7041300000000003  1.0000
  C   C39       1.0  0.6759000000000002  0.8054699999999999  0.9001700000000002  1.0000
  C   C40       1.0  0.02058000000000002  0.98255  0.58844  1.0000
  C   C41       1.0  0.40885  0.9944899999999998  0.6412900000000001  1.0000
  C   C42       1.0  0.21525  0.03499  0.59965  1.0000
  C   C43       1.0  0.10611000000000005  0.019509999999999993  0.5464800000000002  1.0000
  C   C44       1.0  0.91592  0.9621599999999998  0.5436400000000002  1.0000
  C   C45       1.0  0.30952  0.98349  0.5854500000000002  1.0000
  C   C46       1.0  0.32198000000000004  0.11034999999999998  0.7248200000000002  1.0000
  C   C47       1.0  0.83229  0.916  0.5926200000000003  1.0000
  C   C48       1.0  0.22281000000000006  0.09941  0.6686000000000002  1.0000
  C   C49       1.0  0.41483000000000014  0.05708  0.7120400000000002  1.0000
  C   C50       1.0  0.50797  0.9364499999999998  0.6295400000000002  1.0000
  C   C51       1.0  0.32664000000000004  0.18154999999999996  0.7954400000000003  1.0000
  C   C52       1.0  0.3219200000000001  0.3049300000000001  0.5999900000000002  1.0000
  O   O1        1.0  0.76089  0.63782  0.04744  1.0000
  O   O2        1.0  0.8388500000000001  0.56647  0.17298000000000005  1.0000
  O   O3        1.0  0.5948900000000001  0.54833  0.18337  1.0000
  O   O4        1.0  0.50021  0.62459  0.06812  1.0000
  O   O5        1.0  0.24893000000000004  0.25706  0.28957  1.0000
  O   O6        1.0  0.39272  0.20930999999999994  0.047850000000000004  1.0000
  O   O7        1.0  0.31616  0.12306999999999997  0.14705000000000004  1.0000
  O   O8        1.0  0.40537  0.31868  0.35893  1.0000
  O   O9        1.0  0.23875  0.13742999999999997  0.45059  1.0000
  O   O10       1.0  0.15924  0.06662  0.32539  1.0000
  O   O11       1.0  0.4059500000000001  0.04903  0.31573  1.0000
  O   O12       1.0  0.49966000000000005  0.12376999999999999  0.43273  1.0000
  O   O13       1.0  0.75197  0.75695  0.20894000000000004  1.0000
  O   O14       1.0  0.60791  0.7097499999999998  0.45096000000000014  1.0000
  O   O15       1.0  0.68348  0.62296  0.3523900000000001  1.0000
  O   O16       1.0  0.59426  0.81843  0.14224  1.0000
  O   O17       1.0  0.23912000000000005  0.36218  0.9525600000000002  1.0000
  O   O18       1.0  0.16115  0.43353  0.82702  1.0000
  O   O19       1.0  0.40512  0.4516699999999999  0.8166300000000002  1.0000
  O   O20       1.0  0.49979  0.3753999999999999  0.9318800000000003  1.0000
  O   O21       1.0  0.7510800000000001  0.7429399999999998  0.71043  1.0000
  O   O22       1.0  0.60728  0.79069  0.9521500000000003  1.0000
  O   O23       1.0  0.6838400000000001  0.87693  0.8529600000000003  1.0000
  O   O24       1.0  0.5946400000000002  0.6813199999999998  0.6410700000000003  1.0000
  O   O25       1.0  0.76126  0.8625699999999998  0.54941  1.0000
  O   O26       1.0  0.8407700000000002  0.93338  0.6746100000000003  1.0000
  O   O27       1.0  0.59406  0.9509699999999998  0.68427  1.0000
  O   O28       1.0  0.50035  0.87623  0.56727  1.0000
  O   O29       1.0  0.24804  0.24304999999999996  0.7910600000000002  1.0000
  O   O30       1.0  0.39210000000000006  0.29025  0.54904  1.0000
  O   O31       1.0  0.3165300000000001  0.37703999999999993  0.64761  1.0000
  O   O32       1.0  0.4057400000000001  0.18157  0.8577700000000003  1.0000
