data_image0
_chemical_formula_structural       Zn2Cd6H24C48O26
_chemical_formula_sum              "Zn2 Cd6 H24 C48 O26"
_cell_length_a       17.89607
_cell_length_b       17.89598
_cell_length_c       20.19746
_cell_angle_alpha    63.72604
_cell_angle_beta     63.72654
_cell_angle_gamma    59.99804

_space_group_name_H-M_alt    "P 1"
_space_group_IT_number       1

loop_
  _space_group_symop_operation_xyz
  'x, y, z'

loop_
  _atom_site_type_symbol
  _atom_site_label
  _atom_site_symmetry_multiplicity
  _atom_site_fract_x
  _atom_site_fract_y
  _atom_site_fract_z
  _atom_site_occupancy
  Zn  Zn1       1.0  0.29066000000000003  0.2906599999999998  0.12924  1.0000
  Zn  Zn2       1.0  0.7093300000000001  0.7093399999999997  0.87076  1.0000
  Cd  Cd1       1.0  0.30445999999999995  0.30446  0.28498  1.0000
  Cd  Cd2       1.0  0.3043400000000001  0.10628999999999994  0.2849  1.0000
  Cd  Cd3       1.0  0.10628999999999998  0.30435  0.2849  1.0000
  Cd  Cd4       1.0  0.8937100000000001  0.69566  0.7151  1.0000
  Cd  Cd5       1.0  0.6956500000000001  0.8937199999999995  0.7151  1.0000
  Cd  Cd6       1.0  0.69554  0.6955499999999998  0.71502  1.0000
  H   H1        1.0  0.07414000000000005  0.8343799999999998  0.55097  1.0000
  H   H2        1.0  0.8343800000000002  0.5404999999999998  0.55097  1.0000
  H   H3        1.0  0.54054  0.07409999999999999  0.55102  1.0000
  H   H4        1.0  0.45949999999999996  0.16562  0.44903  1.0000
  H   H5        1.0  0.9259000000000001  0.4594599999999999  0.44898  1.0000
  H   H6        1.0  0.16562000000000007  0.9258599999999999  0.44903  1.0000
  H   H7        1.0  0.9258499999999998  0.16562  0.44903  1.0000
  H   H8        1.0  0.16561000000000003  0.4595  0.44903  1.0000
  H   H9        1.0  0.4594600000000001  0.9259099999999999  0.44898  1.0000
  H   H10       1.0  0.5405  0.8343899999999997  0.55097  1.0000
  H   H11       1.0  0.07410000000000015  0.5405399999999998  0.55102  1.0000
  H   H12       1.0  0.83438  0.07415  0.55097  1.0000
  H   H13       1.0  0.43792  0.16733999999999996  0.95682  1.0000
  H   H14       1.0  0.16734000000000013  0.4379299999999998  0.95682  1.0000
  H   H15       1.0  0.43789000000000017  0.4378999999999999  0.9568299999999998  1.0000
  H   H16       1.0  0.5620700000000001  0.8326599999999997  0.04318  1.0000
  H   H17       1.0  0.5621100000000001  0.5621099999999998  0.04317  1.0000
  H   H18       1.0  0.8326599999999998  0.56208  0.04318  1.0000
  H   H19       1.0  0.5303699999999999  0.5303799999999999  0.85975  1.0000
  H   H20       1.0  0.5304100000000003  0.07939000000000007  0.8597899999999999  1.0000
  H   H21       1.0  0.0793800000000001  0.53042  0.8597899999999999  1.0000
  H   H22       1.0  0.92061  0.46959  0.14021  1.0000
  H   H23       1.0  0.46957999999999994  0.9206199999999998  0.14021  1.0000
  H   H24       1.0  0.4696199999999999  0.46963  0.14025  1.0000
  C   C1        1.0  0.9068200000000001  0.5224099999999998  0.52828  1.0000
  C   C2        1.0  0.52242  0.04248000000000001  0.5283  1.0000
  C   C3        1.0  0.04249000000000023  0.9068299999999996  0.52828  1.0000
  C   C4        1.0  0.95752  0.4775799999999998  0.47169999999999995  1.0000
  C   C5        1.0  0.09318000000000023  0.9575099999999995  0.4717199999999999  1.0000
  C   C6        1.0  0.4776  0.09318000000000001  0.4717199999999999  1.0000
  C   C7        1.0  0.09318000000000008  0.4775999999999999  0.4717199999999999  1.0000
  C   C8        1.0  0.4775700000000002  0.9575299999999995  0.47169999999999995  1.0000
  C   C9        1.0  0.9575  0.09318000000000001  0.4717199999999999  1.0000
  C   C10       1.0  0.0424799999999999  0.5224300000000001  0.5283  1.0000
  C   C11       1.0  0.9068199999999998  0.04249999999999995  0.52828  1.0000
  C   C12       1.0  0.5223999999999999  0.9068199999999995  0.52828  1.0000
  C   C13       1.0  0.6067500000000001  0.8981799999999995  0.88817  1.0000
  C   C14       1.0  0.8941499999999998  0.59478  0.61699  1.0000
  C   C15       1.0  0.5345599999999999  0.9058199999999997  0.02505  1.0000
  C   C16       1.0  0.5167  0.04539999999999996  0.92121  1.0000
  C   C17       1.0  0.55159  0.9508999999999999  0.9459199999999999  1.0000
  C   C18       1.0  0.9489699999999999  0.54519  0.55688  1.0000
  C   C19       1.0  0.8981699999999998  0.60676  0.88817  1.0000
  C   C20       1.0  0.5947700000000001  0.8941599999999998  0.61699  1.0000
  C   C21       1.0  0.90581  0.5345699999999998  0.02505  1.0000
  C   C22       1.0  0.04539000000000011  0.5166999999999998  0.92121  1.0000
  C   C23       1.0  0.95089  0.5516  0.9459199999999999  1.0000
  C   C24       1.0  0.5451800000000001  0.9489799999999997  0.55688  1.0000
  C   C25       1.0  0.6066500000000001  0.6066599999999998  0.88825  1.0000
  C   C26       1.0  0.8941299999999999  0.8941499999999999  0.61696  1.0000
  C   C27       1.0  0.5345800000000002  0.53459  0.02506  1.0000
  C   C28       1.0  0.51663  0.51664  0.92119  1.0000
  C   C29       1.0  0.5515  0.55151  0.94595  1.0000
  C   C30       1.0  0.9489700000000003  0.9489799999999996  0.55687  1.0000
  C   C31       1.0  0.3932499999999998  0.10181999999999998  0.11183  1.0000
  C   C32       1.0  0.10585000000000004  0.40522999999999987  0.3830099999999999  1.0000
  C   C33       1.0  0.4654300000000001  0.09419  0.97495  1.0000
  C   C34       1.0  0.48330000000000006  0.9546099999999998  0.07879  1.0000
  C   C35       1.0  0.4484100000000001  0.04910999999999998  0.054079999999999996  1.0000
  C   C36       1.0  0.05103000000000007  0.45480999999999994  0.44312  1.0000
  C   C37       1.0  0.39335  0.39334999999999987  0.11174999999999999  1.0000
  C   C38       1.0  0.10586000000000002  0.10585999999999995  0.38304  1.0000
  C   C39       1.0  0.46541  0.46542  0.97494  1.0000
  C   C40       1.0  0.48336  0.4833699999999999  0.07881  1.0000
  C   C41       1.0  0.4484899999999999  0.4485  0.05405  1.0000
  C   C42       1.0  0.051019999999999996  0.051030000000000006  0.44313  1.0000
  C   C43       1.0  0.10182000000000004  0.3932499999999999  0.11183  1.0000
  C   C44       1.0  0.4052299999999999  0.10585000000000003  0.3830099999999999  1.0000
  C   C45       1.0  0.09418000000000012  0.4654399999999998  0.97495  1.0000
  C   C46       1.0  0.9546  0.4833099999999999  0.07879  1.0000
  C   C47       1.0  0.04910999999999998  0.44840999999999986  0.054079999999999996  1.0000
  C   C48       1.0  0.45481  0.051030000000000006  0.44312  1.0000
  O   O1        1.0  0.8094100000000002  0.9373199999999996  0.63967  1.0000
  O   O2        1.0  0.9373199999999999  0.6136199999999998  0.6397  1.0000
  O   O3        1.0  0.6135799999999999  0.8094399999999998  0.63971  1.0000
  O   O4        1.0  0.38638  0.06268  0.3603  1.0000
  O   O5        1.0  0.19056000000000012  0.3864099999999998  0.36029  1.0000
  O   O6        1.0  0.06267999999999997  0.19058000000000005  0.36032999999999993  1.0000
  O   O7        1.0  0.19057999999999997  0.06268000000000003  0.36032999999999993  1.0000
  O   O8        1.0  0.06267000000000003  0.38638  0.3603  1.0000
  O   O9        1.0  0.38641000000000003  0.19057  0.36029  1.0000
  O   O10       1.0  0.6136100000000001  0.9373299999999996  0.6397  1.0000
  O   O11       1.0  0.8094299999999999  0.61359  0.63971  1.0000
  O   O12       1.0  0.9373099999999999  0.80942  0.63967  1.0000
  O   O13       1.0  0.6194200000000001  0.9438099999999998  0.8171699999999998  1.0000
  O   O14       1.0  0.6360600000000002  0.8124499999999997  0.91515  1.0000
  O   O15       1.0  0.94379  0.6194299999999998  0.8171699999999998  1.0000
  O   O16       1.0  0.81244  0.6360700000000001  0.91515  1.0000
  O   O17       1.0  0.6194399999999999  0.61945  0.81722  1.0000
  O   O18       1.0  0.63592  0.63593  0.9154599999999999  1.0000
  O   O19       1.0  0.38057  0.0562  0.18283  1.0000
  O   O20       1.0  0.3639299999999999  0.18755999999999995  0.08485  1.0000
  O   O21       1.0  0.38056  0.38056  0.18278  1.0000
  O   O22       1.0  0.3640700000000001  0.3640799999999999  0.08454  1.0000
  O   O23       1.0  0.056200000000000035  0.3805699999999999  0.18283  1.0000
  O   O24       1.0  0.18756000000000003  0.3639399999999999  0.08485  1.0000
  O   O25       1.0  0.25304999999999994  0.25305  0.24107999999999996  1.0000
  O   O26       1.0  0.7469399999999999  0.74695  0.75892  1.0000
