data_image0
_chemical_formula_structural       Mn4H32C76N8O24
_chemical_formula_sum              "Mn4 H32 C76 N8 O24"
_cell_length_a       4.46941
_cell_length_b       20.35508
_cell_length_c       25.89798
_cell_angle_alpha    90.07195
_cell_angle_beta     89.9501
_cell_angle_gamma    91.07162999999998

_space_group_name_H-M_alt    "P 1"
_space_group_IT_number       1

loop_
  _space_group_symop_operation_xyz
  'x, y, z'

loop_
  _atom_site_type_symbol
  _atom_site_label
  _atom_site_symmetry_multiplicity
  _atom_site_fract_x
  _atom_site_fract_y
  _atom_site_fract_z
  _atom_site_occupancy
  Mn  Mn1       1.0  0.19216  0.06272  0.95712  1.0000
  Mn  Mn2       1.0  0.30875  0.43764000000000003  0.45735  1.0000
  Mn  Mn3       1.0  0.8078500000000001  0.9372800000000002  0.04288  1.0000
  Mn  Mn4       1.0  0.69125  0.5623600000000001  0.54265  1.0000
  H   H1        1.0  0.74522  0.33890000000000003  0.40317  1.0000
  H   H2        1.0  0.80454  0.27657  0.32087  1.0000
  H   H3        1.0  0.021290000000000003  0.37232  0.26446  1.0000
  H   H4        1.0  0.99394  0.4317300000000001  0.34837999999999997  1.0000
  H   H5        1.0  0.05369  0.30016  0.1271  1.0000
  H   H6        1.0  0.09666  0.22611  0.0499  1.0000
  H   H7        1.0  0.87185  0.05689  0.13398  1.0000
  H   H8        1.0  0.83469  0.13395  0.20926  1.0000
  H   H9        1.0  0.75513  0.16129  0.9025799999999999  1.0000
  H   H10       1.0  0.69446  0.22278000000000003  0.82006  1.0000
  H   H11       1.0  0.47752000000000006  0.12676  0.7635399999999999  1.0000
  H   H12       1.0  0.5063  0.06806  0.8476099999999998  1.0000
  H   H13       1.0  0.44586  0.19944  0.62645  1.0000
  H   H14       1.0  0.40252  0.27369  0.54955  1.0000
  H   H15       1.0  0.62602  0.44305  0.63398  1.0000
  H   H16       1.0  0.66228  0.36599  0.7091099999999998  1.0000
  H   H17       1.0  0.25479  0.6611  0.59683  1.0000
  H   H18       1.0  0.19546  0.72343  0.6791299999999999  1.0000
  H   H19       1.0  0.9787099999999999  0.62768  0.73555  1.0000
  H   H20       1.0  0.00607000000000001  0.5682700000000002  0.6516199999999998  1.0000
  H   H21       1.0  0.94631  0.69984  0.8729  1.0000
  H   H22       1.0  0.9033400000000001  0.7738800000000001  0.95011  1.0000
  H   H23       1.0  0.12816  0.94311  0.8660199999999999  1.0000
  H   H24       1.0  0.16531000000000004  0.8660500000000002  0.79074  1.0000
  H   H25       1.0  0.24488  0.8387100000000001  0.09741999999999999  1.0000
  H   H26       1.0  0.30555  0.77722  0.17994  1.0000
  H   H27       1.0  0.52249  0.87324  0.23646999999999996  1.0000
  H   H28       1.0  0.49369999999999997  0.9319400000000002  0.1524  1.0000
  H   H29       1.0  0.55414  0.80056  0.3735499999999999  1.0000
  H   H30       1.0  0.59749  0.72631  0.45044999999999996  1.0000
  H   H31       1.0  0.37398  0.55695  0.36602  1.0000
  H   H32       1.0  0.33773  0.6340100000000001  0.29089  1.0000
  C   C1        1.0  0.58997  0.34574  0.37148  1.0000
  C   C2        1.0  0.62479  0.31123  0.32521  1.0000
  C   C3        1.0  0.4192  0.32108  0.28557  1.0000
  C   C4        1.0  0.19148  0.36504000000000003  0.29372  1.0000
  C   C5        1.0  0.16768000000000002  0.3962800000000001  0.34147  1.0000
  C   C6        1.0  0.64512  0.29614  0.20042999999999997  1.0000
  C   C7        1.0  0.6648  0.24986  0.15642  1.0000
  C   C8        1.0  0.4561799999999999  0.19841  0.14993  1.0000
  C   C9        1.0  0.22443  0.19015  0.18642999999999998  1.0000
  C   C10       1.0  0.20782  0.23215  0.2327  1.0000
  C   C11       1.0  0.89622  0.25956  0.12101  1.0000
  C   C12       1.0  0.9209999999999999  0.21810000000000002  0.07832  1.0000
  C   C13       1.0  0.72347  0.16503  0.07062  1.0000
  C   C14       1.0  0.4890999999999999  0.15195  0.10681  1.0000
  C   C15       1.0  0.28074  0.09924000000000001  0.10538  1.0000
  C   C16       1.0  0.04002  0.09594  0.13974  1.0000
  C   C17       1.0  0.014389999999999998  0.13921  0.18124  1.0000
  C   C18       1.0  0.31037  0.03667  0.07529  1.0000
  C   C19       1.0  0.74899  0.13086  0.01934  1.0000
  C   C20       1.0  0.91032  0.15420000000000003  0.87084  1.0000
  C   C21       1.0  0.87457  0.18823000000000004  0.82444  1.0000
  C   C22       1.0  0.08033  0.17826  0.78475  1.0000
  C   C23       1.0  0.30773  0.13427  0.79288  1.0000
  C   C24       1.0  0.33241  0.10348  0.8407699999999999  1.0000
  C   C25       1.0  0.85397  0.20355  0.69993  1.0000
  C   C26       1.0  0.83404  0.24979000000000007  0.65597  1.0000
  C   C27       1.0  0.04235  0.30131  0.64959  1.0000
  C   C28       1.0  0.27382  0.30964  0.68611  1.0000
  C   C29       1.0  0.29173  0.2675600000000001  0.7322599999999999  1.0000
  C   C30       1.0  0.60299  0.24011000000000002  0.6205299999999998  1.0000
  C   C31       1.0  0.57805  0.28164  0.57798  1.0000
  C   C32       1.0  0.77537  0.33477  0.57043  1.0000
  C   C33       1.0  0.00935  0.34786  0.60664  1.0000
  C   C34       1.0  0.21719  0.40069000000000005  0.60527  1.0000
  C   C35       1.0  0.45765000000000006  0.40401  0.63962  1.0000
  C   C36       1.0  0.48316999999999993  0.36069  0.68102  1.0000
  C   C37       1.0  0.18612  0.46317  0.5752  1.0000
  C   C38       1.0  0.75049  0.36899000000000004  0.51926  1.0000
  C   C39       1.0  0.41003  0.6542600000000001  0.6285299999999998  1.0000
  C   C40       1.0  0.37522  0.68877  0.67479  1.0000
  C   C41       1.0  0.5808  0.67892  0.71444  1.0000
  C   C42       1.0  0.8085299999999999  0.63496  0.7062899999999999  1.0000
  C   C43       1.0  0.83233  0.60372  0.65853  1.0000
  C   C44       1.0  0.35489  0.70386  0.79958  1.0000
  C   C45       1.0  0.3352  0.75014  0.84358  1.0000
  C   C46       1.0  0.54382  0.80159  0.85007  1.0000
  C   C47       1.0  0.7755699999999999  0.8098500000000001  0.81357  1.0000
  C   C48       1.0  0.79218  0.7678500000000001  0.7673  1.0000
  C   C49       1.0  0.10378  0.7404400000000002  0.87899  1.0000
  C   C50       1.0  0.07901000000000001  0.7818900000000001  0.92168  1.0000
  C   C51       1.0  0.27653  0.83497  0.92938  1.0000
  C   C52       1.0  0.51091  0.8480500000000001  0.8931899999999999  1.0000
  C   C53       1.0  0.71927  0.9007600000000001  0.8946199999999999  1.0000
  C   C54       1.0  0.95998  0.9040600000000001  0.8602699999999999  1.0000
  C   C55       1.0  0.9856200000000002  0.8607900000000002  0.81877  1.0000
  C   C56       1.0  0.68963  0.9633200000000001  0.9247099999999999  1.0000
  C   C57       1.0  0.25102  0.8691400000000001  0.9806699999999999  1.0000
  C   C58       1.0  0.08968  0.8458  0.12916  1.0000
  C   C59       1.0  0.12543  0.81177  0.17557  1.0000
  C   C60       1.0  0.9196800000000002  0.82174  0.21525999999999998  1.0000
  C   C61       1.0  0.69227  0.8657300000000001  0.20712  1.0000
  C   C62       1.0  0.6676  0.89652  0.15922999999999998  1.0000
  C   C63       1.0  0.14603  0.7964500000000001  0.30007  1.0000
  C   C64       1.0  0.16596  0.7502100000000002  0.34403  1.0000
  C   C65       1.0  0.95765  0.69869  0.35041  1.0000
  C   C66       1.0  0.72618  0.69036  0.31389  1.0000
  C   C67       1.0  0.70827  0.73244  0.26774  1.0000
  C   C68       1.0  0.39701  0.75989  0.3794699999999999  1.0000
  C   C69       1.0  0.42195  0.71836  0.42202  1.0000
  C   C70       1.0  0.22462999999999997  0.66523  0.42957  1.0000
  C   C71       1.0  0.9906599999999999  0.6521400000000002  0.3933599999999999  1.0000
  C   C72       1.0  0.78281  0.5993000000000002  0.39472999999999997  1.0000
  C   C73       1.0  0.54235  0.59598  0.3603799999999999  1.0000
  C   C74       1.0  0.51683  0.63931  0.31898  1.0000
  C   C75       1.0  0.81388  0.5368300000000001  0.4248  1.0000
  C   C76       1.0  0.24951  0.6310100000000001  0.48074  1.0000
  N   N1        1.0  0.36517  0.38745000000000007  0.38042999999999993  1.0000
  N   N2        1.0  0.42771  0.28214  0.23844  1.0000
  N   N3        1.0  0.13569  0.11269  0.87989  1.0000
  N   N4        1.0  0.07268  0.21732  0.73774  1.0000
  N   N5        1.0  0.63483  0.61255  0.6195699999999998  1.0000
  N   N6        1.0  0.5723  0.71786  0.76156  1.0000
  N   N7        1.0  0.86432  0.8873100000000003  0.12012  1.0000
  N   N8        1.0  0.92733  0.7826800000000003  0.26226  1.0000
  O   O1        1.0  0.09326  0.020370000000000003  0.04496  1.0000
  O   O2        1.0  0.5224  0.9999  0.08905  1.0000
  O   O3        1.0  0.54128  0.08983  0.0074  1.0000
  O   O4        1.0  0.96833  0.14637000000000003  0.9898599999999999  1.0000
  O   O5        1.0  0.80576  0.34584  0.20335  1.0000
  O   O6        1.0  0.01387  0.22332  0.2661  1.0000
  O   O7        1.0  0.40265999999999996  0.4796  0.54471  1.0000
  O   O8        1.0  0.9730000000000001  0.49981  0.58893  1.0000
  O   O9        1.0  0.95821  0.41002  0.50733  1.0000
  O   O10       1.0  0.53109  0.3535600000000001  0.4898499999999999  1.0000
  O   O11       1.0  0.69262  0.15398  0.7031199999999997  1.0000
  O   O12       1.0  0.48532999999999993  0.27652000000000004  0.76568  1.0000
  O   O13       1.0  0.9067500000000001  0.97963  0.95505  1.0000
  O   O14       1.0  0.47759999999999997  9.99999999999998e-05  0.9109499999999998  1.0000
  O   O15       1.0  0.4587300000000001  0.9101700000000001  0.9925999999999999  1.0000
  O   O16       1.0  0.03167000000000002  0.8536300000000001  0.01014  1.0000
  O   O17       1.0  0.19424999999999998  0.65416  0.79665  1.0000
  O   O18       1.0  0.98614  0.77668  0.7339  1.0000
  O   O19       1.0  0.59735  0.5204  0.45529  1.0000
  O   O20       1.0  0.027  0.50019  0.41107  1.0000
  O   O21       1.0  0.04179  0.58998  0.49267  1.0000
  O   O22       1.0  0.46891  0.64644  0.51015  1.0000
  O   O23       1.0  0.30738  0.84601  0.29688  1.0000
  O   O24       1.0  0.51467  0.7234800000000001  0.23432  1.0000
