data_image0
_chemical_formula_structural       Cu8H36C40N16O12
_chemical_formula_sum              "Cu8 H36 C40 N16 O12"
_cell_length_a       7.70315
_cell_length_b       12.211480000000002
_cell_length_c       15.78007
_cell_angle_alpha    62.99550000000001
_cell_angle_beta     75.99183
_cell_angle_gamma    71.85548

_space_group_name_H-M_alt    "P 1"
_space_group_IT_number       1

loop_
  _space_group_symop_operation_xyz
  'x, y, z'

loop_
  _atom_site_type_symbol
  _atom_site_label
  _atom_site_symmetry_multiplicity
  _atom_site_fract_x
  _atom_site_fract_y
  _atom_site_fract_z
  _atom_site_occupancy
  Cu  Cu1       1.0  0.95854  0.57873  0.14209  1.0000
  Cu  Cu2       1.0  0.7756699999999999  0.54929  0.35303  1.0000
  Cu  Cu3       1.0  0.6836899999999999  0.92175  0.35596  1.0000
  Cu  Cu4       1.0  0.6826  0.95807  0.14232  1.0000
  Cu  Cu5       1.0  0.03564000000000006  0.42215  0.85416  1.0000
  Cu  Cu6       1.0  0.21573  0.45602  0.64146  1.0000
  Cu  Cu7       1.0  0.32127999999999995  0.07774999999999996  0.64441  1.0000
  Cu  Cu8       1.0  0.31836  0.04999000000000004  0.85419  1.0000
  H   H1        1.0  0.34251999999999994  0.64582  0.02729  1.0000
  H   H2        1.0  0.52242  0.6319199999999998  0.87112  1.0000
  H   H3        1.0  0.4040300000000001  0.52429  0.79909  1.0000
  H   H4        1.0  0.85061  0.67176  0.48064  1.0000
  H   H5        1.0  0.6404899999999999  0.72947  0.61406  1.0000
  H   H6        1.0  0.32630000000000015  0.6802199999999998  0.6605  1.0000
  H   H7        1.0  0.40775000000000006  0.6418999999999998  0.26037  1.0000
  H   H8        1.0  0.2473899999999999  0.6675400000000001  0.35593  1.0000
  H   H9        1.0  0.72401  0.72479  0.19195  1.0000
  H   H10       1.0  0.020640000000000134  0.85062  0.47176999999999997  1.0000
  H   H11       1.0  0.03400999999999997  0.86534  0.62712  1.0000
  H   H12       1.0  0.7398700000000001  0.97474  0.69876  1.0000
  H   H13       1.0  0.0073000000000000296  0.8203199999999999  0.022159999999999996  1.0000
  H   H14       1.0  0.9905200000000002  0.7696899999999999  0.88433  1.0000
  H   H15       1.0  0.67696  0.8281599999999999  0.83176  1.0000
  H   H16       1.0  0.3110200000000001  0.8679499999999999  0.23467  1.0000
  H   H17       1.0  0.26398  0.84306  0.1405  1.0000
  H   H18       1.0  0.6252199999999999  0.7793399999999998  0.30538  1.0000
  H   H19       1.0  0.6556399999999999  0.35129000000000005  0.96925  1.0000
  H   H20       1.0  0.47165  0.36733  0.12397  1.0000
  H   H21       1.0  0.58604  0.47711  0.19557  1.0000
  H   H22       1.0  0.14506000000000005  0.32059999999999994  0.51878  1.0000
  H   H23       1.0  0.3474  0.2724999999999999  0.37974  1.0000
  H   H24       1.0  0.65606  0.32972  0.32817  1.0000
  H   H25       1.0  0.58554  0.36672000000000005  0.73165  1.0000
  H   H26       1.0  0.7524399999999997  0.3407700000000001  0.63832  1.0000
  H   H27       1.0  0.2849800000000002  0.27829999999999994  0.8048299999999999  1.0000
  H   H28       1.0  0.9846599999999999  0.14457000000000003  0.52883  1.0000
  H   H29       1.0  0.97469  0.13142999999999996  0.37232000000000004  1.0000
  H   H30       1.0  0.2715099999999999  0.024389999999999995  0.30026  1.0000
  H   H31       1.0  0.9937600000000001  0.17314000000000002  0.98139  1.0000
  H   H32       1.0  0.012679999999999995  0.2296  0.11583  1.0000
  H   H33       1.0  0.32880000000000004  0.18042  0.16295  1.0000
  H   H34       1.0  0.69068  0.13918999999999998  0.7603  1.0000
  H   H35       1.0  0.7279399999999999  0.16863  0.85453  1.0000
  H   H36       1.0  0.36093000000000003  0.22539999999999988  0.69202  1.0000
  C   C1        1.0  0.29922000000000004  0.60548  0.98912  1.0000
  C   C2        1.0  0.39729000000000014  0.5980099999999998  0.90288  1.0000
  C   C3        1.0  0.3305100000000001  0.54121  0.86181  1.0000
  C   C4        1.0  0.7169100000000002  0.64829  0.50922  1.0000
  C   C5        1.0  0.60037  0.68087  0.58171  1.0000
  C   C6        1.0  0.4292000000000002  0.6492799999999997  0.61007  1.0000
  C   C7        1.0  0.08244999999999995  0.51601  0.98089  1.0000
  C   C8        1.0  0.50927  0.54398  0.51103  1.0000
  C   C9        1.0  0.13417000000000012  0.6201599999999999  0.27002  1.0000
  C   C10       1.0  0.26394000000000006  0.6836  0.28059  1.0000
  C   C11       1.0  0.9000800000000001  0.89098  0.51011  1.0000
  C   C12       1.0  0.9064900000000001  0.89916  0.5957399999999999  1.0000
  C   C13       1.0  0.7432800000000003  0.9561  0.6371  1.0000
  C   C14       1.0  0.8806800000000005  0.8494699999999995  0.99029  1.0000
  C   C15       1.0  0.8709500000000001  0.8212999999999998  0.91471  1.0000
  C   C16       1.0  0.69865  0.85723  0.88343  1.0000
  C   C17       1.0  0.5861500000000003  0.9791099999999998  0.51999  1.0000
  C   C18       1.0  0.5755700000000001  0.9601500000000001  0.98425  1.0000
  C   C19       1.0  0.02309000000000006  0.89178  0.22789  1.0000
  C   C20       1.0  0.22491000000000003  0.82676  0.21601  1.0000
  C   C21       1.0  0.6978100000000002  0.39166  0.00775  1.0000
  C   C22       1.0  0.5975499999999998  0.4004  0.09308000000000001  1.0000
  C   C23       1.0  0.6630200000000002  0.4577299999999999  0.13433  1.0000
  C   C24       1.0  0.27461  0.3496500000000001  0.48730999999999997  1.0000
  C   C25       1.0  0.38675  0.3225999999999999  0.41115  1.0000
  C   C26       1.0  0.55495  0.35791  0.38041  1.0000
  C   C27       1.0  0.91446  0.4799899999999999  0.01777  1.0000
  C   C28       1.0  0.47723999999999994  0.45868  0.48264  1.0000
  C   C29       1.0  0.85395  0.3928499999999999  0.7255  1.0000
  C   C30       1.0  0.7313000000000001  0.3257  0.71363  1.0000
  C   C31       1.0  0.10611999999999999  0.10448999999999996  0.49076  1.0000
  C   C32       1.0  0.10168999999999996  0.09766  0.40417  1.0000
  C   C33       1.0  0.26545  0.040990000000000006  0.3632  1.0000
  C   C34       1.0  0.12200000000000004  0.14939999999999998  0.01037  1.0000
  C   C35       1.0  0.13332999999999992  0.18122  0.08352  1.0000
  C   C36       1.0  0.30735000000000007  0.14989999999999995  0.11207  1.0000
  C   C37       1.0  0.41929  0.015079999999999993  0.48299  1.0000
  C   C38       1.0  0.43107  0.04567  0.01233  1.0000
  C   C39       1.0  0.9750000000000002  0.12087999999999999  0.76996  1.0000
  C   C40       1.0  0.7715000000000001  0.18303999999999998  0.77958  1.0000
  N   N1        1.0  0.14552999999999996  0.56396  0.0277  1.0000
  N   N2        1.0  0.1734400000000001  0.5025899999999999  0.898  1.0000
  N   N3        1.0  0.6683500000000003  0.58683  0.47026999999999997  1.0000
  N   N4        1.0  0.38259000000000004  0.5788799999999998  0.5781  1.0000
  N   N5        1.0  0.74303  0.93309  0.47184  1.0000
  N   N6        1.0  0.5827  0.9921299999999998  0.60275  1.0000
  N   N7        1.0  0.73344  0.9120999999999998  0.02843  1.0000
  N   N8        1.0  0.5513399999999997  0.9284699999999999  0.91494  1.0000
  N   N9        1.0  0.8513300000000003  0.43352999999999997  0.96978  1.0000
  N   N10       1.0  0.82236  0.49338  0.10032  1.0000
  N   N11       1.0  0.32257999999999987  0.41099  0.52641  1.0000
  N   N12       1.0  0.6015  0.42775  0.41299  1.0000
  N   N13       1.0  0.2621800000000001  0.06269999999999999  0.52975  1.0000
  N   N14       1.0  0.4243100000000001  0.0019199999999999768  0.3999  1.0000
  N   N15       1.0  0.27029  0.08846  0.97138  1.0000
  N   N16       1.0  0.45600999999999997  0.08039  0.07973  1.0000
  O   O1        1.0  0.14159000000000008  0.6222799999999998  0.18705  1.0000
  O   O2        1.0  0.02532999999999997  0.57266  0.34401  1.0000
  O   O3        1.0  0.7335799999999996  0.63396  0.21578  1.0000
  O   O4        1.0  0.9501700000000002  0.8796699999999998  0.31355  1.0000
  O   O5        1.0  0.9403800000000002  0.9507599999999998  0.15377  1.0000
  O   O6        1.0  0.5850400000000002  0.8714799999999998  0.28004  1.0000
  O   O7        1.0  0.85216  0.3806999999999999  0.8114  1.0000
  O   O8        1.0  0.95104  0.45343999999999984  0.65163  1.0000
  O   O9        1.0  0.2594199999999999  0.37051999999999985  0.77906  1.0000
  O   O10       1.0  0.05049000000000006  0.12466999999999988  0.68679  1.0000
  O   O11       1.0  0.05577999999999999  0.07242000000000005  0.8446199999999999  1.0000
  O   O12       1.0  0.4173  0.13444  0.71734  1.0000
