data_image0
_chemical_formula_structural       Mg6H24C72O26
_chemical_formula_sum              "Mg6 H24 C72 O26"
_cell_length_a       12.72635
_cell_length_b       12.7268
_cell_length_c       14.19795
_cell_angle_alpha    90.00411000000001
_cell_angle_beta     89.99955
_cell_angle_gamma    119.80429999999998

_symmetry_space_group_name_H-M    'P 1'
_symmetry_Int_Tables_number       1

loop_
  _symmetry_equiv_pos_as_xyz
  'x,y,z'

loop_
  _atom_site_type_symbol
  _atom_site_label
  _atom_site_symmetry_multiplicity
  _atom_site_fract_x
  _atom_site_fract_y
  _atom_site_fract_z
  _atom_site_occupancy
  Mg  Mg1       1.0  0.78361  0.28182000000000007  0.49975  1.0000
  Mg  Mg2       1.0  0.5013500000000001  0.7832800000000001  0.49987  1.0000
  Mg  Mg3       1.0  0.71767  0.5013700000000001  0.4997700000000001  1.0000
  Mg  Mg4       1.0  0.21646000000000004  0.7182500000000002  0.4997600000000001  1.0000
  Mg  Mg5       1.0  0.28223000000000004  0.4986000000000001  0.4997900000000001  1.0000
  Mg  Mg6       1.0  0.49869  0.21663000000000002  0.4997900000000001  1.0000
  H   H1        1.0  0.21211  0.76253  0.9328500000000002  1.0000
  H   H2        1.0  0.21558000000000008  0.7599300000000001  0.23987  1.0000
  H   H3        1.0  0.7618100000000002  0.55069  0.9326300000000002  1.0000
  H   H4        1.0  0.7591100000000001  0.5446  0.23985000000000004  1.0000
  H   H5        1.0  0.75914  0.54459  0.7595300000000003  1.0000
  H   H6        1.0  0.24087000000000006  0.45532000000000006  0.7596400000000002  1.0000
  H   H7        1.0  0.5506  0.78848  0.9329800000000003  1.0000
  H   H8        1.0  0.21531  0.75996  0.7597100000000002  1.0000
  H   H9        1.0  0.78793  0.23759  0.06669000000000001  1.0000
  H   H10       1.0  0.45526  0.21468000000000004  0.23993  1.0000
  H   H11       1.0  0.2381900000000001  0.4493400000000001  0.9327300000000002  1.0000
  H   H12       1.0  0.78792  0.23744000000000004  0.9327600000000003  1.0000
  H   H13       1.0  0.45541  0.21486  0.7595700000000002  1.0000
  H   H14       1.0  0.54453  0.7850300000000001  0.24006000000000002  1.0000
  H   H15       1.0  0.24086  0.45557  0.23991000000000007  1.0000
  H   H16       1.0  0.44949  0.21139  0.06678  1.0000
  H   H17       1.0  0.44936  0.21138000000000007  0.9326900000000002  1.0000
  H   H18       1.0  0.54465  0.78527  0.75984  1.0000
  H   H19       1.0  0.23815000000000008  0.4493400000000001  0.06681000000000001  1.0000
  H   H20       1.0  0.55061  0.78847  0.06693  1.0000
  H   H21       1.0  0.78459  0.24003  0.7596200000000001  1.0000
  H   H22       1.0  0.21216999999999994  0.76262  0.06674000000000002  1.0000
  H   H23       1.0  0.76166  0.55058  0.06674000000000002  1.0000
  H   H24       1.0  0.78464  0.24005  0.23983000000000004  1.0000
  C   C1        1.0  0.51381  0.3949  0.3553500000000001  1.0000
  C   C2        1.0  0.60489  0.08709000000000001  0.05100000000000001  1.0000
  C   C3        1.0  0.08733000000000003  0.48224000000000006  0.05100000000000001  1.0000
  C   C4        1.0  0.5139400000000002  0.39542  0.64421  1.0000
  C   C5        1.0  0.2932400000000001  0.8292900000000001  0.89664  1.0000
  C   C6        1.0  0.48607000000000006  0.60478  0.6442900000000003  1.0000
  C   C7        1.0  0.50002  0.9999800000000001  0.8979  1.0000
  C   C8        1.0  0.09223000000000006  0.4888300000000001  0.25155  1.0000
  C   C9        1.0  0.3952500000000001  0.9129600000000001  0.05103000000000001  1.0000
  C   C10       1.0  0.08736  0.48222000000000004  0.94839  1.0000
  C   C11       1.0  0.51129  0.60351  0.7480700000000001  1.0000
  C   C12       1.0  0.60468  0.11842000000000001  0.6441200000000002  1.0000
  C   C13       1.0  0.49996  0.49990000000000007  0.10161000000000003  1.0000
  C   C14       1.0  2.0000000000004708e-05  0.50005  0.8978800000000002  1.0000
  C   C15       1.0  0.9126  0.51778  0.9483600000000002  1.0000
  C   C16       1.0  0.11874000000000003  0.514  0.6441300000000001  1.0000
  C   C17       1.0  0.2940500000000001  0.8271400000000001  0.20074  1.0000
  C   C18       1.0  0.39516000000000007  0.88118  0.35522  1.0000
  C   C19       1.0  0.82876  0.5361900000000002  0.89647  1.0000
  C   C20       1.0  0.8264800000000001  0.53322  0.20072000000000007  1.0000
  C   C21       1.0  0.91259  0.51782  0.05097  1.0000
  C   C22       1.0  0.49996  0.49988000000000005  0.2032  1.0000
  C   C23       1.0  0.48618000000000006  0.60484  0.35544000000000003  1.0000
  C   C24       1.0  0.8266400000000002  0.53332  0.79857  1.0000
  C   C25       1.0  0.5001  1.0000000000000003e-05  0.20312000000000002  1.0000
  C   C26       1.0  0.48223000000000005  0.39488000000000006  0.94849  1.0000
  C   C27       1.0  0.9079300000000001  0.5114500000000001  0.74783  1.0000
  C   C28       1.0  0.9999399999999999  0.5  0.1015  1.0000
  C   C29       1.0  0.4999500000000001  0.49994000000000005  0.8980300000000001  1.0000
  C   C30       1.0  0.3951900000000001  0.91294  0.9484300000000002  1.0000
  C   C31       1.0  0.60334  0.09199000000000002  0.2514500000000001  1.0000
  C   C32       1.0  0.4887000000000001  0.3964300000000001  0.25158000000000014  1.0000
  C   C33       1.0  0.3952  0.88149  0.64415  1.0000
  C   C34       1.0  0.9999400000000003  0.50002  0.20312000000000002  1.0000
  C   C35       1.0  0.17341000000000006  0.46667000000000003  0.7986500000000002  1.0000
  C   C36       1.0  0.4999800000000001  0.99995  0.7963  1.0000
  C   C37       1.0  0.53613  0.70717  0.8967600000000002  1.0000
  C   C38       1.0  0.29385  0.8272  0.7987500000000002  1.0000
  C   C39       1.0  0.39661000000000013  0.9081300000000002  0.7479300000000001  1.0000
  C   C40       1.0  0.60334  0.09174  0.7478800000000002  1.0000
  C   C41       1.0  0.7068300000000002  0.17073  0.10282000000000002  1.0000
  C   C42       1.0  0.46667000000000003  0.29337  0.20082  1.0000
  C   C43       1.0  0.5113000000000001  0.6033400000000001  0.25165  1.0000
  C   C44       1.0  0.17127  0.46385  0.8965500000000002  1.0000
  C   C45       1.0  0.7067700000000001  0.17068  0.89657  1.0000
  C   C46       1.0  0.51775  0.60497  0.05114  1.0000
  C   C47       1.0  0.9076000000000001  0.51115  0.25149  1.0000
  C   C48       1.0  0.4666900000000001  0.29352000000000006  0.7986800000000002  1.0000
  C   C49       1.0  0.5332  0.7063600000000001  0.20092000000000004  1.0000
  C   C50       1.0  0.17343  0.46687  0.20078000000000004  1.0000
  C   C51       1.0  0.48855  0.39656000000000013  0.7479600000000002  1.0000
  C   C52       1.0  0.46382  0.29269  0.10293  1.0000
  C   C53       1.0  0.09222000000000002  0.48866000000000004  0.7478800000000002  1.0000
  C   C54       1.0  0.46382  0.29275  0.8965800000000003  1.0000
  C   C55       1.0  0.88076  0.4859200000000001  0.35523000000000005  1.0000
  C   C56       1.0  0.53328  0.70653  0.7988600000000002  1.0000
  C   C57       1.0  0.39686999999999995  0.9080600000000001  0.2515  1.0000
  C   C58       1.0  0.17115000000000002  0.46381  0.1029  1.0000
  C   C59       1.0  0.53617  0.70711  0.10304000000000003  1.0000
  C   C60       1.0  0.50007  3e-05  0.10152000000000003  1.0000
  C   C61       1.0  0.48217  0.39484  0.05109  1.0000
  C   C62       1.0  0.7061500000000002  0.17289000000000002  0.20069000000000006  1.0000
  C   C63       1.0  0.88136  0.486  0.6440900000000003  1.0000
  C   C64       1.0  0.60484  0.0871  0.9484100000000002  1.0000
  C   C65       1.0  0.7060900000000002  0.17276  0.7986800000000002  1.0000
  C   C66       1.0  0.6051  0.11890000000000002  0.3551700000000001  1.0000
  C   C67       1.0  0.11902000000000006  0.5140500000000001  0.3553100000000001  1.0000
  C   C68       1.0  6.000000000001412e-05  0.50005  0.79629  1.0000
  C   C69       1.0  0.49993000000000004  0.50001  0.7964500000000002  1.0000
  C   C70       1.0  0.2933100000000002  0.8294000000000002  0.10288000000000003  1.0000
  C   C71       1.0  0.8287  0.53618  0.10284000000000003  1.0000
  C   C72       1.0  0.51779  0.605  0.94856  1.0000
  O   O1        1.0  0.5119500000000002  0.12112  0.6141500000000002  1.0000
  O   O2        1.0  0.39099  0.51225  0.61428  1.0000
  O   O3        1.0  0.12119000000000005  0.6093200000000001  0.6142  1.0000
  O   O4        1.0  0.85382  0.55632  0.3982600000000001  1.0000
  O   O5        1.0  0.85559  0.55686  0.60039  1.0000
  O   O6        1.0  0.29800999999999994  0.85466  0.3982  1.0000
  O   O7        1.0  0.29868  0.8558  0.6005  1.0000
  O   O8        1.0  0.14566  0.4435  0.39848  1.0000
  O   O9        1.0  0.44335  0.29828  0.3987200000000001  1.0000
  O   O10       1.0  0.87909  0.39119  0.3857200000000001  1.0000
  O   O11       1.0  0.5568000000000001  0.7009900000000001  0.6005500000000001  1.0000
  O   O12       1.0  0.87888  0.3906500000000001  0.61418  1.0000
  O   O13       1.0  0.66663  0.33328  0.49999000000000005  1.0000
  O   O14       1.0  0.4879300000000001  0.87903  0.38578  1.0000
  O   O15       1.0  0.44325000000000003  0.29923  0.60042  1.0000
  O   O16       1.0  0.33338  0.6667100000000001  0.49996  1.0000
  O   O17       1.0  0.39131  0.51229  0.38568000000000013  1.0000
  O   O18       1.0  0.70235  0.1456  0.39806  1.0000
  O   O19       1.0  0.4879300000000001  0.87881  0.61417  1.0000
  O   O20       1.0  0.55677  0.70132  0.39893000000000006  1.0000
  O   O21       1.0  0.6085400000000001  0.4875600000000001  0.38567000000000007  1.0000
  O   O22       1.0  0.14450000000000005  0.44311  0.60046  1.0000
  O   O23       1.0  0.70119  0.14414  0.60045  1.0000
  O   O24       1.0  0.60908  0.48793  0.61427  1.0000
  O   O25       1.0  0.12090000000000005  0.6089100000000001  0.38573  1.0000
  O   O26       1.0  0.51228  0.12095  0.38576  1.0000
