data_image0
_chemical_formula_structural       Tb4H48C52O34
_chemical_formula_sum              "Tb4 H48 C52 O34"
_cell_length_a       12.0205
_cell_length_b       12.359989999999998
_cell_length_c       12.60463
_cell_angle_alpha    89.90767000000001
_cell_angle_beta     99.50663
_cell_angle_gamma    89.97820999999999

_space_group_name_H-M_alt    "P 1"
_space_group_IT_number       1

loop_
  _space_group_symop_operation_xyz
  'x, y, z'

loop_
  _atom_site_type_symbol
  _atom_site_label
  _atom_site_symmetry_multiplicity
  _atom_site_fract_x
  _atom_site_fract_y
  _atom_site_fract_z
  _atom_site_occupancy
  Tb  Tb1       1.0  0.36599000000000004  0.44743  0.13057999999999997  1.0000
  Tb  Tb2       1.0  0.62222  0.23547000000000004  0.18249  1.0000
  Tb  Tb3       1.0  0.63384  0.94747  0.87017  1.0000
  Tb  Tb4       1.0  0.37553  0.7375700000000001  0.81654  1.0000
  H   H1        1.0  0.31749000000000005  0.40907000000000004  0.47294  1.0000
  H   H2        1.0  0.4829500000000001  0.33528  0.7966  1.0000
  H   H3        1.0  0.6507600000000001  0.26857  0.52824  1.0000
  H   H4        1.0  0.30852000000000007  0.30243  0.80211  1.0000
  H   H5        1.0  0.10737999999999999  0.33957  0.7420599999999999  1.0000
  H   H6        1.0  0.12705  0.48007  0.77478  1.0000
  H   H7        1.0  0.14828  0.38133  0.8788  1.0000
  H   H8        1.0  0.6568800000000001  0.37468  0.8571  1.0000
  H   H9        1.0  0.8567300000000001  0.36816  0.8385699999999998  1.0000
  H   H10       1.0  0.8636099999999998  0.22661  0.8664499999999998  1.0000
  H   H11       1.0  0.8408999999999999  0.32013  0.96851  1.0000
  H   H12       1.0  0.011319999999999995  0.53757  0.92055  1.0000
  H   H13       1.0  0.70469  0.6047  0.04477  1.0000
  H   H14       1.0  0.01746  0.55682  0.26306  1.0000
  H   H15       1.0  0.6346300000000001  0.62604  0.19008  1.0000
  H   H16       1.0  0.67946  0.66452  0.38962999999999987  1.0000
  H   H17       1.0  0.7097900000000001  0.52425  0.41325  1.0000
  H   H18       1.0  0.5702100000000001  0.56748  0.3573199999999999  1.0000
  H   H19       1.0  0.63204  0.54812  0.88072  1.0000
  H   H20       1.0  0.6693700000000002  0.50217  0.6943499999999999  1.0000
  H   H21       1.0  0.7029600000000001  0.6406  0.6746199999999998  1.0000
  H   H22       1.0  0.56303  0.6027  0.68955  1.0000
  H   H23       1.0  0.7519500000000001  0.07917  0.33857999999999994  1.0000
  H   H24       1.0  0.7989  0.1896  0.38962999999999987  1.0000
  H   H25       1.0  0.68278  0.9103  0.52681  1.0000
  H   H26       1.0  0.5182  0.83582  0.20316999999999996  1.0000
  H   H27       1.0  0.3487100000000001  0.77185  0.4710699999999999  1.0000
  H   H28       1.0  0.69254  0.80254  0.19932  1.0000
  H   H29       1.0  0.8934000000000002  0.8379899999999999  0.25856  1.0000
  H   H30       1.0  0.8751899999999999  0.9787200000000001  0.22574999999999995  1.0000
  H   H31       1.0  0.8530600000000003  0.88023  0.12179999999999999  1.0000
  H   H32       1.0  0.34374000000000005  0.87482  0.14029  1.0000
  H   H33       1.0  0.14363000000000004  0.86866  0.15989  1.0000
  H   H34       1.0  0.13691  0.72712  0.13311  1.0000
  H   H35       1.0  0.15928  0.82016  0.03034  1.0000
  H   H36       1.0  0.9890900000000001  0.03632  0.0793  1.0000
  H   H37       1.0  0.2955  0.10374000000000001  0.9549  1.0000
  H   H38       1.0  0.98257  0.05661000000000001  0.7367699999999999  1.0000
  H   H39       1.0  0.3646900000000001  0.12739  0.80975  1.0000
  H   H40       1.0  0.3206400000000001  0.16522  0.60994  1.0000
  H   H41       1.0  0.29174999999999995  0.02465  0.5869699999999999  1.0000
  H   H42       1.0  0.43075  0.06897  0.64332  1.0000
  H   H43       1.0  0.36889999999999995  0.05015  0.11962999999999997  1.0000
  H   H44       1.0  0.33053000000000005  0.00268  0.30566  1.0000
  H   H45       1.0  0.29592  0.14086  0.32526  1.0000
  H   H46       1.0  0.43618000000000007  0.10377000000000002  0.31054  1.0000
  H   H47       1.0  0.24842  0.58144  0.66207  1.0000
  H   H48       1.0  0.20090999999999998  0.69179  0.6103199999999999  1.0000
  C   C1        1.0  0.48423  0.33848  0.48958  1.0000
  C   C2        1.0  0.38961000000000007  0.37865  0.52847  1.0000
  C   C3        1.0  0.38889  0.3752  0.6391  1.0000
  C   C4        1.0  0.4831000000000001  0.33752999999999994  0.71073  1.0000
  C   C5        1.0  0.57851  0.30155  0.67014  1.0000
  C   C6        1.0  0.57774  0.2987  0.5593099999999999  1.0000
  C   C7        1.0  0.4867500000000001  0.3387  0.37176  1.0000
  C   C8        1.0  0.28133  0.3861  0.78343  1.0000
  C   C9        1.0  0.35839  0.46073  0.8606699999999999  1.0000
  C   C10       1.0  0.15781  0.39785000000000004  0.7952199999999998  1.0000
  C   C11       1.0  0.69531  0.29566  0.8450599999999998  1.0000
  C   C12       1.0  0.6405900000000001  0.21381  0.9118499999999999  1.0000
  C   C13       1.0  0.82259  0.3026  0.88217  1.0000
  C   C14       1.0  0.02651  0.54539  0.0934  1.0000
  C   C15       1.0  0.96761  0.55048  0.98824  1.0000
  C   C16       1.0  0.85183  0.57114  0.97083  1.0000
  C   C17       1.0  0.7947000000000002  0.5884  0.05782  1.0000
  C   C18       1.0  0.85595  0.58462  0.16289999999999996  1.0000
  C   C19       1.0  0.9714300000000002  0.56263  0.18154999999999993  1.0000
  C   C20       1.0  0.14942  0.51981  0.11022  1.0000
  C   C21       1.0  0.6898200000000001  0.57276  0.24584  1.0000
  C   C22       1.0  0.66968  0.45663  0.20627999999999996  1.0000
  C   C23       1.0  0.66045  0.58245  0.35891  1.0000
  C   C24       1.0  0.6849800000000001  0.59987  0.83806  1.0000
  C   C25       1.0  0.66644  0.71704  0.86783  1.0000
  C   C26       1.0  0.65279  0.58573  0.7163  1.0000
  C   C27       1.0  0.51564  0.8407900000000001  0.51013  1.0000
  C   C28       1.0  0.61059  0.8802000000000001  0.4712899999999999  1.0000
  C   C29       1.0  0.61163  0.87649  0.3607699999999999  1.0000
  C   C30       1.0  0.51773  0.8387100000000001  0.28898  1.0000
  C   C31       1.0  0.42188  0.80359  0.32935999999999993  1.0000
  C   C32       1.0  0.42211000000000004  0.80142  0.4402199999999999  1.0000
  C   C33       1.0  0.51318  0.8410600000000001  0.62809  1.0000
  C   C34       1.0  0.71989  0.8862600000000002  0.21704  1.0000
  C   C35       1.0  0.64251  0.96068  0.13948999999999998  1.0000
  C   C36       1.0  0.84357  0.8968700000000001  0.20533  1.0000
  C   C37       1.0  0.30529  0.79617  0.15384  1.0000
  C   C38       1.0  0.3594800000000001  0.71304  0.08806  1.0000
  C   C39       1.0  0.17791  0.80296  0.11677999999999998  1.0000
  C   C40       1.0  0.9737399999999999  0.04471  0.9064399999999998  1.0000
  C   C41       1.0  0.03269  0.04945  0.01155  1.0000
  C   C42       1.0  0.14839000000000002  0.07003  0.028789999999999996  1.0000
  C   C43       1.0  0.20550000000000004  0.08756  0.9418  1.0000
  C   C44       1.0  0.14419  0.08382  0.83676  1.0000
  C   C45       1.0  0.02868999999999995  0.062090000000000006  0.8182399999999997  1.0000
  C   C46       1.0  0.8509000000000001  0.01934  0.88982  1.0000
  C   C47       1.0  0.3104600000000001  0.0735  0.75405  1.0000
  C   C48       1.0  0.33096000000000003  0.9577500000000001  0.79396  1.0000
  C   C49       1.0  0.3403  0.08332000000000002  0.64114  1.0000
  C   C50       1.0  0.31448  0.10055  0.16188999999999995  1.0000
  C   C51       1.0  0.33114000000000005  0.21817  0.13196  1.0000
  C   C52       1.0  0.34655  0.08641  0.28371  1.0000
  O   O1        1.0  0.5615200000000001  0.27896  0.33863  1.0000
  O   O2        1.0  0.41620999999999997  0.3975000000000001  0.31152  1.0000
  O   O3        1.0  0.29016  0.40912  0.67237  1.0000
  O   O4        1.0  0.3833  0.55304  0.82592  1.0000
  O   O5        1.0  0.39389  0.42372  0.95357  1.0000
  O   O6        1.0  0.67737  0.26978  0.73247  1.0000
  O   O7        1.0  0.65019  0.23777  0.01129  1.0000
  O   O8        1.0  0.58974  0.13161  0.86807  1.0000
  O   O9        1.0  0.20489000000000002  0.50446  0.2047  1.0000
  O   O10       1.0  0.19925  0.51312  0.027269999999999996  1.0000
  O   O11       1.0  0.8013300000000002  0.57069  0.86442  1.0000
  O   O12       1.0  0.7455200000000001  0.78414  0.8782599999999998  1.0000
  O   O13       1.0  0.56514  0.7462500000000001  0.87806  1.0000
  O   O14       1.0  0.8065  0.60261  0.25317  1.0000
  O   O15       1.0  0.74565  0.38536  0.22866  1.0000
  O   O16       1.0  0.57165  0.43132  0.15399  1.0000
  O   O17       1.0  0.77228  0.15356  0.32181  1.0000
  O   O18       1.0  0.43841000000000013  0.78125  0.66121  1.0000
  O   O19       1.0  0.58373  0.89974  0.6882299999999998  1.0000
  O   O20       1.0  0.71057  0.91034  0.32770999999999995  1.0000
  O   O21       1.0  0.61614  0.05229  0.1744  1.0000
  O   O22       1.0  0.6070700000000001  0.9248100000000001  0.046349999999999995  1.0000
  O   O23       1.0  0.32307  0.77208  0.2669  1.0000
  O   O24       1.0  0.34976  0.7358099999999999  0.9883599999999998  1.0000
  O   O25       1.0  0.4098900000000001  0.63063  0.13253  1.0000
  O   O26       1.0  0.7950000000000002  0.005769999999999999  0.79535  1.0000
  O   O27       1.0  0.8015600000000002  0.01104  0.97298  1.0000
  O   O28       1.0  0.19899  0.06879  0.13515  1.0000
  O   O29       1.0  0.25167  0.28496  0.12139999999999998  1.0000
  O   O30       1.0  0.43265999999999993  0.24799  0.12203999999999997  1.0000
  O   O31       1.0  0.19331  0.10111  0.74624  1.0000
  O   O32       1.0  0.25445  0.8870100000000001  0.7715199999999999  1.0000
  O   O33       1.0  0.42867  0.93169  0.84641  1.0000
  O   O34       1.0  0.22782000000000002  0.6558499999999999  0.67829  1.0000
