data_image0
_chemical_formula_structural       Zn4H32C60N16O16
_chemical_formula_sum              "Zn4 H32 C60 N16 O16"
_cell_length_a       9.71128
_cell_length_b       11.78219
_cell_length_c       18.13094
_cell_angle_alpha    90.01094000000002
_cell_angle_beta     89.90247
_cell_angle_gamma    97.23583999999998

_symmetry_space_group_name_H-M    'P 1'
_symmetry_Int_Tables_number       1

loop_
  _symmetry_equiv_pos_as_xyz
  'x,y,z'

loop_
  _atom_site_type_symbol
  _atom_site_label
  _atom_site_symmetry_multiplicity
  _atom_site_fract_x
  _atom_site_fract_y
  _atom_site_fract_z
  _atom_site_occupancy
  Zn  Zn1       1.0  0.55267  0.6653  0.45329  1.0000
  Zn  Zn2       1.0  0.94666  0.83662  0.95322  1.0000
  Zn  Zn3       1.0  0.44733  0.3347  0.54671  1.0000
  Zn  Zn4       1.0  0.05334  0.16338  0.04678  1.0000
  H   H1        1.0  0.40935999999999995  0.8443299999999999  0.9355699999999999  1.0000
  H   H2        1.0  0.67043  0.69685  0.7799  1.0000
  H   H3        1.0  0.23489  0.70372  0.73181  1.0000
  H   H4        1.0  0.41519999999999996  0.45706  0.70559  1.0000
  H   H5        1.0  0.51845  0.8902  0.6997  1.0000
  H   H6        1.0  0.60881  0.08442  0.65356  1.0000
  H   H7        1.0  0.70455  0.10749  0.52567  1.0000
  H   H8        1.0  0.69202  0.93011  0.44438999999999995  1.0000
  H   H9        1.0  0.0912  0.65682  0.43628  1.0000
  H   H10       1.0  0.8286099999999998  0.8012899999999997  0.28055  1.0000
  H   H11       1.0  0.26475  0.79731  0.23200999999999997  1.0000
  H   H12       1.0  0.08531  0.04224  0.20603  1.0000
  H   H13       1.0  0.98126  0.60955  0.19943  1.0000
  H   H14       1.0  0.8908899999999998  0.41531  0.15327  1.0000
  H   H15       1.0  0.79563  0.39258  0.02545  1.0000
  H   H16       1.0  0.80818  0.57006  0.94434  1.0000
  H   H17       1.0  0.5906399999999998  0.15568  0.06443  1.0000
  H   H18       1.0  0.32957  0.30316  0.22009999999999996  1.0000
  H   H19       1.0  0.76511  0.29628  0.26819  1.0000
  H   H20       1.0  0.5848  0.54295  0.29441  1.0000
  H   H21       1.0  0.48154999999999987  0.1098  0.3003  1.0000
  H   H22       1.0  0.3911899999999999  0.9155899999999999  0.34643  1.0000
  H   H23       1.0  0.29545  0.89252  0.4743299999999999  1.0000
  H   H24       1.0  0.30798  0.06989  0.55561  1.0000
  H   H25       1.0  0.9088  0.34318999999999994  0.56372  1.0000
  H   H26       1.0  0.17139  0.19871  0.71945  1.0000
  H   H27       1.0  0.73525  0.2027  0.76798  1.0000
  H   H28       1.0  0.91469  0.95776  0.79397  1.0000
  H   H29       1.0  0.01873999999999998  0.39044999999999996  0.80057  1.0000
  H   H30       1.0  0.10910999999999997  0.5847  0.84673  1.0000
  H   H31       1.0  0.20437  0.60743  0.97455  1.0000
  H   H32       1.0  0.19181999999999996  0.42995  0.055659999999999994  1.0000
  C   C1        1.0  0.6774899999999999  0.81029  0.9102499999999999  1.0000
  C   C2        1.0  0.16231  0.80025  0.8572  1.0000
  C   C3        1.0  0.42075999999999997  0.8010099999999999  0.8832799999999998  1.0000
  C   C4        1.0  0.5524  0.77522  0.86222  1.0000
  C   C5        1.0  0.30599  0.77415  0.83687  1.0000
  C   C6        1.0  0.56854  0.71821  0.79548  1.0000
  C   C7        1.0  0.32317  0.72104  0.76883  1.0000
  C   C8        1.0  0.45353  0.69233  0.7498499999999998  1.0000
  C   C9        1.0  0.445  0.52328  0.6651  1.0000
  C   C10       1.0  0.51207  0.68904  0.61351  1.0000
  C   C11       1.0  0.5577299999999998  0.8091199999999998  0.5956299999999999  1.0000
  C   C12       1.0  0.55801  0.90191  0.6437999999999999  1.0000
  C   C13       1.0  0.61021  0.01047  0.61785  1.0000
  C   C14       1.0  0.66291  0.02335  0.54631  1.0000
  C   C15       1.0  0.65593  0.9263799999999999  0.50138  1.0000
  C   C16       1.0  0.8227399999999998  0.68992  0.4115099999999999  1.0000
  C   C17       1.0  0.3378699999999999  0.70185  0.35733  1.0000
  C   C18       1.0  0.07944999999999999  0.69959  0.38385999999999987  1.0000
  C   C19       1.0  0.9475699999999999  0.7244799999999999  0.36294999999999994  1.0000
  C   C20       1.0  0.19398  0.72688  0.33717  1.0000
  C   C21       1.0  0.9308099999999999  0.78072  0.29599  1.0000
  C   C22       1.0  0.17641999999999997  0.77951  0.2691  1.0000
  C   C23       1.0  0.045699999999999984  0.80716  0.25014  1.0000
  C   C24       1.0  0.05548999999999997  0.9761899999999998  0.1655  1.0000
  C   C25       1.0  0.98769  0.81072  0.11369999999999998  1.0000
  C   C26       1.0  0.9418799999999999  0.6907899999999998  0.09557  1.0000
  C   C27       1.0  0.94168  0.59787  0.14362  1.0000
  C   C28       1.0  0.8895699999999999  0.4893599999999999  0.11763999999999998  1.0000
  C   C29       1.0  0.8371199999999999  0.47670999999999997  0.04613  1.0000
  C   C30       1.0  0.8440999999999999  0.57382  0.00132  1.0000
  C   C31       1.0  0.3225  0.18972  0.08975  1.0000
  C   C32       1.0  0.83769  0.19976  0.14279999999999998  1.0000
  C   C33       1.0  0.57924  0.199  0.11672  1.0000
  C   C34       1.0  0.4476  0.22479  0.13778  1.0000
  C   C35       1.0  0.69401  0.22585999999999995  0.16313  1.0000
  C   C36       1.0  0.43146  0.2818  0.20452  1.0000
  C   C37       1.0  0.67682  0.27897  0.23116  1.0000
  C   C38       1.0  0.54647  0.30767  0.25015  1.0000
  C   C39       1.0  0.5549999999999999  0.47672999999999993  0.3349  1.0000
  C   C40       1.0  0.4879299999999999  0.31096  0.38649  1.0000
  C   C41       1.0  0.4422699999999999  0.19089  0.40437  1.0000
  C   C42       1.0  0.44199  0.09808999999999998  0.35619999999999996  1.0000
  C   C43       1.0  0.3897899999999999  0.9895399999999998  0.3821499999999999  1.0000
  C   C44       1.0  0.33709  0.97666  0.4536899999999999  1.0000
  C   C45       1.0  0.34407  0.07362  0.49862  1.0000
  C   C46       1.0  0.17725999999999997  0.31009  0.58849  1.0000
  C   C47       1.0  0.6621299999999999  0.29816  0.6426699999999999  1.0000
  C   C48       1.0  0.9205499999999998  0.30042  0.61614  1.0000
  C   C49       1.0  0.05243  0.27552  0.6370499999999999  1.0000
  C   C50       1.0  0.80601  0.27313  0.66283  1.0000
  C   C51       1.0  0.06919  0.21928  0.70401  1.0000
  C   C52       1.0  0.82358  0.22048999999999996  0.7309  1.0000
  C   C53       1.0  0.9543  0.19284  0.7498499999999998  1.0000
  C   C54       1.0  0.9445  0.02382  0.8344999999999999  1.0000
  C   C55       1.0  0.012309999999999995  0.18928999999999999  0.8862999999999999  1.0000
  C   C56       1.0  0.05812  0.30922  0.90443  1.0000
  C   C57       1.0  0.05832  0.40214  0.85638  1.0000
  C   C58       1.0  0.11042  0.51064  0.88236  1.0000
  C   C59       1.0  0.16288  0.5233  0.95386  1.0000
  C   C60       1.0  0.1559  0.42619  0.9986699999999998  1.0000
  N   N1        1.0  0.4705  0.63806  0.67956  1.0000
  N   N2        1.0  0.4678799999999999  0.50486  0.5944899999999999  1.0000
  N   N3        1.0  0.51032  0.60789  0.56244  1.0000
  N   N4        1.0  0.6030099999999999  0.82232  0.52509  1.0000
  N   N5        1.0  0.028930000000000018  0.86141  0.17985  1.0000
  N   N6        1.0  0.03329999999999997  0.9948099999999999  0.09489  1.0000
  N   N7        1.0  0.9903299999999999  0.89205  0.06271  1.0000
  N   N8        1.0  0.89667  0.6779  0.025059999999999995  1.0000
  N   N9        1.0  0.5295000000000001  0.36194  0.32044  1.0000
  N   N10       1.0  0.53212  0.49515  0.40551  1.0000
  N   N11       1.0  0.48967999999999984  0.39211999999999997  0.43756  1.0000
  N   N12       1.0  0.39698999999999995  0.17767999999999995  0.47490999999999994  1.0000
  N   N13       1.0  0.97107  0.1386  0.8201499999999999  1.0000
  N   N14       1.0  0.9666999999999998  0.0052  0.90511  1.0000
  N   N15       1.0  0.009670000000000002  0.10796  0.9372899999999998  1.0000
  N   N16       1.0  0.10333  0.3221  0.97494  1.0000
  O   O1        1.0  0.6669599999999998  0.8677799999999999  0.96712  1.0000
  O   O2        1.0  0.79206  0.7768  0.88565  1.0000
  O   O3        1.0  0.13895  0.80478  0.9277599999999999  1.0000
  O   O4        1.0  0.07744  0.81185  0.80703  1.0000
  O   O5        1.0  0.83347  0.63576  0.46977  1.0000
  O   O6        1.0  0.7078499999999999  0.72075  0.38560999999999995  1.0000
  O   O7        1.0  0.36094999999999994  0.69726  0.4278499999999999  1.0000
  O   O8        1.0  0.42334  0.69137  0.30702999999999997  1.0000
  O   O9        1.0  0.33304  0.13223  0.03287999999999999  1.0000
  O   O10       1.0  0.20794  0.22321  0.11434999999999998  1.0000
  O   O11       1.0  0.8610399999999999  0.19522  0.07224  1.0000
  O   O12       1.0  0.92256  0.18814999999999998  0.19296999999999997  1.0000
  O   O13       1.0  0.16653  0.36424  0.53023  1.0000
  O   O14       1.0  0.29215  0.27925  0.61439  1.0000
  O   O15       1.0  0.63905  0.30275  0.5721499999999999  1.0000
  O   O16       1.0  0.57666  0.30863  0.69296  1.0000
