data_image0
_chemical_formula_structural       Sr6P16H24C16O56
_chemical_formula_sum              "Sr6 P16 H24 C16 O56"
_cell_length_a       9.79714
_cell_length_b       13.98869
_cell_length_c       13.98566
_cell_angle_alpha    76.23821
_cell_angle_beta     75.38335
_cell_angle_gamma    75.39787

_space_group_name_H-M_alt    "P 1"
_space_group_IT_number       1

loop_
  _space_group_symop_operation_xyz
  'x, y, z'

loop_
  _atom_site_type_symbol
  _atom_site_label
  _atom_site_symmetry_multiplicity
  _atom_site_fract_x
  _atom_site_fract_y
  _atom_site_fract_z
  _atom_site_occupancy
  Sr  Sr1       1.0  0.52696  0.77076  0.55874  1.0000
  Sr  Sr2       1.0  0.9729800000000001  0.44135  0.22916000000000006  1.0000
  Sr  Sr3       1.0  0.47310000000000024  0.22925000000000004  0.44125  1.0000
  Sr  Sr4       1.0  0.027069999999999945  0.5586300000000002  0.77086  1.0000
  Sr  Sr5       1.0  0.75001  0.52137  0.47862  1.0000
  Sr  Sr6       1.0  0.25002  0.4786  0.52142  1.0000
  P   P1        1.0  0.45504999999999995  0.69056  0.34746  1.0000
  P   P2        1.0  0.5717599999999999  0.47715  0.29434000000000005  1.0000
  P   P3        1.0  0.6038600000000002  0.9910299999999999  0.6287500000000003  1.0000
  P   P4        1.0  0.44891  0.83267  0.7941900000000002  1.0000
  P   P5        1.0  0.045430000000000005  0.65245  0.30965  1.0000
  P   P6        1.0  0.92824  0.7054099999999999  0.52314  1.0000
  P   P7        1.0  0.8962800000000001  0.37128  0.00894  1.0000
  P   P8        1.0  0.05104000000000001  0.20582  0.16729  1.0000
  P   P9        1.0  0.5449399999999999  0.30941  0.65256  1.0000
  P   P10       1.0  0.4282799999999999  0.5228399999999997  0.70567  1.0000
  P   P11       1.0  0.39616  0.008959999999999973  0.3712400000000001  1.0000
  P   P12       1.0  0.5511000000000001  0.16733999999999996  0.2058  1.0000
  P   P13       1.0  0.95466  0.34749  0.6904000000000001  1.0000
  P   P14       1.0  0.07181000000000001  0.2945799999999999  0.4768700000000001  1.0000
  P   P15       1.0  0.10372999999999999  0.62873  0.99108  1.0000
  P   P16       1.0  0.9489699999999998  0.79418  0.83271  1.0000
  H   H1        1.0  0.42431999999999986  0.84838  0.33067  1.0000
  H   H2        1.0  0.6894699999999999  0.43927999999999995  0.14740000000000003  1.0000
  H   H3        1.0  0.33387  0.9852  0.57716  1.0000
  H   H4        1.0  0.7521699999999999  0.9139900000000001  0.74863  1.0000
  H   H5        1.0  0.6212400000000001  0.83374  0.86724  1.0000
  H   H6        1.0  0.28108  0.5854700000000002  0.29235  1.0000
  H   H7        1.0  0.07607999999999995  0.66942  0.15181  1.0000
  H   H8        1.0  0.8105499999999997  0.85236  0.5609800000000001  1.0000
  H   H9        1.0  0.16590000000000002  0.42294  0.01489  1.0000
  H   H10       1.0  0.74795  0.25152  0.08606  1.0000
  H   H11       1.0  0.8787800000000001  0.13274  0.16611000000000004  1.0000
  H   H12       1.0  0.2195399999999999  0.70829  0.4149700000000001  1.0000
  H   H13       1.0  0.57568  0.15159000000000003  0.66935  1.0000
  H   H14       1.0  0.31055000000000005  0.56072  0.85259  1.0000
  H   H15       1.0  0.6661600000000001  0.014790000000000006  0.42283  1.0000
  H   H16       1.0  0.24785  0.08601000000000002  0.25137  1.0000
  H   H17       1.0  0.37877  0.16628  0.13276  1.0000
  H   H18       1.0  0.7189800000000001  0.41429999999999995  0.7076900000000003  1.0000
  H   H19       1.0  0.92411  0.33053  0.84822  1.0000
  H   H20       1.0  0.18951999999999994  0.14762  0.43901000000000007  1.0000
  H   H21       1.0  0.83411  0.57706  0.98513  1.0000
  H   H22       1.0  0.25205  0.7485  0.9139500000000003  1.0000
  H   H23       1.0  0.12123000000000007  0.8672599999999998  0.8338900000000002  1.0000
  H   H24       1.0  0.7804600000000002  0.2916399999999999  0.5850100000000001  1.0000
  C   C1        1.0  0.4956800000000001  0.64971  0.16297000000000006  1.0000
  C   C2        1.0  0.48269999999999996  0.60973  0.26079  1.0000
  C   C3        1.0  0.42365000000000014  0.9556199999999999  0.70056  1.0000
  C   C4        1.0  0.3584700000000001  0.04337  0.73783  1.0000
  C   C5        1.0  0.0015599999999999395  0.8372  0.3520100000000001  1.0000
  C   C6        1.0  0.01744999999999997  0.73904  0.39056000000000013  1.0000
  C   C7        1.0  0.07639999999999998  0.29948  0.0443  1.0000
  C   C8        1.0  0.14180999999999994  0.26233  0.9564800000000002  1.0000
  C   C9        1.0  0.5043299999999998  0.35028  0.83704  1.0000
  C   C10       1.0  0.51732  0.39025  0.73921  1.0000
  C   C11       1.0  0.57637  0.04437  0.29943  1.0000
  C   C12       1.0  0.6415599999999999  0.95665  0.26213  1.0000
  C   C13       1.0  0.99844  0.16275000000000003  0.64796  1.0000
  C   C14       1.0  0.98265  0.26092  0.60945  1.0000
  C   C15       1.0  0.9235999999999999  0.70053  0.9557100000000002  1.0000
  C   C16       1.0  0.8582  0.73769  0.04352  1.0000
  O   O1        1.0  0.5727800000000002  0.66674  0.4055100000000001  1.0000
  O   O2        1.0  0.31315  0.67034  0.43351  1.0000
  O   O3        1.0  0.41907  0.7985199999999999  0.2866  1.0000
  O   O4        1.0  0.7145800000000001  0.47651  0.31933  1.0000
  O   O5        1.0  0.46678000000000003  0.42893  0.38078  1.0000
  O   O6        1.0  0.59284  0.43403  0.19642  1.0000
  O   O7        1.0  0.5477600000000002  0.7578299999999999  0.7324700000000001  1.0000
  O   O8        1.0  0.56664  0.10428  0.58537  1.0000
  O   O9        1.0  0.3600999999999998  0.92451  0.6276400000000002  1.0000
  O   O10       1.0  0.29372000000000004  0.82008  0.83785  1.0000
  O   O11       1.0  0.70667  0.9808999999999999  0.6994700000000003  1.0000
  O   O12       1.0  0.5130300000000001  0.8478199999999998  0.8808300000000002  1.0000
  O   O13       1.0  0.6612299999999999  0.92352  0.5486300000000001  1.0000
  O   O14       1.0  0.5061  0.68062  0.07727  1.0000
  O   O15       1.0  0.92785  0.59427  0.33334  1.0000
  O   O16       1.0  0.18743000000000004  0.56666  0.33002  1.0000
  O   O17       1.0  0.08139000000000002  0.71339  0.20167  1.0000
  O   O18       1.0  0.7853899999999999  0.68053  0.52365  1.0000
  O   O19       1.0  0.033319999999999954  0.61909  0.5712700000000001  1.0000
  O   O20       1.0  0.9071699999999999  0.80337  0.5661700000000001  1.0000
  O   O21       1.0  0.95211  0.26750999999999997  0.24214000000000005  1.0000
  O   O22       1.0  0.93342  0.41459999999999997  0.89565  1.0000
  O   O23       1.0  0.14  0.37231999999999993  0.07554  1.0000
  O   O24       1.0  0.20620999999999998  0.16215  0.17992  1.0000
  O   O25       1.0  0.79334  0.30062  0.01913  1.0000
  O   O26       1.0  0.9869900000000001  0.11917999999999998  0.15210000000000007  1.0000
  O   O27       1.0  0.83897  0.45142  0.07643  1.0000
  O   O28       1.0  0.9877799999999999  0.92343  0.32347  1.0000
  O   O29       1.0  0.42722000000000016  0.33324999999999994  0.59451  1.0000
  O   O30       1.0  0.6868499999999998  0.32961000000000007  0.5665  1.0000
  O   O31       1.0  0.58091  0.20145  0.71342  1.0000
  O   O32       1.0  0.2854599999999999  0.52348  0.6806800000000001  1.0000
  O   O33       1.0  0.53324  0.57107  0.61923  1.0000
  O   O34       1.0  0.4071900000000001  0.56596  0.80359  1.0000
  O   O35       1.0  0.45225  0.24218  0.26753  1.0000
  O   O36       1.0  0.4333699999999999  0.89572  0.4146300000000001  1.0000
  O   O37       1.0  0.63992  0.07546999999999998  0.3723500000000001  1.0000
  O   O38       1.0  0.7063  0.17993  0.16216000000000003  1.0000
  O   O39       1.0  0.29334  0.019099999999999995  0.30052  1.0000
  O   O40       1.0  0.48698  0.1522  0.11916000000000002  1.0000
  O   O41       1.0  0.3387899999999999  0.07646999999999998  0.4513600000000001  1.0000
  O   O42       1.0  0.49388999999999994  0.31939  0.9227400000000001  1.0000
  O   O43       1.0  0.07218999999999992  0.40572999999999987  0.6666600000000003  1.0000
  O   O44       1.0  0.8125799999999995  0.43325  0.6700900000000002  1.0000
  O   O45       1.0  0.9187800000000002  0.28654  0.7983800000000002  1.0000
  O   O46       1.0  0.21466  0.31946  0.47635  1.0000
  O   O47       1.0  0.9667000000000002  0.38089999999999996  0.42876  1.0000
  O   O48       1.0  0.09287000000000002  0.19662  0.43383  1.0000
  O   O49       1.0  0.04789999999999995  0.7324899999999999  0.7578600000000002  1.0000
  O   O50       1.0  0.06660999999999997  0.5854  0.10436000000000002  1.0000
  O   O51       1.0  0.8600100000000002  0.62768  0.9244800000000002  1.0000
  O   O52       1.0  0.7938000000000003  0.83785  0.82008  1.0000
  O   O53       1.0  0.20666000000000015  0.69939  0.98088  1.0000
  O   O54       1.0  0.013020000000000056  0.8808199999999998  0.8479000000000002  1.0000
  O   O55       1.0  0.16102999999999995  0.54859  0.92358  1.0000
  O   O56       1.0  0.012150000000000006  0.07654000000000002  0.67649  1.0000
