data_image0
_chemical_formula_structural       Cd4H22C48N12O42
_chemical_formula_sum              "Cd4 H22 C48 N12 O42"
_cell_length_a       12.16653
_cell_length_b       13.50544
_cell_length_c       15.90002
_cell_angle_alpha    65.70043000000001
_cell_angle_beta     88.36092
_cell_angle_gamma    88.56710000000001

_space_group_name_H-M_alt    "P 1"
_space_group_IT_number       1

loop_
  _space_group_symop_operation_xyz
  'x, y, z'

loop_
  _atom_site_type_symbol
  _atom_site_label
  _atom_site_symmetry_multiplicity
  _atom_site_fract_x
  _atom_site_fract_y
  _atom_site_fract_z
  _atom_site_occupancy
  Cd  Cd1       1.0  0.51974  0.28531  0.4611000000000001  1.0000
  Cd  Cd2       1.0  0.27692  0.07101000000000005  0.5962  1.0000
  Cd  Cd3       1.0  0.004040000000000002  0.14175  0.52448  1.0000
  Cd  Cd4       1.0  0.7378799999999999  0.11605999999999995  0.4486400000000001  1.0000
  H   H1        1.0  0.23393  0.47401999999999994  0.38601  1.0000
  H   H2        1.0  0.3208299999999999  0.49254000000000003  0.23456000000000002  1.0000
  H   H3        1.0  0.22432999999999997  0.38546  0.27313  1.0000
  H   H4        1.0  0.36824  0.35489  0.28598  1.0000
  H   H5        1.0  0.19742999999999994  0.0227699999999999  0.8715600000000002  1.0000
  H   H6        1.0  0.9286  0.24828  0.75819  1.0000
  H   H7        1.0  0.10646  0.24574  0.21058000000000004  1.0000
  H   H8        1.0  0.85219  0.008060000000000006  0.27576  1.0000
  H   H9        1.0  0.92157  0.9247400000000001  0.81096  1.0000
  H   H10       1.0  0.6602  0.80453  0.7034600000000002  1.0000
  H   H11       1.0  0.56125  0.52588  0.19587  1.0000
  H   H12       1.0  0.8449  0.3544900000000001  0.15191  1.0000
  H   H13       1.0  0.9994199999999999  0.90285  0.48948  1.0000
  H   H14       1.0  0.1379  0.6968100000000003  0.75225  1.0000
  H   H15       1.0  0.9768499999999998  0.38544  0.48197  1.0000
  H   H16       1.0  0.6800899999999999  0.3899099999999999  0.63664  1.0000
  H   H17       1.0  0.47663  0.94845  0.40029000000000003  1.0000
  H   H18       1.0  0.60159  0.7891  0.48192000000000007  1.0000
  H   H19       1.0  0.50133  0.80193  0.5610500000000003  1.0000
  H   H20       1.0  0.63883  0.8469300000000002  0.55946  1.0000
  H   H21       1.0  0.4297799999999999  0.50641  0.35526  1.0000
  H   H22       1.0  0.67855  0.9533100000000001  0.37527000000000005  1.0000
  C   C1        1.0  0.26482999999999995  0.3041000000000001  0.45688000000000006  1.0000
  C   C2        1.0  0.29645  0.4151500000000001  0.38345  1.0000
  C   C3        1.0  0.30317  0.41156000000000004  0.28858  1.0000
  C   C4        1.0  0.1031  0.14686000000000002  0.70912  1.0000
  C   C5        1.0  0.06903  0.13914999999999988  0.8031500000000003  1.0000
  C   C6        1.0  0.12839  0.07081000000000004  0.87973  1.0000
  C   C7        1.0  0.09913999999999998  0.06382999999999997  0.96706  1.0000
  C   C8        1.0  0.01618999999999999  0.1301699999999999  0.9814200000000002  1.0000
  C   C9        1.0  0.95558  0.1945599999999999  0.9030600000000002  1.0000
  C   C10       1.0  0.9789399999999999  0.19781999999999997  0.8158800000000002  1.0000
  C   C11       1.0  0.9981399999999999  0.13367  0.07349000000000001  1.0000
  C   C12       1.0  0.06493  0.19600000000000006  0.10401  1.0000
  C   C13       1.0  0.053769999999999984  0.19465000000000002  0.19185000000000005  1.0000
  C   C14       1.0  0.97639  0.12784000000000004  0.25458  1.0000
  C   C15       1.0  0.9102999999999998  0.06358000000000001  0.2274  1.0000
  C   C16       1.0  0.9199599999999999  0.06842000000000002  0.13874  1.0000
  C   C17       1.0  0.96341  0.12321  0.34985  1.0000
  C   C18       1.0  0.81871  0.96211  0.65076  1.0000
  C   C19       1.0  0.7962  0.8733999999999997  0.7448800000000002  1.0000
  C   C20       1.0  0.8588899999999998  0.8652799999999999  0.81966  1.0000
  C   C21       1.0  0.8401999999999997  0.7819  0.9062100000000001  1.0000
  C   C22       1.0  0.7626199999999999  0.6998799999999997  0.9216700000000002  1.0000
  C   C23       1.0  0.6988299999999998  0.71312  0.84518  1.0000
  C   C24       1.0  0.7130399999999999  0.79864  0.75915  1.0000
  C   C25       1.0  0.74322  0.60766  0.013220000000000004  1.0000
  C   C26       1.0  0.65521  0.60896  0.07195  1.0000
  C   C27       1.0  0.6321699999999999  0.5212299999999999  0.15478000000000006  1.0000
  C   C28       1.0  0.6997  0.42885  0.18525000000000005  1.0000
  C   C29       1.0  0.79006  0.4250000000000001  0.12999  1.0000
  C   C30       1.0  0.8089999999999999  0.51227  0.0458  1.0000
  C   C31       1.0  0.67495  0.33812  0.27768  1.0000
  C   C32       1.0  0.1405399999999999  0.90475  0.61953  1.0000
  C   C33       1.0  0.07465999999999999  0.8118399999999999  0.62153  1.0000
  C   C34       1.0  0.009079999999999994  0.8243  0.54728  1.0000
  C   C35       1.0  0.9547999999999999  0.7348000000000002  0.54715  1.0000
  C   C36       1.0  0.96224  0.6301800000000001  0.61905  1.0000
  C   C37       1.0  0.030269999999999988  0.6214200000000002  0.69201  1.0000
  C   C38       1.0  0.08512999999999997  0.7092300000000004  0.69454  1.0000
  C   C39       1.0  0.9153199999999998  0.5352899999999999  0.6074900000000001  1.0000
  C   C40       1.0  0.9724199999999998  0.4906100000000002  0.5528  1.0000
  C   C41       1.0  0.92838  0.41326  0.52684  1.0000
  C   C42       1.0  0.8226199999999999  0.37528999999999996  0.5577300000000002  1.0000
  C   C43       1.0  0.7631  0.41703999999999997  0.6128800000000001  1.0000
  C   C44       1.0  0.80849  0.4955700000000001  0.63578  1.0000
  C   C45       1.0  0.7679999999999999  0.29681000000000013  0.52812  1.0000
  C   C46       1.0  0.4935399999999999  0.02576999999999994  0.4910100000000001  1.0000
  C   C47       1.0  0.54132  0.9535  0.4453400000000001  1.0000
  C   C48       1.0  0.57254  0.8405500000000001  0.51671  1.0000
  N   N1        1.0  0.048209999999999975  0.5144100000000003  0.76878  1.0000
  N   N2        1.0  0.16417000000000004  0.98705  0.04465000000000001  1.0000
  N   N3        1.0  0.8635599999999998  0.26311  0.91126  1.0000
  N   N4        1.0  0.15208999999999998  0.26765  0.043400000000000015  1.0000
  N   N5        1.0  0.84456  0.9987  0.11658  1.0000
  N   N6        1.0  0.90548  0.7838800000000001  0.98248  1.0000
  N   N7        1.0  0.58038  0.70411  0.047910000000000015  1.0000
  N   N8        1.0  0.9043599999999999  0.50452  0.98947  1.0000
  N   N9        1.0  0.6131899999999998  0.6337900000000001  0.85269  1.0000
  N   N10       1.0  0.73794  0.5415600000000003  0.68811  1.0000
  N   N11       1.0  0.08473  0.52687  0.51854  1.0000
  N   N12       1.0  0.88724  0.7559  0.46598  1.0000
  O   O1        1.0  0.34456  0.23982  0.50393  1.0000
  O   O2        1.0  0.16695999999999997  0.27718  0.4664700000000001  1.0000
  O   O3        1.0  0.40199999999999997  0.4442499999999999  0.4085200000000001  1.0000
  O   O4        1.0  0.20111999999999997  0.11349999999999992  0.7039400000000002  1.0000
  O   O5        1.0  0.03323  0.18525000000000005  0.64541  1.0000
  O   O6        1.0  0.2557999999999999  0.9589800000000003  0.02559000000000001  1.0000
  O   O7        1.0  0.12257999999999995  0.95505  0.12362000000000002  1.0000
  O   O8        1.0  0.7947199999999996  0.2945099999999998  0.8495200000000003  1.0000
  O   O9        1.0  0.86092  0.2853  0.9798  1.0000
  O   O10       1.0  0.16624  0.2700799999999998  0.9651200000000002  1.0000
  O   O11       1.0  0.20592999999999995  0.3200200000000001  0.07567  1.0000
  O   O12       1.0  0.81807  0.028420000000000015  0.03487  1.0000
  O   O13       1.0  0.8108799999999999  0.9161200000000002  0.18199  1.0000
  O   O14       1.0  0.8950999999999999  0.05474999999999996  0.4048100000000001  1.0000
  O   O15       1.0  0.0216  0.18577999999999997  0.3717400000000001  1.0000
  O   O16       1.0  0.90971  0.009890000000000017  0.64057  1.0000
  O   O17       1.0  0.74439  0.97986  0.59114  1.0000
  O   O18       1.0  0.95134  0.8700300000000004  0.96941  1.0000
  O   O19       1.0  0.9107699999999999  0.69965  0.05474  1.0000
  O   O20       1.0  0.62233  0.5408699999999999  0.9147600000000001  1.0000
  O   O21       1.0  0.53874  0.6654600000000003  0.79581  1.0000
  O   O22       1.0  0.6164199999999997  0.79429  0.99566  1.0000
  O   O23       1.0  0.4865099999999999  0.6868000000000002  0.08306000000000002  1.0000
  O   O24       1.0  0.9002299999999998  0.55942  0.90476  1.0000
  O   O25       1.0  0.9821399999999998  0.44473  0.02988  1.0000
  O   O26       1.0  0.73848  0.25593  0.30535  1.0000
  O   O27       1.0  0.58991  0.35503  0.31999  1.0000
  O   O28       1.0  0.20619999999999994  0.8899  0.6832900000000002  1.0000
  O   O29       1.0  0.13231  0.9972200000000004  0.54762  1.0000
  O   O30       1.0  0.12334  0.5049700000000003  0.82182  1.0000
  O   O31       1.0  0.9846  0.44086000000000003  0.77465  1.0000
  O   O32       1.0  0.92128  0.82446  0.39101000000000014  1.0000
  O   O33       1.0  0.7994599999999997  0.7058100000000003  0.47858  1.0000
  O   O34       1.0  0.7777  0.6153299999999999  0.7050200000000002  1.0000
  O   O35       1.0  0.64421  0.50586  0.7106  1.0000
  O   O36       1.0  0.15080999999999997  0.5298499999999999  0.5752200000000001  1.0000
  O   O37       1.0  0.10492999999999997  0.55017  0.4355600000000001  1.0000
  O   O38       1.0  0.6639699999999998  0.28959  0.54118  1.0000
  O   O39       1.0  0.8266999999999998  0.24464000000000002  0.4916100000000001  1.0000
  O   O40       1.0  0.54981  0.10658999999999999  0.48759  1.0000
  O   O41       1.0  0.40041  0.9986100000000001  0.52917  1.0000
  O   O42       1.0  0.63522  0.007570000000000012  0.38778  1.0000
