data_image0
_chemical_formula_structural       Gd4H32C72N12O32
_chemical_formula_sum              "Gd4 H32 C72 N12 O32"
_cell_length_a       10.02685
_cell_length_b       10.017570000000001
_cell_length_c       18.6202
_cell_angle_alpha    99.89723
_cell_angle_beta     100.04556
_cell_angle_gamma    111.17509

_symmetry_space_group_name_H-M    'P 1'
_symmetry_Int_Tables_number       1

loop_
  _symmetry_equiv_pos_as_xyz
  'x,y,z'

loop_
  _atom_site_type_symbol
  _atom_site_label
  _atom_site_symmetry_multiplicity
  _atom_site_fract_x
  _atom_site_fract_y
  _atom_site_fract_z
  _atom_site_occupancy
  Gd  Gd1       1.0  0.84871  0.51395  0.02565  1.0000
  Gd  Gd2       1.0  0.4848  0.14868000000000006  0.9742400000000001  1.0000
  Gd  Gd3       1.0  0.57736  0.7381  0.4749  1.0000
  Gd  Gd4       1.0  0.26375  0.42338  0.52525  1.0000
  H   H1        1.0  0.92833  0.4459  0.22694999999999999  1.0000
  H   H2        1.0  0.08132999999999992  0.9349199999999999  0.44202  1.0000
  H   H3        1.0  0.1430299999999999  0.9173599999999998  0.21768  1.0000
  H   H4        1.0  0.80418  0.35716999999999993  0.43118  1.0000
  H   H5        1.0  0.72014  0.65781  0.25060999999999994  1.0000
  H   H6        1.0  0.48377  0.1537  0.21636  1.0000
  H   H7        1.0  0.22000999999999996  0.65478  0.36496  1.0000
  H   H8        1.0  0.33136000000000004  0.11013000000000008  0.47872000000000003  1.0000
  H   H9        1.0  0.5527499999999999  0.06872999999999997  0.7709599999999999  1.0000
  H   H10       1.0  0.06596999999999996  0.9227  0.55854  1.0000
  H   H11       1.0  0.08234  0.85677  0.78233  1.0000
  H   H12       1.0  0.6392299999999999  0.19827  0.56745  1.0000
  H   H13       1.0  0.34347999999999984  0.2807  0.75072  1.0000
  H   H14       1.0  0.84601  0.51402  0.78374  1.0000
  H   H15       1.0  0.34141  0.78035  0.63321  1.0000
  H   H16       1.0  0.88737  0.67083  0.5214  1.0000
  H   H17       1.0  0.45293  0.46857999999999994  0.27135  1.0000
  H   H18       1.0  0.3855899999999999  0.74643  0.0587  1.0000
  H   H19       1.0  0.67568  0.94883  0.28292  1.0000
  H   H20       1.0  0.11626999999999998  0.18434  0.06724  1.0000
  H   H21       1.0  0.21983  0.6565  0.25008  1.0000
  H   H22       1.0  0.02088000000000001  0.18549  0.2834  1.0000
  H   H23       1.0  0.6029099999999998  0.54233  0.13361  1.0000
  H   H24       1.0  0.59689  0.8864299999999999  0.02213  1.0000
  H   H25       1.0  0.53063  0.54725  0.72822  1.0000
  H   H26       1.0  0.25621999999999995  0.6141599999999999  0.9408499999999999  1.0000
  H   H27       1.0  0.05009999999999996  0.3238  0.71665  1.0000
  H   H28       1.0  0.82111  0.88052  0.9325700000000001  1.0000
  H   H29       1.0  0.34365  0.77959  0.74926  1.0000
  H   H30       1.0  0.8131199999999997  0.9796800000000001  0.71664  1.0000
  H   H31       1.0  0.4572899999999999  0.39517  0.86607  1.0000
  H   H32       1.0  0.11607000000000003  0.40203999999999995  0.9777199999999999  1.0000
  C   C1        1.0  0.7016399999999998  0.29627  0.2121  1.0000
  C   C2        1.0  0.50611  0.17766  0.35953  1.0000
  C   C3        1.0  0.84457  0.39183  0.25465  1.0000
  C   C4        1.0  0.8716299999999999  0.72637  0.14179  1.0000
  C   C5        1.0  0.8806499999999998  0.41033  0.3335  1.0000
  C   C6        1.0  0.04037999999999995  0.89003  0.38123  1.0000
  C   C7        1.0  0.07285999999999991  0.8816199999999998  0.255  1.0000
  C   C8        1.0  0.28761999999999993  0.03668999999999996  0.35905  1.0000
  C   C9        1.0  0.77421  0.3407  0.37017  1.0000
  C   C10       1.0  0.7910999999999999  0.7404799999999999  0.39879  1.0000
  C   C11       1.0  0.89263  0.78903  0.35038  1.0000
  C   C12       1.0  0.62834  0.25175  0.32767  1.0000
  C   C13       1.0  0.83502  0.73514  0.27226  1.0000
  C   C14       1.0  0.03556000000000002  0.50371  0.3777  1.0000
  C   C15       1.0  0.59523  0.22788  0.24901999999999996  1.0000
  C   C16       1.0  0.9250499999999999  0.78356  0.22464  1.0000
  C   C17       1.0  0.65292  0.25196  0.12801  1.0000
  C   C18       1.0  0.13203999999999994  0.9349499999999998  0.33328  1.0000
  C   C19       1.0  0.7030299999999999  0.2958599999999999  0.78724  1.0000
  C   C20       1.0  0.82092  0.49508  0.64045  1.0000
  C   C21       1.0  0.60705  0.15361000000000002  0.74391  1.0000
  C   C22       1.0  0.27209999999999995  0.1280699999999999  0.85921  1.0000
  C   C23       1.0  0.58755  0.11917000000000003  0.66493  1.0000
  C   C24       1.0  0.11073000000000006  0.9619  0.61941  1.0000
  C   C25       1.0  0.11825999999999984  0.9276399999999998  0.7453199999999999  1.0000
  C   C26       1.0  0.9625400000000002  0.71371  0.64105  1.0000
  C   C27       1.0  0.65672  0.22669999999999998  0.62861  1.0000
  C   C28       1.0  0.26317  0.21176  0.60323  1.0000
  C   C29       1.0  0.21257  0.10922000000000001  0.65094  1.0000
  C   C30       1.0  0.74676  0.37189  0.67189  1.0000
  C   C31       1.0  0.26577  0.16596  0.72906  1.0000
  C   C32       1.0  0.49387  0.96413  0.62079  1.0000
  C   C33       1.0  0.77135  0.40311  0.7506  1.0000
  C   C34       1.0  0.21618  0.07528000000000001  0.7763  1.0000
  C   C35       1.0  0.7467899999999998  0.34398  0.8716  1.0000
  C   C36       1.0  0.06497999999999998  0.86928  0.66697  1.0000
  C   C37       1.0  0.24191  0.33365  0.28704  1.0000
  C   C38       1.0  0.8938699999999998  0.07199  0.14035  1.0000
  C   C39       1.0  0.34059  0.38776  0.24409000000000003  1.0000
  C   C40       1.0  0.48052  0.8323399999999999  0.35838  1.0000
  C   C41       1.0  0.29496999999999984  0.33018  0.165  1.0000
  C   C42       1.0  0.40661  0.76094  0.1194  1.0000
  C   C43       1.0  0.56765  0.8764199999999999  0.24551999999999996  1.0000
  C   C44       1.0  0.6765499999999999  0.93014  0.14145  1.0000
  C   C45       1.0  0.15030999999999997  0.22585999999999998  0.1285  1.0000
  C   C46       1.0  0.13916999999999996  0.59349  0.10190999999999999  1.0000
  C   C47       1.0  0.2901  0.68999  0.15012  1.0000
  C   C48       1.0  0.04904999999999999  0.17708  0.17162  1.0000
  C   C49       1.0  0.3122199999999999  0.71258  0.22818  1.0000
  C   C50       1.0  0.40542999999999996  0.37991999999999987  0.12092  1.0000
  C   C51       1.0  0.09783999999999997  0.22888999999999998  0.25037  1.0000
  C   C52       1.0  0.45060999999999996  0.80801  0.27573  1.0000
  C   C53       1.0  0.27864  0.37286  0.37115  1.0000
  C   C54       1.0  0.54728  0.85298  0.16728  1.0000
  C   C55       1.0  0.6661799999999998  0.75804  0.71281  1.0000
  C   C56       1.0  0.93036  0.10482000000000001  0.85963  1.0000
  C   C57       1.0  0.6123  0.65906  0.75576  1.0000
  C   C58       1.0  0.16679000000000002  0.51857  0.64075  1.0000
  C   C59       1.0  0.67115  0.70348  0.83485  1.0000
  C   C60       1.0  0.24000999999999997  0.59253  0.88003  1.0000
  C   C61       1.0  0.12315999999999999  0.43172  0.75394  1.0000
  C   C62       1.0  0.0707  0.32278  0.85828  1.0000
  C   C63       1.0  0.7771899999999999  0.84751  0.87139  1.0000
  C   C64       1.0  0.40710999999999997  0.8590800000000001  0.89743  1.0000
  C   C65       1.0  0.31047  0.70874  0.84901  1.0000
  C   C66       1.0  0.8247199999999999  0.9496200000000001  0.82838  1.0000
  C   C67       1.0  0.28718  0.68692  0.77095  1.0000
  C   C68       1.0  0.6207699999999998  0.59308  0.87908  1.0000
  C   C69       1.0  0.7711100000000001  0.9019900000000001  0.74963  1.0000
  C   C70       1.0  0.19141  0.54857  0.72346  1.0000
  C   C71       1.0  0.6274199999999998  0.72139  0.62865  1.0000
  C   C72       1.0  0.14729999999999996  0.45205  0.83225  1.0000
  N   N1        1.0  0.37224999999999997  0.08020999999999998  0.31257  1.0000
  N   N2        1.0  0.5094599999999999  0.19680999999999996  0.4333  1.0000
  N   N3        1.0  0.37036  0.1037  0.43138  1.0000
  N   N4        1.0  0.9191499999999999  0.62859  0.68747  1.0000
  N   N5        1.0  0.8010199999999997  0.49244  0.56672  1.0000
  N   N6        1.0  0.8946599999999999  0.63142  0.56866  1.0000
  N   N7        1.0  0.8087999999999999  0.019819999999999997  0.1876  1.0000
  N   N8        1.0  0.82097  0.01912  0.06675  1.0000
  N   N9        1.0  0.6846099999999999  0.92676  0.06904999999999999  1.0000
  N   N10       1.0  0.9811  0.19041  0.81225  1.0000
  N   N11       1.0  0.98435  0.17755999999999983  0.9332099999999999  1.0000
  N   N12       1.0  0.07536999999999988  0.31450999999999985  0.9307799999999999  1.0000
  O   O1        1.0  0.1101599999999999  0.58958  0.33928  1.0000
  O   O2        1.0  0.7154  0.32681  0.08335  1.0000
  O   O3        1.0  0.6585699999999999  0.6441  0.37011  1.0000
  O   O4        1.0  0.9590199999999999  0.76531  0.10007  1.0000
  O   O5        1.0  0.8337799999999997  0.80027  0.47062  1.0000
  O   O6        1.0  0.08917999999999997  0.50092  0.4431  1.0000
  O   O7        1.0  0.7401700000000001  0.62236  0.11016  1.0000
  O   O8        1.0  0.53849  0.13219  0.09856  1.0000
  O   O9        1.0  0.4043999999999999  0.89103  0.65811  1.0000
  O   O10       1.0  0.67259  0.2799  0.91608  1.0000
  O   O11       1.0  0.35684  0.34519  0.63275  1.0000
  O   O12       1.0  0.23357999999999998  0.04075  0.90117  1.0000
  O   O13       1.0  0.20715  0.1684  0.53096  1.0000
  O   O14       1.0  0.4994199999999999  0.90853  0.55642  1.0000
  O   O15       1.0  0.37541999999999986  0.2599  0.89075  1.0000
  O   O16       1.0  0.8651299999999997  0.45996  0.9012299999999999  1.0000
  O   O17       1.0  0.5181399999999999  0.50534  0.15901999999999997  1.0000
  O   O18       1.0  0.38630000000000003  0.49256000000000005  0.41566999999999993  1.0000
  O   O19       1.0  0.03587  0.52702  0.13111  1.0000
  O   O20       1.0  0.61  0.91288  0.4004  1.0000
  O   O21       1.0  0.10870999999999995  0.58033  0.029969999999999997  1.0000
  O   O22       1.0  0.3942399999999999  0.31104  0.05583  1.0000
  O   O23       1.0  0.38055  0.75946  0.38943  1.0000
  O   O24       1.0  0.19352999999999992  0.28248  0.4004  1.0000
  O   O25       1.0  0.49708999999999987  0.47916  0.84034  1.0000
  O   O26       1.0  0.50847  0.61314  0.58374  1.0000
  O   O27       1.0  0.47259999999999996  0.96358  0.8686799999999999  1.0000
  O   O28       1.0  0.08716  0.3888400000000001  0.59886  1.0000
  O   O29       1.0  0.42077999999999993  0.88763  0.96939  1.0000
  O   O30       1.0  0.68744  0.60557  0.94497  1.0000
  O   O31       1.0  0.23935999999999996  0.61902  0.60975  1.0000
  O   O32       1.0  0.71789  0.8069500000000001  0.59969  1.0000
