data_image0
_chemical_formula_structural       Tb4H32C48N12O36
_chemical_formula_sum              "Tb4 H32 C48 N12 O36"
_cell_length_a       10.20866
_cell_length_b       11.4655
_cell_length_c       17.56163
_cell_angle_alpha    90.03513000000001
_cell_angle_beta     90.04512
_cell_angle_gamma    109.56902999999998

_symmetry_space_group_name_H-M    'P 1'
_symmetry_Int_Tables_number       1

loop_
  _symmetry_equiv_pos_as_xyz
  'x,y,z'

loop_
  _atom_site_type_symbol
  _atom_site_label
  _atom_site_symmetry_multiplicity
  _atom_site_fract_x
  _atom_site_fract_y
  _atom_site_fract_z
  _atom_site_occupancy
  Tb  Tb1       1.0  0.010699999999999993  0.17727999999999997  0.5073200000000002  1.0000
  Tb  Tb2       1.0  0.98712  0.32003  0.00801  1.0000
  Tb  Tb3       1.0  0.9879099999999998  0.82161  0.49065000000000003  1.0000
  Tb  Tb4       1.0  0.012479999999999998  0.68547  0.9922  1.0000
  H   H1        1.0  0.89917  0.29414999999999997  0.82055  1.0000
  H   H2        1.0  0.09739999999999999  0.6502  0.71395  1.0000
  H   H3        1.0  0.8476899999999999  0.20266  0.68885  1.0000
  H   H4        1.0  0.04364  0.54297  0.58732  1.0000
  H   H5        1.0  0.42814  0.94419  0.3887  1.0000
  H   H6        1.0  0.46902  0.29264  0.4966900000000001  1.0000
  H   H7        1.0  0.69132  0.0215  0.37264  1.0000
  H   H8        1.0  0.72779  0.35220999999999997  0.48095  1.0000
  H   H9        1.0  0.10213  0.20588999999999996  0.32066  1.0000
  H   H10       1.0  0.89998  0.85063  0.21312000000000006  1.0000
  H   H11       1.0  0.1541  0.29756  0.18894  1.0000
  H   H12       1.0  0.95433  0.9582899999999999  0.08670000000000001  1.0000
  H   H13       1.0  0.56991  0.5566099999999999  0.8893100000000003  1.0000
  H   H14       1.0  0.53385  0.20929  0.99695  1.0000
  H   H15       1.0  0.30658999999999986  0.4768599999999999  0.8734600000000002  1.0000
  H   H16       1.0  0.27477  0.14688  0.98089  1.0000
  H   H17       1.0  0.10325999999999996  0.70966  0.18011  1.0000
  H   H18       1.0  0.90201  0.35226  0.28467  1.0000
  H   H19       1.0  0.15549999999999994  0.7986099999999998  0.31262  1.0000
  H   H20       1.0  0.9560799999999999  0.45743  0.4120700000000001  1.0000
  H   H21       1.0  0.5722199999999998  0.055069999999999994  0.6104500000000002  1.0000
  H   H22       1.0  0.52978  0.70628  0.50254  1.0000
  H   H23       1.0  0.30921999999999994  0.9783799999999999  0.6270300000000002  1.0000
  H   H24       1.0  0.27133  0.6469199999999999  0.5191500000000002  1.0000
  H   H25       1.0  0.89709  0.7918499999999999  0.6790800000000001  1.0000
  H   H26       1.0  0.10007  0.14979  0.7831600000000002  1.0000
  H   H27       1.0  0.8449  0.7040599999999999  0.8117200000000002  1.0000
  H   H28       1.0  0.045349999999999994  0.04598  0.91073  1.0000
  H   H29       1.0  0.4278699999999999  0.44678999999999996  0.11044000000000002  1.0000
  H   H30       1.0  0.46798  0.79524  0.0030100000000000005  1.0000
  H   H31       1.0  0.69126  0.5244199999999999  0.12645  1.0000
  H   H32       1.0  0.72672  0.85509  0.018800000000000008  1.0000
  C   C1        1.0  0.03206999999999999  0.53988  0.8548100000000002  1.0000
  C   C2        1.0  0.005359999999999974  0.4802699999999999  0.7780800000000001  1.0000
  C   C3        1.0  0.9339699999999999  0.35283  0.77079  1.0000
  C   C4        1.0  0.04475  0.5506199999999999  0.71149  1.0000
  C   C5        1.0  0.9037999999999999  0.29978  0.69943  1.0000
  C   C6        1.0  0.016139999999999984  0.49407999999999996  0.64094  1.0000
  C   C7        1.0  0.27556  0.06836999999999999  0.46151000000000003  1.0000
  C   C8        1.0  0.42825  0.1128  0.44382  1.0000
  C   C9        1.0  0.49119  0.03614  0.40781  1.0000
  C   C10       1.0  0.51331  0.22976  0.46868  1.0000
  C   C11       1.0  0.63386  0.0753  0.39874  1.0000
  C   C12       1.0  0.65586  0.26536999999999994  0.46018  1.0000
  C   C13       1.0  0.96695  0.9601899999999999  0.35385  1.0000
  C   C14       1.0  0.99388  0.02023  0.27753  1.0000
  C   C15       1.0  0.06668999999999999  0.1475  0.27073  1.0000
  C   C16       1.0  0.95347  0.95011  0.21084  1.0000
  C   C17       1.0  0.09716999999999999  0.20064  0.19951  1.0000
  C   C18       1.0  0.9824499999999999  0.00686  0.14045000000000002  1.0000
  C   C19       1.0  0.72534  0.43377  0.9620300000000002  1.0000
  C   C20       1.0  0.57232  0.38882  0.94442  1.0000
  C   C21       1.0  0.5079199999999999  0.46445999999999993  0.90853  1.0000
  C   C22       1.0  0.48838  0.27142  0.96909  1.0000
  C   C23       1.0  0.3651  0.42392  0.89949  1.0000
  C   C24       1.0  0.34574  0.23432  0.9605000000000001  1.0000
  C   C25       1.0  0.9679999999999999  0.46421999999999997  0.14499000000000006  1.0000
  C   C26       1.0  0.99547  0.5231799999999999  0.22174  1.0000
  C   C27       1.0  0.06804999999999996  0.6502799999999999  0.22958000000000003  1.0000
  C   C28       1.0  0.95539  0.45166999999999996  0.28784  1.0000
  C   C29       1.0  0.09858000000000004  0.70191  0.30125  1.0000
  C   C30       1.0  0.98421  0.50692  0.35869  1.0000
  C   C31       1.0  0.72386  0.93116  0.5367700000000002  1.0000
  C   C32       1.0  0.5714  0.88645  0.5551600000000002  1.0000
  C   C33       1.0  0.5088  0.96318  0.59141  1.0000
  C   C34       1.0  0.48592  0.7694099999999999  0.53063  1.0000
  C   C35       1.0  0.3662  0.92427  0.6008  1.0000
  C   C36       1.0  0.34344  0.73389  0.53962  1.0000
  C   C37       1.0  0.03314  0.0386  0.64412  1.0000
  C   C38       1.0  0.00593999999999997  0.97863  0.7204700000000002  1.0000
  C   C39       1.0  0.93274  0.8516799999999999  0.7284300000000001  1.0000
  C   C40       1.0  0.04633  0.05045  0.78657  1.0000
  C   C41       1.0  0.902  0.80063  0.80024  1.0000
  C   C42       1.0  0.017039999999999923  0.9958399999999997  0.8575000000000003  1.0000
  C   C43       1.0  0.27448  0.57116  0.03802  1.0000
  C   C44       1.0  0.42744  0.61536  0.05561  1.0000
  C   C45       1.0  0.49074  0.53878  0.09141  1.0000
  C   C46       1.0  0.51237  0.73234  0.030880000000000005  1.0000
  C   C47       1.0  0.6335  0.5781  0.1005  1.0000
  C   C48       1.0  0.65495  0.76818  0.03944  1.0000
  N   N1        1.0  0.946  0.37004999999999993  0.6354000000000002  1.0000
  N   N2        1.0  0.71492  0.18807  0.4262800000000001  1.0000
  N   N3        1.0  0.22869999999999993  0.40534999999999993  0.46653000000000006  1.0000
  N   N4        1.0  0.05382  0.13068  0.13539000000000007  1.0000
  N   N5        1.0  0.28513  0.31067  0.92679  1.0000
  N   N6        1.0  0.77091  0.09338  0.96413  1.0000
  N   N7        1.0  0.05516999999999998  0.63064  0.36476  1.0000
  N   N8        1.0  0.28457  0.81145  0.57349  1.0000
  N   N9        1.0  0.77095  0.59362  0.53206  1.0000
  N   N10       1.0  0.9454599999999999  0.8722499999999999  0.86371  1.0000
  N   N11       1.0  0.7143199999999998  0.69112  0.07333000000000002  1.0000
  N   N12       1.0  0.23123999999999997  0.91024  0.03545  1.0000
  O   O1        1.0  0.91587  0.3189699999999999  0.56752  1.0000
  O   O2        1.0  0.023089999999999982  0.4716099999999999  0.9133500000000001  1.0000
  O   O3        1.0  0.058860000000000044  0.65634  0.85999  1.0000
  O   O4        1.0  0.22748999999999997  0.14777  0.4892  1.0000
  O   O5        1.0  0.20894999999999997  0.9537799999999999  0.44995  1.0000
  O   O6        1.0  0.8511699999999999  0.22288  0.41995  1.0000
  O   O7        1.0  0.20685  0.37264999999999987  0.5364000000000002  1.0000
  O   O8        1.0  0.14213000000000003  0.33543  0.4173400000000001  1.0000
  O   O9        1.0  0.32513  0.49816  0.44634  1.0000
  O   O10       1.0  0.08433  0.18247  0.06772  1.0000
  O   O11       1.0  0.9803899999999999  0.028439999999999993  0.41295  1.0000
  O   O12       1.0  0.93609  0.84346  0.35899  1.0000
  O   O13       1.0  0.77326  0.35402999999999996  0.9894500000000002  1.0000
  O   O14       1.0  0.79192  0.5482999999999999  0.95059  1.0000
  O   O15       1.0  0.14885999999999996  0.27452  0.9202300000000001  1.0000
  O   O16       1.0  0.79226  0.12386  0.034490000000000014  1.0000
  O   O17       1.0  0.85731  0.16573999999999997  0.91612  1.0000
  O   O18       1.0  0.6755  0.0007799999999999999  0.94256  1.0000
  O   O19       1.0  0.08442999999999996  0.6809699999999999  0.43290000000000006  1.0000
  O   O20       1.0  0.97632  0.53229  0.08646000000000002  1.0000
  O   O21       1.0  0.94096  0.34772999999999993  0.13993  1.0000
  O   O22       1.0  0.7716  0.85276  0.50734  1.0000
  O   O23       1.0  0.79086  0.04545  0.54943  1.0000
  O   O24       1.0  0.14854  0.77701  0.58005  1.0000
  O   O25       1.0  0.79248  0.62315  0.46181  1.0000
  O   O26       1.0  0.8572999999999998  0.66645  0.58027  1.0000
  O   O27       1.0  0.67534  0.5013899999999999  0.5537600000000003  1.0000
  O   O28       1.0  0.91544  0.8225499999999999  0.93198  1.0000
  O   O29       1.0  0.019639999999999935  0.9713699999999997  0.58437  1.0000
  O   O30       1.0  0.06432  0.15529  0.63992  1.0000
  O   O31       1.0  0.22680999999999996  0.6511699999999999  0.010770000000000004  1.0000
  O   O32       1.0  0.20776999999999995  0.45666999999999996  0.04938  1.0000
  O   O33       1.0  0.85052  0.72631  0.08  1.0000
  O   O34       1.0  0.20792  0.88087  0.96505  1.0000
  O   O35       1.0  0.14278000000000005  0.83976  0.08348  1.0000
  O   O36       1.0  0.33027999999999996  0.9997799999999999  0.05714  1.0000
