data_image0
_chemical_formula_structural       Gd6H12C36N18O42
_chemical_formula_sum              "Gd6 H12 C36 N18 O42"
_cell_length_a       7.75223
_cell_length_b       15.89348
_cell_length_c       15.89349
_cell_angle_alpha    120.04677
_cell_angle_beta     90.0
_cell_angle_gamma    90.0

_symmetry_space_group_name_H-M    'P 1'
_symmetry_Int_Tables_number       1

loop_
  _symmetry_equiv_pos_as_xyz
  'x,y,z'

loop_
  _atom_site_type_symbol
  _atom_site_label
  _atom_site_symmetry_multiplicity
  _atom_site_fract_x
  _atom_site_fract_y
  _atom_site_fract_z
  _atom_site_occupancy
  Gd  Gd1       1.0  0.74224  0.6262100000000003  0.81296  1.0000
  Gd  Gd2       1.0  0.74224  0.18676  0.37378  1.0000
  Gd  Gd3       1.0  0.74214  0.18703000000000006  0.81324  1.0000
  Gd  Gd4       1.0  0.24224  0.37379000000000007  0.18704  1.0000
  Gd  Gd5       1.0  0.24223  0.8132400000000002  0.62622  1.0000
  Gd  Gd6       1.0  0.24213999999999994  0.81297  0.18676  1.0000
  H   H1        1.0  0.7465699999999997  0.37862  0.6213  1.0000
  H   H2        1.0  0.3414299999999999  0.51272  0.48713  1.0000
  H   H3        1.0  0.7468999999999998  0.24273000000000003  0.62157  1.0000
  H   H4        1.0  0.34152  0.9744000000000005  0.48711  1.0000
  H   H5        1.0  0.7468999999999998  0.37849999999999995  0.7572599999999999  1.0000
  H   H6        1.0  0.34153  0.51303  0.0256  1.0000
  H   H7        1.0  0.24656999999999996  0.62138  0.3787  1.0000
  H   H8        1.0  0.84144  0.4872800000000001  0.51287  1.0000
  H   H9        1.0  0.24689999999999995  0.7572699999999999  0.37843  1.0000
  H   H10       1.0  0.84152  0.025600000000000043  0.51289  1.0000
  H   H11       1.0  0.24689999999999995  0.6215000000000003  0.24273  1.0000
  H   H12       1.0  0.8415299999999998  0.4869700000000001  0.9744  1.0000
  C   C1        1.0  0.64728  0.40651  0.59347  1.0000
  C   C2        1.0  0.48506  0.3861  0.4635  1.0000
  C   C3        1.0  0.4253099999999999  0.4812200000000001  0.51866  1.0000
  C   C4        1.0  0.4851299999999999  0.5364600000000003  0.61375  1.0000
  C   C5        1.0  0.44397  0.64391  0.67719  1.0000
  C   C6        1.0  0.4438999999999999  0.3225900000000001  0.35607  1.0000
  C   C7        1.0  0.6474799999999998  0.18703  0.5936199999999999  1.0000
  C   C8        1.0  0.4851299999999999  0.07739999999999998  0.6138199999999999  1.0000
  C   C9        1.0  0.42538  0.03749  0.51873  1.0000
  C   C10       1.0  0.48516  0.07742  0.46363  1.0000
  C   C11       1.0  0.44393  0.03335000000000001  0.3562  1.0000
  C   C12       1.0  0.44389  0.033390000000000024  0.67717  1.0000
  C   C13       1.0  0.6474799999999998  0.4064000000000001  0.81297  1.0000
  C   C14       1.0  0.48509999999999986  0.5364  0.92247  1.0000
  C   C15       1.0  0.42538  0.4813900000000001  0.9625  1.0000
  C   C16       1.0  0.48519  0.38632000000000005  0.9227  1.0000
  C   C17       1.0  0.44396  0.32308  0.96683  1.0000
  C   C18       1.0  0.4438699999999999  0.6438200000000002  0.96646  1.0000
  C   C19       1.0  0.14728  0.59349  0.40653  1.0000
  C   C20       1.0  0.98506  0.6139  0.5365  1.0000
  C   C21       1.0  0.9253099999999997  0.51878  0.48134  1.0000
  C   C22       1.0  0.98513  0.4635400000000001  0.38624  1.0000
  C   C23       1.0  0.94397  0.35609  0.32281  1.0000
  C   C24       1.0  0.9438999999999997  0.6774  0.64393  1.0000
  C   C25       1.0  0.14747  0.81297  0.40638  1.0000
  C   C26       1.0  0.98513  0.92259  0.38618  1.0000
  C   C27       1.0  0.92538  0.96251  0.48127  1.0000
  C   C28       1.0  0.98516  0.9225800000000003  0.53637  1.0000
  C   C29       1.0  0.94393  0.9666500000000003  0.6438  1.0000
  C   C30       1.0  0.9438899999999998  0.9666100000000001  0.32283  1.0000
  C   C31       1.0  0.14747  0.5936  0.18703  1.0000
  C   C32       1.0  0.9850999999999998  0.46359  0.07753  1.0000
  C   C33       1.0  0.92538  0.5186100000000002  0.03749  1.0000
  C   C34       1.0  0.9851899999999998  0.6136700000000003  0.0773  1.0000
  C   C35       1.0  0.94396  0.6769200000000004  0.03317  1.0000
  C   C36       1.0  0.94387  0.35618  0.03354  1.0000
  N   N1        1.0  0.5962699999999997  0.49852000000000013  0.65127  1.0000
  N   N2        1.0  0.59632  0.34866  0.50147  1.0000
  N   N3        1.0  0.07839999999999997  0.53549  0.76727  1.0000
  N   N4        1.0  0.59637  0.15291000000000005  0.50166  1.0000
  N   N5        1.0  0.59646  0.15284000000000006  0.65136  1.0000
  N   N6        1.0  0.07839999999999997  0.23179000000000005  0.4645  1.0000
  N   N7        1.0  0.59641  0.3487  0.84721  1.0000
  N   N8        1.0  0.59642  0.4983400000000001  0.84703  1.0000
  N   N9        1.0  0.07841999999999998  0.23271000000000006  0.7682000000000001  1.0000
  N   N10       1.0  0.09626999999999997  0.50148  0.34873  1.0000
  N   N11       1.0  0.09632  0.6513400000000003  0.49853  1.0000
  N   N12       1.0  0.5784  0.46451  0.23272  1.0000
  N   N13       1.0  0.09637  0.8470900000000002  0.49834  1.0000
  N   N14       1.0  0.09645999999999998  0.8471600000000002  0.34863999999999995  1.0000
  N   N15       1.0  0.5784  0.7682  0.5355  1.0000
  N   N16       1.0  0.09641  0.65129  0.15279  1.0000
  N   N17       1.0  0.09641999999999998  0.50165  0.15297  1.0000
  N   N18       1.0  0.57843  0.7672900000000002  0.2318  1.0000
  O   O1        1.0  0.5167999999999998  0.68846  0.759  1.0000
  O   O2        1.0  0.34224  0.6794900000000003  0.64094  1.0000
  O   O3        1.0  0.51695  0.24085000000000006  0.31149999999999994  1.0000
  O   O4        1.0  0.34199  0.35874000000000006  0.32049  1.0000
  O   O5        1.0  0.06620999999999998  0.62834  0.81442  1.0000
  O   O6        1.0  0.9319799999999998  0.4881000000000001  0.74234  1.0000
  O   O7        1.0  0.21733999999999995  0.4922900000000001  0.74613  1.0000
  O   O8        1.0  0.5167999999999998  0.07055000000000006  0.31166  1.0000
  O   O9        1.0  0.3421399999999999  0.9615000000000002  0.32058  1.0000
  O   O10       1.0  0.51682  0.07060999999999996  0.75894  1.0000
  O   O11       1.0  0.34207  0.9615699999999999  0.64091  1.0000
  O   O12       1.0  0.06622  0.18594  0.37165  1.0000
  O   O13       1.0  0.93196  0.2544000000000001  0.51188  1.0000
  O   O14       1.0  0.21733999999999995  0.25382  0.50771  1.0000
  O   O15       1.0  0.51665  0.2412200000000001  0.92952  1.0000
  O   O16       1.0  0.3423599999999999  0.35951  0.03877  1.0000
  O   O17       1.0  0.5169599999999999  0.6883700000000001  0.9293400000000002  1.0000
  O   O18       1.0  0.3419199999999999  0.67945  0.03821000000000001  1.0000
  O   O19       1.0  0.06623  0.18567999999999996  0.8139499999999998  1.0000
  O   O20       1.0  0.932  0.25753  0.74568  1.0000
  O   O21       1.0  0.21736999999999995  0.25387  0.74618  1.0000
  O   O22       1.0  0.0168  0.31154  0.241  1.0000
  O   O23       1.0  0.8422399999999998  0.32051  0.35906  1.0000
  O   O24       1.0  0.016949999999999996  0.75914  0.6885  1.0000
  O   O25       1.0  0.84199  0.6412500000000002  0.67951  1.0000
  O   O26       1.0  0.5662099999999998  0.37165  0.18558  1.0000
  O   O27       1.0  0.43198  0.5119000000000002  0.25766  1.0000
  O   O28       1.0  0.71735  0.5077100000000002  0.25387  1.0000
  O   O29       1.0  0.0168  0.9294500000000002  0.68834  1.0000
  O   O30       1.0  0.8421399999999998  0.038490000000000024  0.67942  1.0000
  O   O31       1.0  0.01682  0.92938  0.24106  1.0000
  O   O32       1.0  0.8420699999999998  0.038429999999999985  0.35909  1.0000
  O   O33       1.0  0.5662199999999997  0.8140500000000003  0.62835  1.0000
  O   O34       1.0  0.4319599999999999  0.74559  0.48812  1.0000
  O   O35       1.0  0.71734  0.74618  0.49229  1.0000
  O   O36       1.0  0.01665  0.75878  0.07048  1.0000
  O   O37       1.0  0.8423599999999998  0.6404900000000003  0.9612200000000001  1.0000
  O   O38       1.0  0.016949999999999996  0.31163  0.07066  1.0000
  O   O39       1.0  0.8419199999999998  0.32054999999999995  0.96179  1.0000
  O   O40       1.0  0.56623  0.81432  0.18605  1.0000
  O   O41       1.0  0.432  0.74246  0.25432  1.0000
  O   O42       1.0  0.71737  0.74613  0.25382  1.0000
