data_image0
_chemical_formula_structural       Tb4H24C60N4O36
_chemical_formula_sum              "Tb4 H24 C60 N4 O36"
_cell_length_a       14.40472
_cell_length_b       14.49052
_cell_length_c       15.20423
_cell_angle_alpha    97.95133
_cell_angle_beta     116.14101
_cell_angle_gamma    113.33063

_space_group_name_H-M_alt    "P 1"
_space_group_IT_number       1

loop_
  _space_group_symop_operation_xyz
  'x, y, z'

loop_
  _atom_site_type_symbol
  _atom_site_label
  _atom_site_symmetry_multiplicity
  _atom_site_fract_x
  _atom_site_fract_y
  _atom_site_fract_z
  _atom_site_occupancy
  Tb  Tb1       1.0  0.3650700000000001  0.8856  0.87554  1.0000
  Tb  Tb2       1.0  0.50947  0.49180000000000007  0.62296  1.0000
  Tb  Tb3       1.0  0.63241  0.11546999999999999  0.12426999999999999  1.0000
  Tb  Tb4       1.0  0.48751  0.50838  0.3778  1.0000
  H   H1        1.0  0.17768  0.74868  0.0403  1.0000
  H   H2        1.0  0.39318  0.9912  0.41535  1.0000
  H   H3        1.0  0.48945  0.03402  0.31192  1.0000
  H   H4        1.0  0.29346000000000005  0.7080300000000002  0.33172999999999997  1.0000
  H   H5        1.0  0.3642699999999999  0.65097  0.61944  1.0000
  H   H6        1.0  0.18966000000000008  0.8346300000000002  0.52392  1.0000
  H   H7        1.0  0.20392  0.13735000000000006  0.45841  1.0000
  H   H8        1.0  0.07226999999999999  0.9774400000000001  0.08401  1.0000
  H   H9        1.0  0.2173  0.17769  0.18797  1.0000
  H   H10       1.0  0.87387  0.96158  0.16901  1.0000
  H   H11       1.0  0.52703  0.74924  0.87794  1.0000
  H   H12       1.0  0.80411  0.66626  0.97247  1.0000
  H   H13       1.0  0.8212100000000001  0.2527  0.95958  1.0000
  H   H14       1.0  0.60522  0.009969999999999988  0.58448  1.0000
  H   H15       1.0  0.50861  0.96753  0.68782  1.0000
  H   H16       1.0  0.7036  0.29200999999999994  0.6684899999999999  1.0000
  H   H17       1.0  0.63099  0.34952  0.3808  1.0000
  H   H18       1.0  0.8080900000000001  0.16774000000000003  0.47533  1.0000
  H   H19       1.0  0.794  0.86228  0.54186  1.0000
  H   H20       1.0  0.92568  0.022780000000000047  0.91611  1.0000
  H   H21       1.0  0.78052  0.8222  0.81248  1.0000
  H   H22       1.0  0.12478999999999996  0.03898999999999997  0.8314799999999999  1.0000
  H   H23       1.0  0.47107000000000004  0.25251  0.12299  1.0000
  H   H24       1.0  0.19254  0.33362  0.0269  1.0000
  C   C1        1.0  0.3410699999999999  0.8926699999999999  0.17026999999999995  1.0000
  C   C2        1.0  0.22614999999999993  0.80174  0.12254  1.0000
  C   C3        1.0  0.1747700000000001  0.7767500000000002  0.18157999999999996  1.0000
  C   C4        1.0  0.23643000000000003  0.8438100000000001  0.28839  1.0000
  C   C5        1.0  0.34839000000000003  0.9382300000000001  0.33371  1.0000
  C   C6        1.0  0.4011700000000001  0.9619900000000001  0.27591  1.0000
  C   C7        1.0  0.23556000000000005  0.77569  0.41937999999999986  1.0000
  C   C8        1.0  0.28708000000000006  0.71821  0.40059  1.0000
  C   C9        1.0  0.33214  0.67179  0.47159999999999996  1.0000
  C   C10       1.0  0.32737000000000005  0.68422  0.56217  1.0000
  C   C11       1.0  0.2754900000000001  0.74279  0.57979  1.0000
  C   C12       1.0  0.22834000000000002  0.7882300000000001  0.50843  1.0000
  C   C13       1.0  0.40021  0.91713  0.10995999999999997  1.0000
  C   C14       1.0  0.3846600000000001  0.61128  0.44532  1.0000
  C   C15       1.0  0.27777  0.76451  0.67951  1.0000
  C   C16       1.0  0.21816999999999992  0.17074999999999996  0.3290999999999999  1.0000
  C   C17       1.0  0.17534000000000002  0.10362  0.37642  1.0000
  C   C18       1.0  0.09184000000000003  0.9929900000000002  0.31698999999999994  1.0000
  C   C19       1.0  0.05240000000000001  0.94767  0.21044999999999994  1.0000
  C   C20       1.0  0.10089999999999999  0.01440999999999999  0.16550999999999996  1.0000
  C   C21       1.0  0.18174999999999994  0.12513999999999997  0.22352999999999995  1.0000
  C   C22       1.0  0.8519800000000002  0.81649  0.07899  1.0000
  C   C23       1.0  0.81423  0.88705  0.09904  1.0000
  C   C24       1.0  0.69665  0.86254  0.02787999999999999  1.0000
  C   C25       1.0  0.61751  0.7683300000000001  0.93568  1.0000
  C   C26       1.0  0.65752  0.69838  0.91708  1.0000
  C   C27       1.0  0.7742700000000001  0.7210100000000002  0.98878  1.0000
  C   C28       1.0  0.30300999999999995  0.29022999999999993  0.3898499999999999  1.0000
  C   C29       1.0  0.66376  0.94204  0.05538  1.0000
  C   C30       1.0  0.57944  0.60172  0.8164799999999999  1.0000
  C   C31       1.0  0.6576399999999999  0.10841999999999996  0.8295599999999999  1.0000
  C   C32       1.0  0.77253  0.19954000000000002  0.87729  1.0000
  C   C33       1.0  0.8238  0.22442  0.81815  1.0000
  C   C34       1.0  0.76193  0.15707  0.71143  1.0000
  C   C35       1.0  0.6499700000000003  0.06281000000000002  0.66611  1.0000
  C   C36       1.0  0.59718  0.03919000000000001  0.72383  1.0000
  C   C37       1.0  0.76177  0.22515  0.58046  1.0000
  C   C38       1.0  0.7099600000000001  0.28214  0.59961  1.0000
  C   C39       1.0  0.66461  0.32875000000000004  0.52894  1.0000
  C   C40       1.0  0.66858  0.31643  0.43798  1.0000
  C   C41       1.0  0.72061  0.25818  0.42002  1.0000
  C   C42       1.0  0.76879  0.21321  0.4913199999999999  1.0000
  C   C43       1.0  0.59861  0.0835099999999999  0.8899499999999999  1.0000
  C   C44       1.0  0.6122799999999999  0.38916  0.5556599999999999  1.0000
  C   C45       1.0  0.71734  0.23571000000000003  0.31994  1.0000
  C   C46       1.0  0.7801500000000001  0.8288900000000001  0.67136  1.0000
  C   C47       1.0  0.82279  0.89609  0.6239  1.0000
  C   C48       1.0  0.9059199999999998  0.006909999999999974  0.6829299999999999  1.0000
  C   C49       1.0  0.94514  0.05206000000000006  0.78944  1.0000
  C   C50       1.0  0.8967400000000001  0.9854300000000001  0.83454  1.0000
  C   C51       1.0  0.8161700000000001  0.8746000000000002  0.77681  1.0000
  C   C52       1.0  0.14543999999999999  0.18351999999999993  0.92114  1.0000
  C   C53       1.0  0.18387999999999982  0.1135199999999999  0.9014399999999998  1.0000
  C   C54       1.0  0.30183000000000015  0.13893000000000008  0.97281  1.0000
  C   C55       1.0  0.3806999999999999  0.23327  0.06484  1.0000
  C   C56       1.0  0.34004  0.30277  0.08295  1.0000
  C   C57       1.0  0.22295  0.27923  0.0111  1.0000
  C   C58       1.0  0.69499  0.70936  0.61058  1.0000
  C   C59       1.0  0.3346299999999998  0.05962999999999996  0.9450799999999999  1.0000
  C   C60       1.0  0.41717  0.39922  0.18366  1.0000
  N   N1        1.0  0.05625000000000002  0.67658  0.12887  1.0000
  N   N2        1.0  0.04447000000000007  0.9272200000000002  0.36914  1.0000
  N   N3        1.0  0.94255  0.32442  0.8708499999999999  1.0000
  N   N4        1.0  0.9529399999999999  0.07287999999999997  0.63056  1.0000
  O   O1        1.0  0.50925  0.99553  0.16201  1.0000
  O   O2        1.0  0.33869  0.85971  0.010909999999999998  1.0000
  O   O3        1.0  0.9868300000000001  0.64898  0.03223  1.0000
  O   O4        1.0  0.03494999999999999  0.62655  0.18378  1.0000
  O   O5        1.0  0.39419  0.61075  0.36599  1.0000
  O   O6        1.0  0.42067  0.55894  0.50182  1.0000
  O   O7        1.0  0.3428999999999999  0.74476  0.75625  1.0000
  O   O8        1.0  0.22363000000000002  0.81179  0.69292  1.0000
  O   O9        1.0  0.18907999999999997  0.82241  0.35002  1.0000
  O   O10       1.0  0.32914  0.34703  0.3382  1.0000
  O   O11       1.0  0.34514  0.3283  0.48885  1.0000
  O   O12       1.0  0.11441999999999998  0.9548199999999999  0.46565  1.0000
  O   O13       1.0  0.93871  0.85074  0.31411999999999995  1.0000
  O   O14       1.0  0.74475  0.03140000000000001  0.13402  1.0000
  O   O15       1.0  0.5538500000000001  0.92135  0.00022  1.0000
  O   O16       1.0  0.4859  0.5927  0.73753  1.0000
  O   O17       1.0  0.61113  0.53205  0.80516  1.0000
  O   O18       1.0  0.9685699999999999  0.83885  0.1481  1.0000
  O   O19       1.0  0.4900500000000001  0.004049999999999997  0.83803  1.0000
  O   O20       1.0  0.6597100000000001  0.14139000000000004  0.9888  1.0000
  O   O21       1.0  0.01214999999999984  0.35155999999999993  0.9673599999999998  1.0000
  O   O22       1.0  0.9639100000000003  0.37476  0.81616  1.0000
  O   O23       1.0  0.60323  0.38984  0.63524  1.0000
  O   O24       1.0  0.57582  0.44118  0.49896999999999997  1.0000
  O   O25       1.0  0.65057  0.25389  0.24280999999999997  1.0000
  O   O26       1.0  0.7727900000000002  0.18966  0.30692  1.0000
  O   O27       1.0  0.8085499999999998  0.17829999999999988  0.6493299999999997  1.0000
  O   O28       1.0  0.6683000000000001  0.65257  0.6620599999999999  1.0000
  O   O29       1.0  0.65283  0.6714400000000001  0.51155  1.0000
  O   O30       1.0  0.88312  0.04424000000000003  0.53383  1.0000
  O   O31       1.0  0.05808  0.15042999999999998  0.68553  1.0000
  O   O32       1.0  0.25371999999999983  0.97085  0.8658199999999999  1.0000
  O   O33       1.0  0.44423  0.07953  0.00026  1.0000
  O   O34       1.0  0.51127  0.40876000000000007  0.26246  1.0000
  O   O35       1.0  0.3840800000000001  0.46764  0.19526999999999997  1.0000
  O   O36       1.0  0.028749999999999932  0.16089999999999993  0.8518799999999999  1.0000
