data_image0
_chemical_formula_structural       Ni2H52C72N16
_chemical_formula_sum              "Ni2 H52 C72 N16"
_cell_length_a       9.12089
_cell_length_b       13.08356
_cell_length_c       16.37245
_cell_angle_alpha    105.10157000000001
_cell_angle_beta     90.02707000000001
_cell_angle_gamma    110.52178

_symmetry_space_group_name_H-M    'P 1'
_symmetry_Int_Tables_number       1

loop_
  _symmetry_equiv_pos_as_xyz
  'x,y,z'

loop_
  _atom_site_type_symbol
  _atom_site_label
  _atom_site_symmetry_multiplicity
  _atom_site_fract_x
  _atom_site_fract_y
  _atom_site_fract_z
  _atom_site_occupancy
  Ni  Ni1       1.0  0.10153999999999999  0.05389999999999996  0.6008199999999999  1.0000
  Ni  Ni2       1.0  0.9526300000000001  0.05711  0.10162999999999997  1.0000
  H   H1        1.0  0.21787999999999993  0.018429999999999908  0.7719999999999998  1.0000
  H   H2        1.0  0.21845000000000006  0.8167  0.78986  1.0000
  H   H3        1.0  0.14887  0.67189  0.63033  1.0000
  H   H4        1.0  0.038700000000000054  0.7205100000000001  0.31993  1.0000
  H   H5        1.0  0.98756  0.8870000000000001  0.26841999999999994  1.0000
  H   H6        1.0  0.01884  0.05720999999999999  0.41262  1.0000
  H   H7        1.0  0.34489  0.70782  0.4935099999999999  1.0000
  H   H8        1.0  0.34126  0.51512  0.4209699999999999  1.0000
  H   H9        1.0  0.84157  0.39970999999999995  0.3551999999999999  1.0000
  H   H10       1.0  0.84937  0.5956400000000002  0.42049  1.0000
  H   H11       1.0  0.89642  0.27436  0.24771  1.0000
  H   H12       1.0  0.21029999999999996  0.12032999999999995  0.2951299999999999  1.0000
  H   H13       1.0  0.28231  0.3266200000000001  0.41783  1.0000
  H   H14       1.0  0.44747000000000003  0.04504000000000001  0.61666  1.0000
  H   H15       1.0  0.71677  0.23694  0.66379  1.0000
  H   H16       1.0  0.63221  0.40867  0.64792  1.0000
  H   H17       1.0  0.08259999999999999  0.43735  0.55553  1.0000
  H   H18       1.0  0.78813  0.28219  0.505  1.0000
  H   H19       1.0  0.79819  0.08234999999999994  0.5214499999999997  1.0000
  H   H20       1.0  0.52464  0.42666  0.50374  1.0000
  H   H21       1.0  0.66935  0.63066  0.51726  1.0000
  H   H22       1.0  0.42133  0.7199300000000002  0.7318599999999997  1.0000
  H   H23       1.0  0.26632  0.51526  0.7127299999999998  1.0000
  H   H24       1.0  0.85764  0.79528  0.5846999999999998  1.0000
  H   H25       1.0  0.72737  0.07868000000000001  0.67983  1.0000
  H   H26       1.0  0.47958000000000006  0.8859  0.68982  1.0000
  H   H27       1.0  0.80064  0.017840000000000005  0.27345  1.0000
  H   H28       1.0  0.59616  0.81575  0.28995  1.0000
  H   H29       1.0  0.52223  0.67195  0.13017  1.0000
  H   H30       1.0  0.68154  0.72258  0.8213  1.0000
  H   H31       1.0  0.89962  0.8893700000000001  0.7696199999999997  1.0000
  H   H32       1.0  0.04139999999999998  0.05872999999999995  0.9140099999999998  1.0000
  H   H33       1.0  0.3635499999999998  0.7076899999999998  0.9934399999999998  1.0000
  H   H34       1.0  0.17448  0.51504  0.92037  1.0000
  H   H35       1.0  0.55988  0.40129  0.8553599999999998  1.0000
  H   H36       1.0  0.7479500000000001  0.59724  0.9209999999999998  1.0000
  H   H37       1.0  0.37963  0.27539  0.74776  1.0000
  H   H38       1.0  0.91074  0.11967000000000005  0.79395  1.0000
  H   H39       1.0  0.04442  0.32607  0.91685  1.0000
  H   H40       1.0  0.59937  0.04577999999999998  0.11704999999999997  1.0000
  H   H41       1.0  0.5219  0.23732  0.16323999999999997  1.0000
  H   H42       1.0  0.7784  0.4091  0.14677999999999994  1.0000
  H   H43       1.0  0.35662000000000005  0.4404  0.05545999999999999  1.0000
  H   H44       1.0  0.49778000000000006  0.28668  0.00632  1.0000
  H   H45       1.0  0.28879  0.08646  0.02317  1.0000
  H   H46       1.0  0.90225  0.4280300000000001  0.0035999999999999995  1.0000
  H   H47       1.0  0.96035  0.63184  0.01775  1.0000
  H   H48       1.0  0.29917  0.72178  0.23213999999999996  1.0000
  H   H49       1.0  0.24976000000000004  0.51739  0.21276  1.0000
  H   H50       1.0  0.9394700000000001  0.7975200000000001  0.08382999999999997  1.0000
  H   H51       1.0  0.35371  0.08081999999999998  0.18163999999999994  1.0000
  H   H52       1.0  0.40755000000000013  0.8876100000000001  0.19073999999999994  1.0000
  C   C1        1.0  0.19665000000000002  0.9399099999999999  0.7225899999999997  1.0000
  C   C2        1.0  0.19753000000000004  0.83465  0.73081  1.0000
  C   C3        1.0  0.16087000000000007  0.7603600000000001  0.64926  1.0000
  C   C4        1.0  0.13989000000000007  0.8230700000000001  0.59326  1.0000
  C   C5        1.0  0.10149  0.78183  0.50415  1.0000
  C   C6        1.0  0.06795000000000004  0.84036  0.45053  1.0000
  C   C7        1.0  0.038930000000000006  0.80123  0.35916  1.0000
  C   C8        1.0  0.014749999999999918  0.88665  0.3327  1.0000
  C   C9        1.0  0.029319999999999926  0.97584  0.4078699999999999  1.0000
  C   C10       1.0  0.09690000000000011  0.6647800000000003  0.4630399999999999  1.0000
  C   C11       1.0  0.23487000000000002  0.64033  0.4630899999999999  1.0000
  C   C12       1.0  0.2327699999999999  0.5318699999999998  0.4229699999999999  1.0000
  C   C13       1.0  0.09108000000000001  0.44462000000000007  0.3848199999999999  1.0000
  C   C14       1.0  0.9520799999999999  0.46734  0.38446  1.0000
  C   C15       1.0  0.9565400000000001  0.57716  0.4220899999999999  1.0000
  C   C16       1.0  0.9904699999999999  0.2580799999999999  0.2755499999999999  1.0000
  C   C17       1.0  0.15803  0.18422  0.3017999999999999  1.0000
  C   C18       1.0  0.19684  0.28657999999999995  0.3626299999999999  1.0000
  C   C19       1.0  0.46197  0.13134  0.61797  1.0000
  C   C20       1.0  0.60094  0.23114  0.64251  1.0000
  C   C21       1.0  0.5578099999999999  0.31984999999999997  0.6339599999999997  1.0000
  C   C22       1.0  0.39344  0.27221  0.6051  1.0000
  C   C23       1.0  0.29739  0.3336100000000001  0.59634  1.0000
  C   C24       1.0  0.13300000000000003  0.29014000000000006  0.57836  1.0000
  C   C25       1.0  0.03974000000000001  0.34883  0.55508  1.0000
  C   C26       1.0  0.8897700000000001  0.26918  0.52789  1.0000
  C   C27       1.0  0.8933300000000001  0.16453  0.53702  1.0000
  C   C28       1.0  0.38276  0.45663  0.6059299999999997  1.0000
  C   C29       1.0  0.5  0.49107  0.5527  1.0000
  C   C30       1.0  0.58328  0.60555  0.5610599999999998  1.0000
  C   C31       1.0  0.55407  0.68833  0.62537  1.0000
  C   C32       1.0  0.44067000000000006  0.6557100000000001  0.6805  1.0000
  C   C33       1.0  0.35422  0.5407  0.66973  1.0000
  C   C34       1.0  0.7897500000000001  0.8473700000000001  0.6099899999999998  1.0000
  C   C35       1.0  0.7185099999999999  0.99098  0.6617299999999998  1.0000
  C   C36       1.0  0.59457  0.8968400000000001  0.6675299999999997  1.0000
  C   C37       1.0  0.74335  0.93972  0.22357999999999995  1.0000
  C   C38       1.0  0.63627  0.83422  0.23121999999999995  1.0000
  C   C39       1.0  0.59909  0.76045  0.14951  1.0000
  C   C40       1.0  0.68394  0.8237800000000001  0.09405999999999998  1.0000
  C   C41       1.0  0.68161  0.7829  0.00503  1.0000
  C   C42       1.0  0.77411  0.84198  0.9517699999999998  1.0000
  C   C43       1.0  0.7631000000000001  0.8031600000000001  0.86041  1.0000
  C   C44       1.0  0.8730300000000001  0.8886600000000002  0.83397  1.0000
  C   C45       1.0  0.9487700000000001  0.9774899999999999  0.9092099999999997  1.0000
  C   C46       1.0  0.5691599999999999  0.6656699999999999  0.9634899999999997  1.0000
  C   C47       1.0  0.40639999999999993  0.6405799999999999  0.9631099999999998  1.0000
  C   C48       1.0  0.29993  0.53204  0.92265  1.0000
  C   C49       1.0  0.35458  0.44513000000000014  0.88459  1.0000
  C   C50       1.0  0.51665  0.4685  0.88459  1.0000
  C   C51       1.0  0.62211  0.5784499999999999  0.9225199999999998  1.0000
  C   C52       1.0  0.26902  0.25848  0.77534  1.0000
  C   C53       1.0  0.027069999999999973  0.18390999999999993  0.8010799999999998  1.0000
  C   C54       1.0  0.09035999999999991  0.2863799999999999  0.8618499999999998  1.0000
  C   C55       1.0  0.67118  0.13209999999999997  0.11806999999999997  1.0000
  C   C56       1.0  0.63194  0.23157  0.1421  1.0000
  C   C57       1.0  0.76382  0.32041  0.13329999999999995  1.0000
  C   C58       1.0  0.8807299999999999  0.27327  0.10482  1.0000
  C   C59       1.0  0.03818000000000001  0.33542  0.09602  1.0000
  C   C60       1.0  0.1596  0.29273  0.07843999999999998  1.0000
  C   C61       1.0  0.31168  0.35197  0.05531999999999999  1.0000
  C   C62       1.0  0.38267  0.27294  0.028799999999999996  1.0000
  C   C63       1.0  0.27464  0.1681  0.0382  1.0000
  C   C64       1.0  0.07511999999999996  0.45832  0.10556  1.0000
  C   C65       1.0  0.9917500000000001  0.4925500000000001  0.05250999999999999  1.0000
  C   C66       1.0  0.02259000000000001  0.607  0.0611  1.0000
  C   C67       1.0  0.13510999999999998  0.69013  0.1253  1.0000
  C   C68       1.0  0.21588  0.6576  0.18048  1.0000
  C   C69       1.0  0.18747000000000005  0.54267  0.16960999999999996  1.0000
  C   C70       1.0  0.05942000000000004  0.8495900000000001  0.10991  1.0000
  C   C71       1.0  0.27453999999999984  0.9930399999999999  0.16288  1.0000
  C   C72       1.0  0.30372  0.89871  0.16834  1.0000
  N   N1        1.0  0.16069000000000008  0.93354  0.6412  1.0000
  N   N2        1.0  0.060740000000000016  0.94921  0.4779599999999999  1.0000
  N   N3        1.0  0.08966  0.33403000000000005  0.3452599999999999  1.0000
  N   N4        1.0  0.030280000000000005  0.16785  0.24715999999999994  1.0000
  N   N5        1.0  0.33791000000000004  0.15520000000000006  0.5966  1.0000
  N   N6        1.0  0.036760000000000015  0.17656000000000002  0.56804  1.0000
  N   N7        1.0  0.6407899999999999  0.8048499999999998  0.6338199999999998  1.0000
  N   N8        1.0  0.83966  0.95934  0.62634  1.0000
  N   N9        1.0  0.77374  0.93421  0.14241  1.0000
  N   N10       1.0  0.89081  0.95084  0.9793199999999997  1.0000
  N   N11       1.0  0.24536000000000002  0.33435000000000004  0.8448399999999998  1.0000
  N   N12       1.0  0.13884999999999997  0.16783999999999993  0.7468199999999998  1.0000
  N   N13       1.0  0.81936  0.15634  0.09682999999999997  1.0000
  N   N14       1.0  0.14264000000000002  0.17947000000000002  0.06872999999999997  1.0000
  N   N15       1.0  0.16524000000000005  0.8067200000000001  0.13386999999999993  1.0000
  N   N16       1.0  0.12191000000000014  0.9616300000000002  0.12696  1.0000
