data_image0
_chemical_formula_structural       Cd4H48C56N16O16
_chemical_formula_sum              "Cd4 H48 C56 N16 O16"
_cell_length_a       11.86181
_cell_length_b       13.77932
_cell_length_c       13.80377
_cell_angle_alpha    101.61049000000001
_cell_angle_beta     89.99493
_cell_angle_gamma    115.58983000000002

_symmetry_space_group_name_H-M    'P 1'
_symmetry_Int_Tables_number       1

loop_
  _symmetry_equiv_pos_as_xyz
  'x,y,z'

loop_
  _atom_site_type_symbol
  _atom_site_label
  _atom_site_symmetry_multiplicity
  _atom_site_fract_x
  _atom_site_fract_y
  _atom_site_fract_z
  _atom_site_occupancy
  Cd  Cd1       1.0  0.9991699999999999  0.44344  0.85951  1.0000
  Cd  Cd2       1.0  0.44342  0.44232  0.35930999999999996  1.0000
  Cd  Cd3       1.0  0.5565799999999999  0.55768  0.6406899999999998  1.0000
  Cd  Cd4       1.0  0.0008300000000000021  0.55656  0.14049  1.0000
  H   H1        1.0  0.00866999999999999  0.19424  0.57335  1.0000
  H   H2        1.0  0.15600999999999998  0.22560999999999998  0.6344899999999999  1.0000
  H   H3        1.0  0.16321  0.29302  0.46649  1.0000
  H   H4        1.0  0.10899999999999996  0.38522  0.53183  1.0000
  H   H5        1.0  0.9302  0.19242999999999996  0.85415  1.0000
  H   H6        1.0  0.7481099999999999  0.008089999999999995  0.86162  1.0000
  H   H7        1.0  0.5082999999999999  0.17208999999999997  0.8872999999999998  1.0000
  H   H8        1.0  0.70047  0.34989  0.88424  1.0000
  H   H9        1.0  0.50204  0.69662  0.8667  1.0000
  H   H10       1.0  0.30001999999999995  0.52558  0.8585699999999998  1.0000
  H   H11       1.0  0.08661000000000002  0.6959099999999999  0.8525199999999998  1.0000
  H   H12       1.0  0.28018999999999994  0.87652  0.86491  1.0000
  H   H13       1.0  0.18534  0.19344  0.0726  1.0000
  H   H14       1.0  0.06937  0.22436  0.13396  1.0000
  H   H15       1.0  0.12962  0.29234  0.96617  1.0000
  H   H16       1.0  0.2765  0.3846399999999999  0.031239999999999993  1.0000
  H   H17       1.0  0.26238999999999996  0.19161999999999998  0.3544299999999999  1.0000
  H   H18       1.0  0.25953999999999994  0.007979999999999961  0.36231999999999986  1.0000
  H   H19       1.0  0.6645099999999999  0.17262  0.38747  1.0000
  H   H20       1.0  0.65032  0.34965  0.38397  1.0000
  H   H21       1.0  0.19440000000000004  0.6953  0.3665199999999999  1.0000
  H   H22       1.0  0.22519000000000003  0.5248500000000001  0.35816  1.0000
  H   H23       1.0  0.60967  0.69583  0.35221999999999987  1.0000
  H   H24       1.0  0.5971899999999999  0.8759099999999999  0.3645499999999999  1.0000
  H   H25       1.0  0.81466  0.80656  0.9274  1.0000
  H   H26       1.0  0.9306299999999998  0.7756299999999999  0.8660399999999998  1.0000
  H   H27       1.0  0.87038  0.70766  0.03383  1.0000
  H   H28       1.0  0.7235  0.6153599999999999  0.9687599999999997  1.0000
  H   H29       1.0  0.7376099999999998  0.80838  0.64557  1.0000
  H   H30       1.0  0.74046  0.99202  0.6376799999999999  1.0000
  H   H31       1.0  0.33549000000000007  0.8273800000000001  0.61253  1.0000
  H   H32       1.0  0.34968  0.65035  0.6160199999999999  1.0000
  H   H33       1.0  0.8056  0.3047  0.63348  1.0000
  H   H34       1.0  0.77481  0.47515  0.6418399999999997  1.0000
  H   H35       1.0  0.39033999999999996  0.30417  0.64777  1.0000
  H   H36       1.0  0.40281  0.12408999999999999  0.6354499999999998  1.0000
  H   H37       1.0  0.9913299999999999  0.8057599999999999  0.42664999999999986  1.0000
  H   H38       1.0  0.8439899999999999  0.7743899999999999  0.3655099999999999  1.0000
  H   H39       1.0  0.83679  0.70697  0.53351  1.0000
  H   H40       1.0  0.891  0.61478  0.4681699999999999  1.0000
  H   H41       1.0  0.06980999999999997  0.80757  0.14585  1.0000
  H   H42       1.0  0.2519  0.99191  0.13838  1.0000
  H   H43       1.0  0.49169999999999997  0.8279099999999999  0.1127  1.0000
  H   H44       1.0  0.29953  0.6501  0.11575999999999999  1.0000
  H   H45       1.0  0.49796  0.30337  0.1333  1.0000
  H   H46       1.0  0.69998  0.47442  0.14142999999999997  1.0000
  H   H47       1.0  0.91339  0.30409  0.14747  1.0000
  H   H48       1.0  0.7198099999999998  0.12348  0.13509  1.0000
  C   C1        1.0  0.06343999999999997  0.32117999999999997  0.70448  1.0000
  C   C2        1.0  0.09730999999999998  0.26205  0.61185  1.0000
  C   C3        1.0  0.16201999999999994  0.33838999999999997  0.54132  1.0000
  C   C4        1.0  0.29546  0.42203  0.5808099999999999  1.0000
  C   C5        1.0  0.83515  0.18315999999999996  0.8639499999999999  1.0000
  C   C6        1.0  0.7355899999999999  0.08256999999999996  0.8670299999999997  1.0000
  C   C7        1.0  0.61568  0.07827999999999996  0.8757099999999998  1.0000
  C   C8        1.0  0.60106  0.17484  0.88167  1.0000
  C   C9        1.0  0.7065599999999999  0.27249999999999996  0.8795499999999998  1.0000
  C   C10       1.0  0.40506  0.79989  0.8684899999999998  1.0000
  C   C11       1.0  0.41209  0.70064  0.8664099999999998  1.0000
  C   C12       1.0  0.30004  0.60516  0.86149  1.0000
  C   C13       1.0  0.18084  0.70147  0.8584099999999998  1.0000
  C   C14       1.0  0.28680999999999984  0.8001599999999999  0.86406  1.0000
  C   C15       1.0  0.25762  0.31975  0.20411  1.0000
  C   C16       1.0  0.16466  0.26109  0.11132999999999997  1.0000
  C   C17       1.0  0.17656  0.33760999999999997  0.04096  1.0000
  C   C18       1.0  0.12657000000000002  0.42083  0.08068  1.0000
  C   C19       1.0  0.34835  0.18271  0.36431  1.0000
  C   C20       1.0  0.3471  0.08219  0.36755  1.0000
  C   C21       1.0  0.4627699999999999  0.07791999999999998  0.37607  1.0000
  C   C22       1.0  0.57416  0.17470999999999998  0.38186999999999993  1.0000
  C   C23       1.0  0.5665  0.27228  0.37957  1.0000
  C   C24       1.0  0.39519  0.79937  0.3684099999999999  1.0000
  C   C25       1.0  0.28866  0.69988  0.36623  1.0000
  C   C26       1.0  0.30509  0.60448  0.36118  1.0000
  C   C27       1.0  0.52078  0.70098  0.35811  1.0000
  C   C28       1.0  0.5137399999999999  0.7996599999999999  0.36381  1.0000
  C   C29       1.0  0.74238  0.6802499999999999  0.79589  1.0000
  C   C30       1.0  0.8353399999999999  0.73891  0.88867  1.0000
  C   C31       1.0  0.8234399999999997  0.66239  0.95904  1.0000
  C   C32       1.0  0.8734299999999999  0.57917  0.91932  1.0000
  C   C33       1.0  0.6516499999999998  0.8172899999999997  0.63569  1.0000
  C   C34       1.0  0.6529  0.9178  0.6324499999999997  1.0000
  C   C35       1.0  0.53724  0.92208  0.6239199999999999  1.0000
  C   C36       1.0  0.42583999999999994  0.82529  0.6181299999999998  1.0000
  C   C37       1.0  0.4335  0.72772  0.62043  1.0000
  C   C38       1.0  0.6048099999999998  0.20063  0.63159  1.0000
  C   C39       1.0  0.7113399999999999  0.30012  0.63377  1.0000
  C   C40       1.0  0.69491  0.3955199999999999  0.63882  1.0000
  C   C41       1.0  0.4792199999999999  0.29902  0.64189  1.0000
  C   C42       1.0  0.48626  0.20033999999999993  0.6361899999999999  1.0000
  C   C43       1.0  0.9365599999999998  0.67881  0.29552  1.0000
  C   C44       1.0  0.9026899999999998  0.7379499999999999  0.3881499999999999  1.0000
  C   C45       1.0  0.8379799999999998  0.66161  0.45866999999999997  1.0000
  C   C46       1.0  0.7045399999999998  0.57796  0.41919  1.0000
  C   C47       1.0  0.16484999999999986  0.8168399999999999  0.13605  1.0000
  C   C48       1.0  0.2644199999999999  0.91743  0.13296999999999998  1.0000
  C   C49       1.0  0.3843199999999999  0.9217199999999999  0.12428999999999997  1.0000
  C   C50       1.0  0.39894  0.82516  0.11832999999999998  1.0000
  C   C51       1.0  0.2934399999999999  0.7274999999999999  0.12043999999999998  1.0000
  C   C52       1.0  0.59494  0.20011  0.13150999999999996  1.0000
  C   C53       1.0  0.58791  0.29934999999999995  0.13358999999999996  1.0000
  C   C54       1.0  0.69996  0.39482999999999996  0.13851  1.0000
  C   C55       1.0  0.81916  0.29852  0.14159  1.0000
  C   C56       1.0  0.7131899999999999  0.19984  0.13594  1.0000
  N   N1        1.0  0.8213  0.27661  0.87057  1.0000
  N   N2        1.0  0.5039699999999999  0.9817199999999999  0.8754899999999998  1.0000
  N   N3        1.0  0.5201  0.89568  0.87302  1.0000
  N   N4        1.0  0.18683  0.60558  0.85812  1.0000
  N   N5        1.0  0.45581  0.27624  0.37063  1.0000
  N   N6        1.0  0.47802  0.98145  0.37579  1.0000
  N   N7        1.0  0.3758299999999999  0.89506  0.3731199999999999  1.0000
  N   N8        1.0  0.41873  0.60496  0.3578099999999999  1.0000
  N   N9        1.0  0.54419  0.72376  0.62937  1.0000
  N   N10       1.0  0.52198  0.018539999999999994  0.62421  1.0000
  N   N11       1.0  0.62417  0.10494  0.62688  1.0000
  N   N12       1.0  0.58127  0.39504  0.6421799999999998  1.0000
  N   N13       1.0  0.17869999999999991  0.72339  0.12942  1.0000
  N   N14       1.0  0.49602999999999997  0.01828  0.12451  1.0000
  N   N15       1.0  0.47989999999999994  0.10432  0.12698  1.0000
  N   N16       1.0  0.81317  0.39441999999999994  0.14188  1.0000
  O   O1        1.0  0.0037199999999999738  0.37645  0.6899999999999997  1.0000
  O   O2        1.0  0.09163999999999997  0.31327  0.79037  1.0000
  O   O3        1.0  0.3307999999999999  0.44699  0.6726  1.0000
  O   O4        1.0  0.37189  0.46742  0.51906  1.0000
  O   O5        1.0  0.3724099999999999  0.37724999999999986  0.19011  1.0000
  O   O6        1.0  0.22159  0.30928  0.2896699999999999  1.0000
  O   O7        1.0  0.1142699999999999  0.4436199999999999  0.17227999999999996  1.0000
  O   O8        1.0  0.09737999999999998  0.4677799999999999  0.019429999999999992  1.0000
  O   O9        1.0  0.6275899999999999  0.6227399999999998  0.8098899999999998  1.0000
  O   O10       1.0  0.77841  0.69072  0.71033  1.0000
  O   O11       1.0  0.88573  0.55637  0.82772  1.0000
  O   O12       1.0  0.90262  0.5322199999999998  0.9805699999999998  1.0000
  O   O13       1.0  0.9962799999999998  0.62355  0.31  1.0000
  O   O14       1.0  0.9083599999999998  0.68673  0.20962999999999996  1.0000
  O   O15       1.0  0.6692100000000001  0.55301  0.32739  1.0000
  O   O16       1.0  0.6281099999999997  0.53258  0.48093999999999987  1.0000
