data_image0
_chemical_formula_structural       Co4H28C52N4O16
_chemical_formula_sum              "Co4 H28 C52 N4 O16"
_cell_length_a       11.83764
_cell_length_b       14.05126
_cell_length_c       14.00145
_cell_angle_alpha    90.0
_cell_angle_beta     116.08631
_cell_angle_gamma    90.0

_symmetry_space_group_name_H-M    'P 1'
_symmetry_Int_Tables_number       1

loop_
  _symmetry_equiv_pos_as_xyz
  'x,y,z'

loop_
  _atom_site_type_symbol
  _atom_site_label
  _atom_site_symmetry_multiplicity
  _atom_site_fract_x
  _atom_site_fract_y
  _atom_site_fract_z
  _atom_site_occupancy
  Co  Co1       1.0  0.9009300000000001  0.44764  0.9515800000000001  1.0000
  Co  Co2       1.0  0.09905999999999998  0.94764  0.54842  1.0000
  Co  Co3       1.0  0.09905999999999998  0.55236  0.04842  1.0000
  Co  Co4       1.0  0.90094  0.05235999999999999  0.45158  1.0000
  H   H1        1.0  0.65592  0.53503  0.90234  1.0000
  H   H2        1.0  0.43290000000000006  0.48782  0.84915  1.0000
  H   H3        1.0  0.5481099999999998  0.19548000000000001  0.85395  1.0000
  H   H4        1.0  0.7659000000000001  0.25556  0.90573  1.0000
  H   H5        1.0  0.9855099999999999  0.24869000000000002  0.73481  1.0000
  H   H6        1.0  0.33454  0.18646  0.72171  1.0000
  H   H7        1.0  0.31024999999999997  0.42028  0.91219  1.0000
  H   H8        1.0  0.34407  0.03502  0.59766  1.0000
  H   H9        1.0  0.56709  0.98782  0.65084  1.0000
  H   H10       1.0  0.45188  0.69548  0.64605  1.0000
  H   H11       1.0  0.23409  0.75556  0.59426  1.0000
  H   H12       1.0  0.014480000000000014  0.74869  0.76519  1.0000
  H   H13       1.0  0.66545  0.68647  0.77829  1.0000
  H   H14       1.0  0.68974  0.92028  0.58781  1.0000
  H   H15       1.0  0.34408  0.46498000000000006  0.09766  1.0000
  H   H16       1.0  0.56709  0.51218  0.15084  1.0000
  H   H17       1.0  0.45188  0.80452  0.14605  1.0000
  H   H18       1.0  0.23409  0.74444  0.09426  1.0000
  H   H19       1.0  0.014490000000000006  0.75131  0.26519  1.0000
  H   H20       1.0  0.66545  0.81354  0.27829  1.0000
  H   H21       1.0  0.68974  0.57972  0.08781  1.0000
  H   H22       1.0  0.65592  0.96498  0.40234000000000003  1.0000
  H   H23       1.0  0.43291  0.01218  0.34916  1.0000
  H   H24       1.0  0.54812  0.30452  0.35394999999999993  1.0000
  H   H25       1.0  0.76591  0.24444  0.40573  1.0000
  H   H26       1.0  0.9855099999999999  0.25131  0.23481  1.0000
  H   H27       1.0  0.33454000000000006  0.31354  0.22171000000000002  1.0000
  H   H28       1.0  0.31025  0.07972  0.41219  1.0000
  C   C1        1.0  0.62707  0.46084  0.89064  1.0000
  C   C2        1.0  0.50373  0.43366  0.86182  1.0000
  C   C3        1.0  0.47032  0.33679  0.8475  1.0000
  C   C4        1.0  0.56683  0.27161  0.8624600000000001  1.0000
  C   C5        1.0  0.68873  0.30433  0.89185  1.0000
  C   C6        1.0  0.08434000000000007  0.26447  0.7593300000000001  1.0000
  C   C7        1.0  0.15485999999999991  0.20979  0.72109  1.0000
  C   C8        1.0  0.2822800000000001  0.23002  0.75278  1.0000
  C   C9        1.0  0.33936  0.30804  0.81918  1.0000
  C   C10       1.0  0.2681900000000001  0.36118  0.8580000000000001  1.0000
  C   C11       1.0  0.14251000000000008  0.33886  0.83066  1.0000
  C   C12       1.0  0.09453000000000002  0.13109  0.64358  1.0000
  C   C13       1.0  0.07565999999999999  0.39507  0.88146  1.0000
  C   C14       1.0  0.37292  0.96084  0.60935  1.0000
  C   C15       1.0  0.49626  0.9336600000000002  0.63818  1.0000
  C   C16       1.0  0.5296700000000002  0.83679  0.6525  1.0000
  C   C17       1.0  0.43316  0.77161  0.63754  1.0000
  C   C18       1.0  0.31126  0.80434  0.60815  1.0000
  C   C19       1.0  0.9156500000000001  0.76447  0.7406699999999999  1.0000
  C   C20       1.0  0.8451299999999999  0.70979  0.77891  1.0000
  C   C21       1.0  0.71771  0.73002  0.74722  1.0000
  C   C22       1.0  0.6606300000000002  0.80804  0.6808200000000001  1.0000
  C   C23       1.0  0.7318  0.86118  0.642  1.0000
  C   C24       1.0  0.85748  0.83886  0.66934  1.0000
  C   C25       1.0  0.90547  0.63109  0.85642  1.0000
  C   C26       1.0  0.92433  0.89507  0.61854  1.0000
  C   C27       1.0  0.37292  0.53917  0.10935  1.0000
  C   C28       1.0  0.49626  0.56634  0.13818  1.0000
  C   C29       1.0  0.52967  0.66322  0.1525  1.0000
  C   C30       1.0  0.4331600000000001  0.72839  0.13754  1.0000
  C   C31       1.0  0.31126  0.69567  0.10815  1.0000
  C   C32       1.0  0.9156500000000001  0.73554  0.24067  1.0000
  C   C33       1.0  0.8451299999999999  0.79021  0.27891  1.0000
  C   C34       1.0  0.71771  0.76998  0.24722  1.0000
  C   C35       1.0  0.66063  0.6919600000000001  0.18082  1.0000
  C   C36       1.0  0.7318  0.63882  0.142  1.0000
  C   C37       1.0  0.8574900000000001  0.66114  0.16934  1.0000
  C   C38       1.0  0.90547  0.86891  0.35642  1.0000
  C   C39       1.0  0.92433  0.60493  0.11854  1.0000
  C   C40       1.0  0.6270699999999998  0.03917  0.39065  1.0000
  C   C41       1.0  0.50374  0.06634  0.36182  1.0000
  C   C42       1.0  0.47032  0.16321  0.3475  1.0000
  C   C43       1.0  0.56683  0.22839000000000004  0.36246  1.0000
  C   C44       1.0  0.68873  0.19567  0.39185  1.0000
  C   C45       1.0  0.08435  0.23554000000000003  0.25933  1.0000
  C   C46       1.0  0.15486  0.29021  0.22109  1.0000
  C   C47       1.0  0.28228  0.26998  0.25278  1.0000
  C   C48       1.0  0.33936  0.19196  0.31918  1.0000
  C   C49       1.0  0.26819  0.13882  0.358  1.0000
  C   C50       1.0  0.14251  0.16114  0.33066  1.0000
  C   C51       1.0  0.09453  0.36891  0.14358  1.0000
  C   C52       1.0  0.07567000000000002  0.10493  0.38146  1.0000
  N   N1        1.0  0.7195400000000002  0.39759  0.9063300000000001  1.0000
  N   N2        1.0  0.28045  0.89759  0.59367  1.0000
  N   N3        1.0  0.2804499999999999  0.60241  0.09367  1.0000
  N   N4        1.0  0.7195400000000001  0.10241  0.40633  1.0000
  O   O1        1.0  0.96306  0.37123  0.8622100000000001  1.0000
  O   O2        1.0  0.13793  0.46232  0.94286  1.0000
  O   O3        1.0  0.98074  0.14272  0.57504  1.0000
  O   O4        1.0  0.16191000000000008  0.0582  0.64974  1.0000
  O   O5        1.0  0.036929999999999914  0.87123  0.6377899999999999  1.0000
  O   O6        1.0  0.8620600000000002  0.96232  0.55713  1.0000
  O   O7        1.0  0.01925  0.64272  0.9249600000000001  1.0000
  O   O8        1.0  0.83808  0.55821  0.8502600000000001  1.0000
  O   O9        1.0  0.036929999999999984  0.62877  0.13779  1.0000
  O   O10       1.0  0.8620600000000002  0.53769  0.05713  1.0000
  O   O11       1.0  0.01925  0.85728  0.42496  1.0000
  O   O12       1.0  0.8380900000000001  0.9418  0.35026  1.0000
  O   O13       1.0  0.96306  0.12877  0.36221  1.0000
  O   O14       1.0  0.13793  0.03768  0.44286  1.0000
  O   O15       1.0  0.9807500000000001  0.35728  0.07504  1.0000
  O   O16       1.0  0.16191  0.4418  0.14974  1.0000
