data_image0
_chemical_formula_structural       Zn6H36C30N48
_chemical_formula_sum              "Zn6 H36 C30 N48"
_cell_length_a       9.62715
_cell_length_b       9.61945
_cell_length_c       20.48595
_cell_angle_alpha    89.99429
_cell_angle_beta     90.00273999999999
_cell_angle_gamma    120.06476

_symmetry_space_group_name_H-M    'P 1'
_symmetry_Int_Tables_number       1

loop_
  _symmetry_equiv_pos_as_xyz
  'x,y,z'

loop_
  _atom_site_type_symbol
  _atom_site_label
  _atom_site_symmetry_multiplicity
  _atom_site_fract_x
  _atom_site_fract_y
  _atom_site_fract_z
  _atom_site_occupancy
  Zn  Zn1       1.0  0.06401  0.57132  0.58289  1.0000
  Zn  Zn2       1.0  0.50742  0.93598  0.25026  1.0000
  Zn  Zn3       1.0  0.42873  0.49266999999999994  0.91679  1.0000
  Zn  Zn4       1.0  0.49261999999999995  0.42864  0.41714999999999997  1.0000
  Zn  Zn5       1.0  0.57139  0.06408  0.75041  1.0000
  Zn  Zn6       1.0  0.9362100000000001  0.50744  0.08327  1.0000
  H   H1        1.0  0.014019999999999977  0.65085  0.43987  1.0000
  H   H2        1.0  0.8599900000000001  0.66198  0.40105  1.0000
  H   H3        1.0  0.06163  0.12491  0.7597299999999999  1.0000
  H   H4        1.0  0.8668299999999999  0.0377  0.7853999999999999  1.0000
  H   H5        1.0  0.72505  0.48636000000000007  0.68789  1.0000
  H   H6        1.0  0.58148  0.29127  0.66114  1.0000
  H   H7        1.0  0.63717  0.98519  0.10706  1.0000
  H   H8        1.0  0.80181  0.13971000000000006  0.06803  1.0000
  H   H9        1.0  0.06296999999999998  0.93814  0.42633  1.0000
  H   H10       1.0  0.17008  0.13321  0.45198  1.0000
  H   H11       1.0  0.76169  0.2759  0.35457  1.0000
  H   H12       1.0  0.71031  0.4193  0.32785  1.0000
  H   H13       1.0  0.3487200000000001  0.36303000000000013  0.77327  1.0000
  H   H14       1.0  0.33797  0.1979  0.73444  1.0000
  H   H15       1.0  0.87618  0.93731  0.09302  1.0000
  H   H16       1.0  0.9631599999999999  0.82969  0.11867999999999998  1.0000
  H   H17       1.0  0.51357  0.2383  0.02117  1.0000
  H   H18       1.0  0.7082400000000002  0.28956  0.9944  1.0000
  H   H19       1.0  0.36283  0.34887  0.56012  1.0000
  H   H20       1.0  0.19774  0.33789  0.59894  1.0000
  H   H21       1.0  0.9371100000000001  0.87569  0.24033  1.0000
  H   H22       1.0  0.82934  0.96265  0.2147  1.0000
  H   H23       1.0  0.23891  0.51343  0.31199  1.0000
  H   H24       1.0  0.2903  0.70835  0.33879  1.0000
  H   H25       1.0  0.65114  0.014430000000000004  0.89334  1.0000
  H   H26       1.0  0.66206  0.86025  0.9322300000000001  1.0000
  H   H27       1.0  0.1247  0.06157  0.57363  1.0000
  H   H28       1.0  0.03747999999999999  0.86668  0.54788  1.0000
  H   H29       1.0  0.48609  0.72453  0.64556  1.0000
  H   H30       1.0  0.29122  0.5809  0.67225  1.0000
  H   H31       1.0  0.9854200000000001  0.6372  0.22648  1.0000
  H   H32       1.0  0.13987999999999998  0.80192  0.26551  1.0000
  H   H33       1.0  0.93828  0.06303  0.9071  1.0000
  H   H34       1.0  0.13321  0.17017  0.88154  1.0000
  H   H35       1.0  0.2760500000000001  0.7621200000000001  0.97902  1.0000
  H   H36       1.0  0.41925000000000007  0.71045  0.00567  1.0000
  C   C1        1.0  0.8085800000000001  0.56612  0.4924799999999999  1.0000
  C   C2        1.0  0.7154399999999999  0.44661  0.58488  1.0000
  C   C3        1.0  0.70538  0.38934  0.65376  1.0000
  C   C4        1.0  0.82035  0.332  0.67044  1.0000
  C   C5        1.0  0.9279800000000001  0.20384  0.71367  1.0000
  C   C6        1.0  0.75744  0.1915  0.15932  1.0000
  C   C7        1.0  0.73114  0.28516  0.25155  1.0000
  C   C8        1.0  0.6842100000000001  0.29532  0.32047  1.0000
  C   C9        1.0  0.51184  0.18  0.3373  1.0000
  C   C10       1.0  0.27595  0.07205  0.38056999999999996  1.0000
  C   C11       1.0  0.43393999999999994  0.24262  0.82582  1.0000
  C   C12       1.0  0.55332  0.26882  0.91819  1.0000
  C   C13       1.0  0.61058  0.31581  0.98707  1.0000
  C   C14       1.0  0.6682  0.48835  0.0038299999999999996  1.0000
  C   C15       1.0  0.7966900000000001  0.72443  0.04708  1.0000
  C   C16       1.0  0.24231000000000005  0.4337300000000001  0.5075  1.0000
  C   C17       1.0  0.26864  0.55299  0.41505999999999993  1.0000
  C   C18       1.0  0.3161  0.61034  0.3462  1.0000
  C   C19       1.0  0.48852000000000007  0.6678  0.32961  1.0000
  C   C20       1.0  0.7244  0.79628  0.28636  1.0000
  C   C21       1.0  0.56588  0.80848  0.84088  1.0000
  C   C22       1.0  0.44616  0.71505  0.74856  1.0000
  C   C23       1.0  0.38909  0.70496  0.67964  1.0000
  C   C24       1.0  0.3319200000000001  0.8201300000000002  0.66285  1.0000
  C   C25       1.0  0.20397000000000012  0.9279400000000002  0.61953  1.0000
  C   C26       1.0  0.19166  0.75753  0.17424  1.0000
  C   C27       1.0  0.28513000000000005  0.73123  0.08199  1.0000
  C   C28       1.0  0.29539  0.68443  0.01306  1.0000
  C   C29       1.0  0.1801  0.51197  0.99623  1.0000
  C   C30       1.0  0.07213  0.27587  0.9530000000000001  1.0000
  N   N1        1.0  0.6476900000000001  0.48507999999999996  0.48898  1.0000
  N   N2        1.0  0.58758  0.40894  0.54863  1.0000
  N   N3        1.0  0.85605  0.54548  0.55253  1.0000
  N   N4        1.0  0.9135900000000001  0.6639  0.4449  1.0000
  N   N5        1.0  0.78732  0.20855000000000007  0.71199  1.0000
  N   N6        1.0  0.97027  0.39777  0.64889  1.0000
  N   N7        1.0  0.04190000000000001  0.31631  0.67562  1.0000
  N   N8        1.0  0.94578  0.0912  0.74812  1.0000
  N   N9        1.0  0.83677  0.3525  0.15548  1.0000
  N   N10       1.0  0.82077  0.41294  0.21504000000000004  1.0000
  N   N11       1.0  0.68964  0.14428  0.21946  1.0000
  N   N12       1.0  0.7505500000000002  0.08624  0.11195  1.0000
  N   N13       1.0  0.42147  0.21289  0.37884  1.0000
  N   N14       1.0  0.42751  0.0298  0.31588  1.0000
  N   N15       1.0  0.27439  0.95793  0.34264  1.0000
  N   N16       1.0  0.14533  0.05414  0.41481  1.0000
  N   N17       1.0  0.51535  0.16322  0.82217  1.0000
  N   N18       1.0  0.59139  0.17914  0.8817999999999999  1.0000
  N   N19       1.0  0.45426  0.31033  0.88597  1.0000
  N   N20       1.0  0.33608  0.24958000000000002  0.77829  1.0000
  N   N21       1.0  0.7918  0.57886  0.04526  1.0000
  N   N22       1.0  0.60244  0.57265  0.98248  1.0000
  N   N23       1.0  0.68403  0.72588  0.00923  1.0000
  N   N24       1.0  0.90968  0.8550100000000003  0.08138  1.0000
  N   N25       1.0  0.16255  0.51478  0.51098  1.0000
  N   N26       1.0  0.17855  0.59075  0.4513  1.0000
  N   N27       1.0  0.3103200000000001  0.4541900000000001  0.44742999999999994  1.0000
  N   N28       1.0  0.24941  0.33597  0.5551  1.0000
  N   N29       1.0  0.57892  0.79134  0.28811  1.0000
  N   N30       1.0  0.57273  0.6021200000000001  0.35111  1.0000
  N   N31       1.0  0.72587  0.68375  0.32436  1.0000
  N   N32       1.0  0.85481  0.90914  0.25196  1.0000
  N   N33       1.0  0.48449000000000003  0.64747  0.84457  1.0000
  N   N34       1.0  0.40819  0.58718  0.78496  1.0000
  N   N35       1.0  0.5453300000000001  0.85584  0.78079  1.0000
  N   N36       1.0  0.66389  0.91372  0.8883599999999999  1.0000
  N   N37       1.0  0.20879000000000003  0.78722  0.6212  1.0000
  N   N38       1.0  0.39757  0.97017  0.68445  1.0000
  N   N39       1.0  0.31626  0.04191  0.65765  1.0000
  N   N40       1.0  0.09133000000000001  0.94565  0.58513  1.0000
  N   N41       1.0  0.35252  0.83663  0.1781  1.0000
  N   N42       1.0  0.41283  0.82066  0.11851  1.0000
  N   N43       1.0  0.14439000000000005  0.68987  0.11408  1.0000
  N   N44       1.0  0.08644999999999999  0.75065  0.22159  1.0000
  N   N45       1.0  0.21304  0.42133  0.9548499999999999  1.0000
  N   N46       1.0  0.029890000000000028  0.42781  0.0175  1.0000
  N   N47       1.0  0.95799  0.27457  0.9907599999999999  1.0000
  N   N48       1.0  0.05421  0.14511  0.9187500000000001  1.0000
