data_image0
_chemical_formula_structural       Co5P2H32C46N8O18
_chemical_formula_sum              "Co5 P2 H32 C46 N8 O18"
_cell_length_a       9.11918
_cell_length_b       10.16451
_cell_length_c       15.05588
_cell_angle_alpha    100.85114
_cell_angle_beta     91.23158
_cell_angle_gamma    89.00754

_symmetry_space_group_name_H-M    'P 1'
_symmetry_Int_Tables_number       1

loop_
  _symmetry_equiv_pos_as_xyz
  'x,y,z'

loop_
  _atom_site_type_symbol
  _atom_site_label
  _atom_site_symmetry_multiplicity
  _atom_site_fract_x
  _atom_site_fract_y
  _atom_site_fract_z
  _atom_site_occupancy
  Co  Co1       1.0  0.08320000000000001  0.8558300000000001  0.8267700000000002  1.0000
  Co  Co2       1.0  0.8313499999999998  0.6088700000000001  0.058920000000000014  1.0000
  Co  Co3       1.0  0.9164499999999999  0.14407  0.17317000000000005  1.0000
  Co  Co4       1.0  0.16874999999999998  0.39111000000000007  0.9412500000000003  1.0000
  Co  Co5       1.0  0.9999  0.99993  0.00023000000000000006  1.0000
  P   P1        1.0  0.11036  0.70852  0.00123  1.0000
  P   P2        1.0  0.88939  0.2915400000000001  0.9988200000000002  1.0000
  H   H1        1.0  0.46415  0.026930000000000003  0.18168  1.0000
  H   H2        1.0  0.38097  0.65315  0.92683  1.0000
  H   H3        1.0  0.84853  0.82557  0.24529000000000006  1.0000
  H   H4        1.0  0.5154099999999999  0.55907  0.13052000000000005  1.0000
  H   H5        1.0  0.40261  0.7338100000000001  0.2774100000000001  1.0000
  H   H6        1.0  0.52345  0.97994  0.3610200000000001  1.0000
  H   H7        1.0  0.71663  0.9710400000000002  0.37313000000000013  1.0000
  H   H8        1.0  0.36388999999999994  0.83057  0.4305900000000001  1.0000
  H   H9        1.0  0.33207999999999993  0.69278  0.54712  1.0000
  H   H10       1.0  0.79428  0.71979  0.6107  1.0000
  H   H11       1.0  0.82692  0.84892  0.48959000000000014  1.0000
  H   H12       1.0  0.5712400000000001  0.49781000000000003  0.6284100000000002  1.0000
  H   H13       1.0  0.61324  0.6374799999999999  0.71555  1.0000
  H   H14       1.0  0.39381999999999995  0.79911  0.77508  1.0000
  H   H15       1.0  0.29706  0.42372  0.6101100000000002  1.0000
  H   H16       1.0  0.03944999999999999  0.5438500000000001  0.6860200000000002  1.0000
  H   H17       1.0  0.53539  0.9728400000000001  0.8181000000000003  1.0000
  H   H18       1.0  0.6186799999999999  0.3464  0.07311000000000002  1.0000
  H   H19       1.0  0.1515  0.17427999999999996  0.7547  1.0000
  H   H20       1.0  0.48449999999999993  0.44085  0.86951  1.0000
  H   H21       1.0  0.59737  0.26623  0.7225800000000001  1.0000
  H   H22       1.0  0.47656999999999994  0.02004  0.63894  1.0000
  H   H23       1.0  0.28341  0.028920000000000074  0.6268200000000003  1.0000
  H   H24       1.0  0.63614  0.16939000000000007  0.5693700000000003  1.0000
  H   H25       1.0  0.66795  0.30718000000000006  0.4528300000000001  1.0000
  H   H26       1.0  0.20574999999999996  0.2802200000000001  0.3892900000000001  1.0000
  H   H27       1.0  0.1731  0.15108  0.5104  1.0000
  H   H28       1.0  0.42861  0.5022  0.3716000000000001  1.0000
  H   H29       1.0  0.3867799999999999  0.36251000000000005  0.28444000000000014  1.0000
  H   H30       1.0  0.60605  0.20099  0.22504000000000005  1.0000
  H   H31       1.0  0.70294  0.5763600000000001  0.38990000000000014  1.0000
  H   H32       1.0  0.9605599999999999  0.45614  0.31408000000000014  1.0000
  C   C1        1.0  0.28326  0.78505  0.03824  1.0000
  C   C2        1.0  0.30542000000000014  0.8919300000000001  0.11198000000000002  1.0000
  C   C3        1.0  0.44704  0.94289  0.1265  1.0000
  C   C4        1.0  0.56442  0.8944000000000001  0.07049000000000002  1.0000
  C   C5        1.0  0.54198  0.7885200000000003  0.9963600000000002  1.0000
  C   C6        1.0  0.40154  0.7357300000000001  0.9830700000000002  1.0000
  C   C7        1.0  0.18986999999999996  0.95956  0.17667000000000005  1.0000
  C   C8        1.0  0.71102  0.95574  0.08868000000000002  1.0000
  C   C9        1.0  0.65313  0.7241  0.9272400000000002  1.0000
  C   C10       1.0  0.74473  0.77397  0.23512000000000002  1.0000
  C   C11       1.0  0.5691  0.6379  0.17782  1.0000
  C   C12       1.0  0.51208  0.72301  0.25079000000000007  1.0000
  C   C13       1.0  0.61618  0.91246  0.36875000000000013  1.0000
  C   C14       1.0  0.59815  0.84635  0.4498000000000001  1.0000
  C   C15       1.0  0.45904999999999996  0.80333  0.46855000000000013  1.0000
  C   C16       1.0  0.44134  0.72564  0.5345  1.0000
  C   C17       1.0  0.56143  0.69021  0.5850600000000001  1.0000
  C   C18       1.0  0.69969  0.7392600000000003  0.5696100000000002  1.0000
  C   C19       1.0  0.71789  0.8148  0.50191  1.0000
  C   C20       1.0  0.54241  0.60282  0.6557300000000003  1.0000
  C   C21       1.0  0.33078  0.7155300000000002  0.7397300000000002  1.0000
  C   C22       1.0  0.27681  0.51954  0.6542800000000002  1.0000
  C   C23       1.0  0.15075  0.58024  0.6914400000000003  1.0000
  C   C24       1.0  0.71654  0.2147000000000001  0.9617000000000002  1.0000
  C   C25       1.0  0.69432  0.10764000000000004  0.8880500000000002  1.0000
  C   C26       1.0  0.55262  0.05682000000000007  0.8733500000000002  1.0000
  C   C27       1.0  0.43518  0.10547000000000006  0.9293200000000003  1.0000
  C   C28       1.0  0.45783999999999997  0.21119000000000002  0.003450000000000001  1.0000
  C   C29       1.0  0.59825  0.26396  0.016830000000000008  1.0000
  C   C30       1.0  0.81011  0.040040000000000034  0.8235400000000002  1.0000
  C   C31       1.0  0.28849  0.04441000000000007  0.9113700000000002  1.0000
  C   C32       1.0  0.34723  0.27577  0.07276000000000003  1.0000
  C   C33       1.0  0.25526  0.22592000000000012  0.7648800000000002  1.0000
  C   C34       1.0  0.43086  0.36202000000000006  0.8222000000000002  1.0000
  C   C35       1.0  0.48789000000000005  0.27696000000000004  0.7492100000000003  1.0000
  C   C36       1.0  0.3838399999999999  0.08752000000000007  0.6312200000000002  1.0000
  C   C37       1.0  0.40187999999999996  0.15365  0.55018  1.0000
  C   C38       1.0  0.5409799999999999  0.19665  0.53143  1.0000
  C   C39       1.0  0.55868  0.27435000000000004  0.46548000000000006  1.0000
  C   C40       1.0  0.4385899999999998  0.30981  0.4149400000000001  1.0000
  C   C41       1.0  0.3003199999999999  0.26076  0.4303800000000001  1.0000
  C   C42       1.0  0.2821300000000001  0.18521000000000007  0.49808000000000013  1.0000
  C   C43       1.0  0.45757  0.39723  0.34427000000000013  1.0000
  C   C44       1.0  0.66918  0.28452000000000005  0.2603700000000001  1.0000
  C   C45       1.0  0.7232199999999999  0.48055000000000003  0.34575  1.0000
  C   C46       1.0  0.84923  0.41973  0.3086300000000001  1.0000
  N   N1        1.0  0.71369  0.67151  0.1682  1.0000
  N   N2        1.0  0.62423  0.80879  0.28631  1.0000
  N   N3        1.0  0.39021  0.6064100000000001  0.6862400000000002  1.0000
  N   N4        1.0  0.18505  0.7041500000000002  0.74386  1.0000
  N   N5        1.0  0.28626  0.32840000000000014  0.8318300000000002  1.0000
  N   N6        1.0  0.37576  0.1911700000000001  0.7136800000000002  1.0000
  N   N7        1.0  0.6097599999999999  0.3937  0.3137800000000001  1.0000
  N   N8        1.0  0.81491  0.29582  0.25624  1.0000
  O   O1        1.0  0.14087  0.5781800000000001  0.9348900000000002  1.0000
  O   O2        1.0  0.03775  0.80672  0.9428700000000002  1.0000
  O   O3        1.0  0.019929999999999996  0.70056  0.08448  1.0000
  O   O4        1.0  0.07237  0.005399999999999999  0.13888  1.0000
  O   O5        1.0  0.21154000000000003  0.9761300000000002  0.25960000000000005  1.0000
  O   O6        1.0  0.73371  0.03863000000000002  0.16356000000000007  1.0000
  O   O7        1.0  0.80649  0.92183  0.028760000000000008  1.0000
  O   O8        1.0  0.73554  0.62728  0.94676  1.0000
  O   O9        1.0  0.6449599999999999  0.7532600000000002  0.8503900000000002  1.0000
  O   O10       1.0  0.85884  0.4217600000000001  0.06537  1.0000
  O   O11       1.0  0.9622299999999999  0.19335  0.057130000000000014  1.0000
  O   O12       1.0  0.97976  0.2998300000000001  0.9156400000000002  1.0000
  O   O13       1.0  0.92766  0.9944300000000001  0.8614  1.0000
  O   O14       1.0  0.7890099999999999  0.02349  0.74055  1.0000
  O   O15       1.0  0.26572  0.96166  0.8364000000000003  1.0000
  O   O16       1.0  0.19343999999999995  0.07808000000000011  0.9716200000000003  1.0000
  O   O17       1.0  0.26453  0.37252  0.05341  1.0000
  O   O18       1.0  0.35615  0.24681  0.14963  1.0000
