data_image0
_chemical_formula_structural       Zn12H24C48O48
_chemical_formula_sum              "Zn12 H24 C48 O48"
_cell_length_a       11.8356
_cell_length_b       12.433289999999998
_cell_length_c       14.67779
_cell_angle_alpha    89.74486
_cell_angle_beta     90.12769999999999
_cell_angle_gamma    112.72055000000002

_symmetry_space_group_name_H-M    'P 1'
_symmetry_Int_Tables_number       1

loop_
  _symmetry_equiv_pos_as_xyz
  'x,y,z'

loop_
  _atom_site_type_symbol
  _atom_site_label
  _atom_site_symmetry_multiplicity
  _atom_site_fract_x
  _atom_site_fract_y
  _atom_site_fract_z
  _atom_site_occupancy
  Zn  Zn1       1.0  0.6618800000000001  0.6384900000000001  0.40749  1.0000
  Zn  Zn2       1.0  0.7996399999999999  0.30102  0.49336000000000013  1.0000
  Zn  Zn3       1.0  0.9290000000000002  0.8984600000000003  0.63708  1.0000
  Zn  Zn4       1.0  0.8345699999999999  0.8622500000000002  0.90684  1.0000
  Zn  Zn5       1.0  0.70153  0.19972000000000004  0.98937  1.0000
  Zn  Zn6       1.0  0.57111  0.60261  0.13797  1.0000
  Zn  Zn7       1.0  0.33812  0.36151  0.59251  1.0000
  Zn  Zn8       1.0  0.20036000000000007  0.6989800000000003  0.50664  1.0000
  Zn  Zn9       1.0  0.071  0.10154  0.36292000000000013  1.0000
  Zn  Zn10      1.0  0.16543000000000002  0.13775000000000004  0.09316  1.0000
  Zn  Zn11      1.0  0.29847  0.8002800000000001  0.010630000000000002  1.0000
  Zn  Zn12      1.0  0.4288899999999999  0.3973900000000001  0.86203  1.0000
  H   H1        1.0  0.8858099999999999  0.45496  0.59159  1.0000
  H   H2        1.0  0.79348  0.38732  0.73005  1.0000
  H   H3        1.0  0.60866  0.37917  0.78892  1.0000
  H   H4        1.0  0.7863899999999999  0.54409  0.8222400000000002  1.0000
  H   H5        1.0  0.8592899999999999  0.72611  0.74822  1.0000
  H   H6        1.0  0.92945  0.58185  0.7143800000000002  1.0000
  H   H7        1.0  0.61544  0.04636  0.09049  1.0000
  H   H8        1.0  0.70875  0.11457000000000002  0.2282  1.0000
  H   H9        1.0  0.89333  0.12261  0.28753  1.0000
  H   H10       1.0  0.71515  0.958  0.32088  1.0000
  H   H11       1.0  0.64233  0.7750200000000003  0.24910000000000004  1.0000
  H   H12       1.0  0.5730199999999999  0.9206500000000001  0.21507  1.0000
  H   H13       1.0  0.11419000000000004  0.5450400000000001  0.40841  1.0000
  H   H14       1.0  0.20652  0.61268  0.26995  1.0000
  H   H15       1.0  0.3913400000000001  0.6208300000000001  0.21108000000000005  1.0000
  H   H16       1.0  0.21361000000000002  0.4559100000000001  0.17776000000000006  1.0000
  H   H17       1.0  0.14071  0.2738900000000001  0.25177  1.0000
  H   H18       1.0  0.07055000000000007  0.41815000000000013  0.28562  1.0000
  H   H19       1.0  0.38456999999999997  0.95364  0.9095100000000003  1.0000
  H   H20       1.0  0.29125  0.8854300000000002  0.7718  1.0000
  H   H21       1.0  0.10667000000000003  0.87739  0.71247  1.0000
  H   H22       1.0  0.28485  0.042  0.67912  1.0000
  H   H23       1.0  0.35767  0.22498000000000007  0.7509000000000001  1.0000
  H   H24       1.0  0.42698  0.07935000000000002  0.78493  1.0000
  C   C1        1.0  0.75352  0.49668  0.51842  1.0000
  C   C2        1.0  0.81167  0.4844300000000001  0.60932  1.0000
  C   C3        1.0  0.728  0.39552  0.67928  1.0000
  C   C4        1.0  0.64464  0.4419900000000001  0.7330500000000002  1.0000
  C   C5        1.0  0.71937  0.56103  0.7776700000000001  1.0000
  C   C6        1.0  0.79587  0.65358  0.70824  1.0000
  C   C7        1.0  0.87819  0.6021900000000001  0.6582500000000002  1.0000
  C   C8        1.0  0.6563499999999998  0.26631  0.65065  1.0000
  C   C9        1.0  0.53144  0.43103  0.67947  1.0000
  C   C10       1.0  0.65385  0.6111  0.8456800000000002  1.0000
  C   C11       1.0  0.7129500000000001  0.7011000000000002  0.6539000000000001  1.0000
  C   C12       1.0  0.9848999999999999  0.6837800000000002  0.6022300000000002  1.0000
  C   C13       1.0  0.7467699999999999  0.0035800000000000007  0.018  1.0000
  C   C14       1.0  0.68937  0.01662  0.10861  1.0000
  C   C15       1.0  0.77372  0.10567  0.17763  1.0000
  C   C16       1.0  0.8574499999999998  0.05953000000000001  0.23209  1.0000
  C   C17       1.0  0.7824  0.9404200000000001  0.27739  1.0000
  C   C18       1.0  0.7053499999999999  0.8475900000000001  0.20858  1.0000
  C   C19       1.0  0.62284  0.8994300000000001  0.15875000000000006  1.0000
  C   C20       1.0  0.84492  0.23427  0.14734  1.0000
  C   C21       1.0  0.9708999999999999  0.07056  0.17897  1.0000
  C   C22       1.0  0.8455799999999999  0.8901200000000001  0.34776  1.0000
  C   C23       1.0  0.78727  0.8005000000000001  0.15319  1.0000
  C   C24       1.0  0.51478  0.81816  0.10422000000000002  1.0000
  C   C25       1.0  0.24648000000000003  0.5033200000000001  0.48157  1.0000
  C   C26       1.0  0.18832000000000002  0.5155800000000001  0.39068  1.0000
  C   C27       1.0  0.272  0.6044800000000001  0.32072  1.0000
  C   C28       1.0  0.35535999999999995  0.55801  0.26694  1.0000
  C   C29       1.0  0.28062  0.43897  0.22233  1.0000
  C   C30       1.0  0.20413000000000006  0.34642000000000006  0.29175000000000006  1.0000
  C   C31       1.0  0.12181  0.39781  0.34174  1.0000
  C   C32       1.0  0.34364999999999996  0.73369  0.34935000000000005  1.0000
  C   C33       1.0  0.4685600000000001  0.5689700000000001  0.32053  1.0000
  C   C34       1.0  0.34615  0.38890000000000013  0.15431  1.0000
  C   C35       1.0  0.28705  0.2989  0.3461  1.0000
  C   C36       1.0  0.015099999999999995  0.31622  0.39777  1.0000
  C   C37       1.0  0.25323  0.99642  0.98199  1.0000
  C   C38       1.0  0.31062999999999996  0.9833800000000001  0.89139  1.0000
  C   C39       1.0  0.22628000000000006  0.89433  0.8223700000000003  1.0000
  C   C40       1.0  0.14255000000000007  0.9404700000000001  0.76791  1.0000
  C   C41       1.0  0.2176  0.05958000000000001  0.72261  1.0000
  C   C42       1.0  0.29465  0.15241000000000002  0.7914200000000002  1.0000
  C   C43       1.0  0.37715999999999994  0.10057000000000002  0.84125  1.0000
  C   C44       1.0  0.15507999999999994  0.76573  0.8526600000000002  1.0000
  C   C45       1.0  0.029100000000000008  0.92944  0.82103  1.0000
  C   C46       1.0  0.15442  0.10988000000000003  0.65224  1.0000
  C   C47       1.0  0.21272999999999997  0.1995  0.84681  1.0000
  C   C48       1.0  0.4852199999999999  0.18184000000000003  0.89577  1.0000
  O   O1        1.0  0.74341  0.5936500000000001  0.50462  1.0000
  O   O2        1.0  0.72656  0.41610000000000014  0.45932  1.0000
  O   O3        1.0  0.7058  0.21796000000000001  0.59115  1.0000
  O   O4        1.0  0.56096  0.20859000000000003  0.69155  1.0000
  O   O5        1.0  0.5206600000000001  0.40663000000000005  0.59492  1.0000
  O   O6        1.0  0.43272  0.42298  0.72282  1.0000
  O   O7        1.0  0.55641  0.5479  0.88804  1.0000
  O   O8        1.0  0.7059  0.71889  0.8639300000000002  1.0000
  O   O9        1.0  0.60078  0.64479  0.65386  1.0000
  O   O10       1.0  0.76344  0.80291  0.61329  1.0000
  O   O11       1.0  0.01746000000000002  0.7925500000000001  0.59551  1.0000
  O   O12       1.0  0.04873000000000005  0.6300300000000001  0.56696  1.0000
  O   O13       1.0  0.7539300000000001  0.9053200000000001  0.0046  1.0000
  O   O14       1.0  0.7761499999999999  0.08466  0.9587000000000002  1.0000
  O   O15       1.0  0.7942400000000001  0.28174000000000005  0.08748  1.0000
  O   O16       1.0  0.9408  0.29218  0.18735  1.0000
  O   O17       1.0  0.98257  0.09560000000000002  0.09451  1.0000
  O   O18       1.0  0.06888  0.07739000000000001  0.22318  1.0000
  O   O19       1.0  0.94276  0.9523300000000001  0.3907  1.0000
  O   O20       1.0  0.79085  0.7831300000000002  0.36816  1.0000
  O   O21       1.0  0.8990599999999999  0.85783  0.15042  1.0000
  O   O22       1.0  0.7366200000000003  0.6982500000000003  0.11371000000000003  1.0000
  O   O23       1.0  0.48071  0.70911  0.09909  1.0000
  O   O24       1.0  0.45147  0.87239  0.06824000000000002  1.0000
  O   O25       1.0  0.25659  0.40635  0.4953800000000001  1.0000
  O   O26       1.0  0.27344  0.5839  0.54067  1.0000
  O   O27       1.0  0.2942  0.78204  0.40884  1.0000
  O   O28       1.0  0.43904000000000015  0.7914100000000002  0.30844  1.0000
  O   O29       1.0  0.47934000000000004  0.5933700000000001  0.40508  1.0000
  O   O30       1.0  0.5672800000000001  0.5770200000000001  0.27718  1.0000
  O   O31       1.0  0.44359  0.4521  0.11196  1.0000
  O   O32       1.0  0.2941  0.28111  0.13607  1.0000
  O   O33       1.0  0.39922  0.35521000000000014  0.34614  1.0000
  O   O34       1.0  0.23656  0.19709000000000002  0.38671  1.0000
  O   O35       1.0  0.9825400000000001  0.20745000000000005  0.4044900000000001  1.0000
  O   O36       1.0  0.95127  0.36996999999999997  0.43304  1.0000
  O   O37       1.0  0.24607  0.09468  0.9954000000000002  1.0000
  O   O38       1.0  0.22385000000000002  0.91534  0.04129  1.0000
  O   O39       1.0  0.20576000000000003  0.7182600000000001  0.91252  1.0000
  O   O40       1.0  0.05920000000000001  0.70782  0.81265  1.0000
  O   O41       1.0  0.017430000000000077  0.9044000000000002  0.90549  1.0000
  O   O42       1.0  0.93112  0.92261  0.77682  1.0000
  O   O43       1.0  0.057240000000000006  0.04767000000000001  0.6093  1.0000
  O   O44       1.0  0.20915  0.21687  0.63184  1.0000
  O   O45       1.0  0.10093  0.14217  0.84958  1.0000
  O   O46       1.0  0.26338000000000006  0.3017500000000001  0.88629  1.0000
  O   O47       1.0  0.51929  0.29089000000000004  0.90091  1.0000
  O   O48       1.0  0.54853  0.12761  0.9317500000000002  1.0000
