data_image0
_chemical_formula_structural       La3H45C81O18
_chemical_formula_sum              "La3 H45 C81 O18"
_cell_length_a       12.57142
_cell_length_b       17.25931
_cell_length_c       17.259279999999997
_cell_angle_alpha    114.26412000000002
_cell_angle_beta     104.08589
_cell_angle_gamma    104.08587

_space_group_name_H-M_alt    "P 1"
_space_group_IT_number       1

loop_
  _space_group_symop_operation_xyz
  'x, y, z'

loop_
  _atom_site_type_symbol
  _atom_site_label
  _atom_site_symmetry_multiplicity
  _atom_site_fract_x
  _atom_site_fract_y
  _atom_site_fract_z
  _atom_site_occupancy
  La  La1       1.0  0.32755  0.6552799999999999  0.32777  1.0000
  La  La2       1.0  0.0  0.67252  0.32748  1.0000
  La  La3       1.0  0.67245  0.67223  0.34472  1.0000
  H   H1        1.0  0.47595  0.94346  0.6048  1.0000
  H   H2        1.0  0.55023  0.11476999999999996  0.68662  1.0000
  H   H3        1.0  0.27397  0.09804000000000002  0.46857000000000004  1.0000
  H   H4        1.0  0.20155000000000006  0.9269100000000001  0.38775000000000004  1.0000
  H   H5        1.0  0.42934000000000005  0.23286  0.51137  1.0000
  H   H6        1.0  0.44661  0.51812  0.67036  1.0000
  H   H7        1.0  0.44197  0.60131  0.58247  1.0000
  H   H8        1.0  0.87136  0.39544  0.33878  1.0000
  H   H9        1.0  0.8635400000000001  0.31348  0.42828000000000005  1.0000
  H   H10       1.0  0.80525  0.53119  0.62925  1.0000
  H   H11       1.0  0.81405  0.61222  0.53902  1.0000
  H   H12       1.0  0.91773  0.4887099999999999  0.72145  1.0000
  H   H13       1.0  0.7762800000000001  0.32958000000000004  0.8478000000000001  1.0000
  H   H14       1.0  0.85936  0.41731  0.01868  1.0000
  H   H15       1.0  0.53269  0.66128  0.05683000000000001  1.0000
  H   H16       1.0  0.4357400000000002  0.5721600000000002  0.8855600000000002  1.0000
  H   H17       1.0  0.17578999999999997  0.37053  0.90171  1.0000
  H   H18       1.0  0.27447  0.46063  0.07289  1.0000
  H   H19       1.0  0.19637999999999997  0.27844  0.7672  1.0000
  H   H20       1.0  0.9280199999999998  0.15198000000000003  0.4815600000000001  1.0000
  H   H21       1.0  0.8403  0.9811000000000001  0.39857  1.0000
  H   H22       1.0  0.12864  0.66122  0.60456  1.0000
  H   H23       1.0  0.13646000000000003  0.57172  0.6865200000000001  1.0000
  H   H24       1.0  0.19475000000000003  0.37075  0.4688100000000001  1.0000
  H   H25       1.0  0.18595  0.46098  0.38778  1.0000
  H   H26       1.0  0.08227  0.27855  0.51129  1.0000
  H   H27       1.0  0.22372000000000003  0.1522  0.67042  1.0000
  H   H28       1.0  0.14064000000000002  0.98132  0.58269  1.0000
  H   H29       1.0  0.46731  0.94317  0.33872  1.0000
  H   H30       1.0  0.56426  0.11444000000000004  0.4278400000000001  1.0000
  H   H31       1.0  0.82421  0.09829  0.62947  1.0000
  H   H32       1.0  0.72553  0.92711  0.53938  1.0000
  H   H33       1.0  0.80362  0.23280000000000003  0.7215600000000002  1.0000
  H   H34       1.0  0.07199000000000003  0.51844  0.84802  1.0000
  H   H35       1.0  0.15970000000000004  0.60143  0.0189  1.0000
  H   H36       1.0  0.52405  0.3952  0.05654  1.0000
  H   H37       1.0  0.44977000000000017  0.31338  0.8852300000000002  1.0000
  H   H38       1.0  0.7260299999999998  0.53143  0.90196  1.0000
  H   H39       1.0  0.79845  0.6122500000000001  0.07309  1.0000
  H   H40       1.0  0.57066  0.48862999999999995  0.76714  1.0000
  H   H41       1.0  0.55339  0.32964  0.48188000000000003  1.0000
  H   H42       1.0  0.55803  0.41753  0.39869  1.0000
  H   H43       1.0  0.5000000000000002  0.23236000000000012  0.7676400000000002  1.0000
  H   H44       1.0  0.7325  0.23248  0.46487  1.0000
  H   H45       1.0  0.2675000000000001  0.53513  0.7675200000000002  1.0000
  C   C1        1.0  0.29805  0.82358  0.4423  1.0000
  C   C2        1.0  0.3340799999999999  0.9249599999999999  0.49169  1.0000
  C   C3        1.0  0.43185  0.9784599999999999  0.57668  1.0000
  C   C4        1.0  0.4725000000000001  0.07404000000000015  0.6220100000000002  1.0000
  C   C5        1.0  0.41727  0.11898  0.58365  1.0000
  C   C6        1.0  0.31988999999999995  0.06471000000000009  0.4980700000000001  1.0000
  C   C7        1.0  0.27827  0.96884  0.45284000000000013  1.0000
  C   C8        1.0  0.45982  0.22071999999999994  0.63356  1.0000
  C   C9        1.0  0.46032000000000006  0.27006  0.58617  1.0000
  C   C10       1.0  0.47169  0.49617999999999995  0.61118  1.0000
  C   C11       1.0  0.46892  0.54305  0.56199  1.0000
  C   C12       1.0  0.85601  0.5578800000000002  0.3813400000000001  1.0000
  C   C13       1.0  0.8424800000000002  0.50836  0.43324  1.0000
  C   C14       1.0  0.85525  0.42344  0.40183  1.0000
  C   C15       1.0  0.85058  0.37809  0.45209  1.0000
  C   C16       1.0  0.8337199999999999  0.41641  0.53536  1.0000
  C   C17       1.0  0.8218500000000002  0.5018600000000002  0.5665400000000003  1.0000
  C   C18       1.0  0.82551  0.54713  0.51592  1.0000
  C   C19       1.0  0.82626  0.36651  0.5872100000000001  1.0000
  C   C20       1.0  0.8740799999999999  0.41389  0.68393  1.0000
  C   C21       1.0  0.86063  0.38882  0.88503  1.0000
  C   C22       1.0  0.90699  0.4379899999999999  0.9810700000000001  1.0000
  C   C23       1.0  0.4739700000000001  0.6184300000000001  0.17639  1.0000
  C   C24       1.0  0.40896  0.56656  0.07498  1.0000
  C   C25       1.0  0.45346  0.59817  0.02169  1.0000
  C   C26       1.0  0.39867  0.54805  0.92609  1.0000
  C   C27       1.0  0.29845000000000016  0.4646600000000002  0.8810000000000002  1.0000
  C   C28       1.0  0.25516  0.43331  0.93512  1.0000
  C   C29       1.0  0.30922  0.48382  0.031000000000000007  1.0000
  C   C30       1.0  0.23921000000000006  0.41277  0.77926  1.0000
  C   C31       1.0  0.19024  0.31603  0.72995  1.0000
  C   C32       1.0  0.97523  0.11487999999999995  0.50367  1.0000
  C   C33       1.0  0.9256300000000001  0.01883  0.45684  1.0000
  C   C34       1.0  0.14399999999999996  0.61866  0.44212  1.0000
  C   C35       1.0  0.15752999999999995  0.56676  0.49164  1.0000
  C   C36       1.0  0.14475  0.59817  0.57656  1.0000
  C   C37       1.0  0.14942  0.54791  0.62191  1.0000
  C   C38       1.0  0.16628  0.46464  0.58359  1.0000
  C   C39       1.0  0.17815  0.43346  0.49814  1.0000
  C   C40       1.0  0.17449000000000006  0.48408000000000007  0.4528700000000001  1.0000
  C   C41       1.0  0.17375000000000013  0.4127900000000001  0.6334900000000002  1.0000
  C   C42       1.0  0.1259299999999999  0.31607  0.58611  1.0000
  C   C43       1.0  0.13938000000000003  0.11497000000000006  0.61118  1.0000
  C   C44       1.0  0.09301000000000005  0.018930000000000044  0.5620100000000001  1.0000
  C   C45       1.0  0.52604  0.82361  0.3815700000000001  1.0000
  C   C46       1.0  0.59105  0.92502  0.43344  1.0000
  C   C47       1.0  0.54654  0.97831  0.40183  1.0000
  C   C48       1.0  0.6013400000000001  0.07391000000000006  0.45195000000000013  1.0000
  C   C49       1.0  0.70155  0.11899999999999994  0.53534  1.0000
  C   C50       1.0  0.74484  0.0648800000000001  0.5666900000000002  1.0000
  C   C51       1.0  0.69078  0.969  0.51618  1.0000
  C   C52       1.0  0.76079  0.22073999999999996  0.58723  1.0000
  C   C53       1.0  0.80976  0.27005  0.68397  1.0000
  C   C54       1.0  0.02478  0.49633  0.88512  1.0000
  C   C55       1.0  0.07437  0.54316  0.98117  1.0000
  C   C56       1.0  0.70195  0.5577  0.17642  1.0000
  C   C57       1.0  0.66593  0.50831  0.07504000000000002  1.0000
  C   C58       1.0  0.56815  0.42332  0.02154  1.0000
  C   C59       1.0  0.5275  0.37799  0.9259600000000001  1.0000
  C   C60       1.0  0.58273  0.41635  0.88102  1.0000
  C   C61       1.0  0.68011  0.5019300000000002  0.9352900000000002  1.0000
  C   C62       1.0  0.7217300000000002  0.54716  0.03116  1.0000
  C   C63       1.0  0.54018  0.36644  0.77928  1.0000
  C   C64       1.0  0.53968  0.41383  0.72994  1.0000
  C   C65       1.0  0.52831  0.3888199999999999  0.50382  1.0000
  C   C66       1.0  0.53108  0.43801  0.45695000000000013  1.0000
  C   C67       1.0  0.5  0.26988  0.73012  1.0000
  C   C68       1.0  0.5  0.3666000000000001  0.6334000000000002  1.0000
  C   C69       1.0  0.5  0.41762  0.58238  1.0000
  C   C70       1.0  0.5000000000000001  0.51498  0.4850200000000001  1.0000
  C   C71       1.0  0.5  0.56651  0.4334900000000001  1.0000
  C   C72       1.0  0.76988  0.26996  0.53988  1.0000
  C   C73       1.0  0.86665  0.36662  0.73324  1.0000
  C   C74       1.0  0.9178  0.41767999999999994  0.8352900000000001  1.0000
  C   C75       1.0  0.015119999999999996  0.51506  0.030040000000000004  1.0000
  C   C76       1.0  0.06635  0.56677  0.1331  1.0000
  C   C77       1.0  0.23012000000000002  0.46012000000000003  0.73004  1.0000
  C   C78       1.0  0.13335000000000005  0.26676  0.63338  1.0000
  C   C79       1.0  0.0822  0.16470999999999997  0.58232  1.0000
  C   C80       1.0  0.98489  0.96996  0.4849400000000001  1.0000
  C   C81       1.0  0.9336600000000002  0.8669  0.4332300000000001  1.0000
  O   O1        1.0  0.3622  0.78871  0.4749300000000001  1.0000
  O   O2        1.0  0.2076999999999999  0.7720799999999999  0.36351  1.0000
  O   O3        1.0  0.41278  0.59085  0.41677000000000003  1.0000
  O   O4        1.0  0.88729  0.52522  0.31376  1.0000
  O   O5        1.0  0.8449599999999999  0.63681  0.40881  1.0000
  O   O6        1.0  0.99544  0.58346  0.17369000000000007  1.0000
  O   O7        1.0  0.57309  0.68596  0.21145000000000005  1.0000
  O   O8        1.0  0.43475  0.59104  0.22765  1.0000
  O   O9        1.0  0.82211  0.82546  0.4087600000000001  1.0000
  O   O10       1.0  0.11270999999999999  0.68624  0.47478  1.0000
  O   O11       1.0  0.15504  0.59119  0.36319  1.0000
  O   O12       1.0  0.004570000000000013  0.82631  0.41654000000000013  1.0000
  O   O13       1.0  0.42691000000000007  0.7885500000000001  0.31404  1.0000
  O   O14       1.0  0.56525  0.7723499999999999  0.40896000000000005  1.0000
  O   O15       1.0  0.1779  0.59124  0.17453000000000005  1.0000
  O   O16       1.0  0.6378000000000001  0.52507  0.21129000000000006  1.0000
  O   O17       1.0  0.7923  0.63649  0.22792  1.0000
  O   O18       1.0  0.5872199999999999  0.5832300000000001  0.4091500000000001  1.0000
