data_image0
_chemical_formula_structural       Cd6H12C48S6N12O24
_chemical_formula_sum              "Cd6 H12 C48 S6 N12 O24"
_cell_length_a       13.149
_cell_length_b       13.15174
_cell_length_c       13.14947
_cell_angle_alpha    96.60882
_cell_angle_beta     96.5708
_cell_angle_gamma    96.5692

_symmetry_space_group_name_H-M    'P 1'
_symmetry_Int_Tables_number       1

loop_
  _symmetry_equiv_pos_as_xyz
  'x,y,z'

loop_
  _atom_site_type_symbol
  _atom_site_label
  _atom_site_symmetry_multiplicity
  _atom_site_fract_x
  _atom_site_fract_y
  _atom_site_fract_z
  _atom_site_occupancy
  Cd  Cd1       1.0  0.7092  0.61443  0.45752  1.0000
  Cd  Cd2       1.0  0.4575600000000001  0.70929  0.61453  1.0000
  Cd  Cd3       1.0  0.6144399999999999  0.45755000000000007  0.7090699999999998  1.0000
  Cd  Cd4       1.0  0.2908  0.3855700000000001  0.54248  1.0000
  Cd  Cd5       1.0  0.54245  0.29071000000000013  0.38548  1.0000
  Cd  Cd6       1.0  0.38556  0.54245  0.29093  1.0000
  H   H1        1.0  0.9836299999999999  0.4685000000000001  0.7585799999999998  1.0000
  H   H2        1.0  0.16859999999999997  0.51427  0.7404099999999998  1.0000
  H   H3        1.0  0.75862  0.9835100000000002  0.46842999999999996  1.0000
  H   H4        1.0  0.7404000000000001  0.16849000000000003  0.51414  1.0000
  H   H5        1.0  0.46844000000000013  0.7586700000000002  0.98365  1.0000
  H   H6        1.0  0.51419  0.7404900000000002  0.16861999999999996  1.0000
  H   H7        1.0  0.016370000000000003  0.5315  0.24141999999999997  1.0000
  H   H8        1.0  0.8314  0.4857300000000001  0.2596  1.0000
  H   H9        1.0  0.24139  0.016489999999999987  0.5315799999999999  1.0000
  H   H10       1.0  0.25960000000000005  0.8315000000000001  0.4858599999999999  1.0000
  H   H11       1.0  0.53156  0.24133000000000004  0.01635  1.0000
  H   H12       1.0  0.48581  0.25951  0.8313799999999998  1.0000
  C   C1        1.0  0.81547  0.51768  0.6602099999999997  1.0000
  C   C2        1.0  0.9238900000000002  0.55045  0.64047  1.0000
  C   C3        1.0  0.004399999999999984  0.5176900000000001  0.7011099999999998  1.0000
  C   C4        1.0  0.10989  0.5445900000000001  0.6913299999999998  1.0000
  C   C5        1.0  0.14029  0.6086000000000001  0.62087  1.0000
  C   C6        1.0  0.0611  0.64626  0.5579199999999999  1.0000
  C   C7        1.0  0.9530599999999999  0.61542  0.5660999999999999  1.0000
  C   C8        1.0  0.2518  0.64077  0.61364  1.0000
  C   C9        1.0  0.6602500000000002  0.81546  0.5176899999999999  1.0000
  C   C10       1.0  0.64047  0.9238700000000002  0.5504399999999999  1.0000
  C   C11       1.0  0.7011300000000001  0.0043199999999999975  0.51764  1.0000
  C   C12       1.0  0.69132  0.10982000000000003  0.5445  1.0000
  C   C13       1.0  0.6208200000000003  0.14027000000000003  0.60852  1.0000
  C   C14       1.0  0.55787  0.06114000000000003  0.64625  1.0000
  C   C15       1.0  0.5660800000000002  0.9531  0.61544  1.0000
  C   C16       1.0  0.61361  0.25178  0.6406999999999999  1.0000
  C   C17       1.0  0.51767  0.66027  0.8154499999999998  1.0000
  C   C18       1.0  0.55041  0.6405200000000002  0.9238599999999998  1.0000
  C   C19       1.0  0.51763  0.7011700000000002  0.004399999999999999  1.0000
  C   C20       1.0  0.54451  0.6913800000000002  0.10989  1.0000
  C   C21       1.0  0.60855  0.62089  0.14025999999999997  1.0000
  C   C22       1.0  0.64619  0.55791  0.061009999999999995  1.0000
  C   C23       1.0  0.61538  0.5661200000000001  0.9529799999999998  1.0000
  C   C24       1.0  0.64076  0.6136600000000001  0.25177  1.0000
  C   C25       1.0  0.18453000000000006  0.48232000000000014  0.33978999999999987  1.0000
  C   C26       1.0  0.07611  0.4495500000000001  0.35954  1.0000
  C   C27       1.0  0.99561  0.48231  0.29889  1.0000
  C   C28       1.0  0.89011  0.45541  0.30867  1.0000
  C   C29       1.0  0.8597099999999999  0.3914  0.3791299999999999  1.0000
  C   C30       1.0  0.9389  0.35374  0.44208999999999987  1.0000
  C   C31       1.0  0.04694  0.38458  0.4339  1.0000
  C   C32       1.0  0.7482  0.3592300000000001  0.38635999999999987  1.0000
  C   C33       1.0  0.33975000000000005  0.18454000000000004  0.48232  1.0000
  C   C34       1.0  0.35953  0.07613  0.44957  1.0000
  C   C35       1.0  0.29888  0.99567  0.4823699999999999  1.0000
  C   C36       1.0  0.30868  0.8901800000000002  0.4555099999999999  1.0000
  C   C37       1.0  0.3791800000000001  0.8597300000000001  0.39149  1.0000
  C   C38       1.0  0.4421300000000002  0.9388600000000002  0.35375  1.0000
  C   C39       1.0  0.43392  0.04689999999999999  0.38455999999999996  1.0000
  C   C40       1.0  0.38639  0.7482100000000003  0.3592999999999999  1.0000
  C   C41       1.0  0.48233  0.3397300000000001  0.18455  1.0000
  C   C42       1.0  0.44959000000000005  0.35948000000000013  0.07613999999999999  1.0000
  C   C43       1.0  0.4823700000000001  0.29883  0.99561  1.0000
  C   C44       1.0  0.45549  0.30861  0.8901099999999998  1.0000
  C   C45       1.0  0.39145  0.3791000000000001  0.85974  1.0000
  C   C46       1.0  0.35381000000000007  0.44209000000000004  0.9389899999999999  1.0000
  C   C47       1.0  0.38462  0.43388000000000004  0.04702  1.0000
  C   C48       1.0  0.35924  0.38634000000000013  0.74823  1.0000
  S   S1        1.0  0.96274  0.7258900000000003  0.43115  1.0000
  S   S2        1.0  0.4310900000000001  0.9628900000000002  0.7259699999999998  1.0000
  S   S3        1.0  0.7258800000000001  0.4311200000000001  0.9625899999999998  1.0000
  S   S4        1.0  0.03726000000000001  0.2741100000000001  0.5688499999999999  1.0000
  S   S5        1.0  0.56891  0.03710000000000001  0.27403  1.0000
  S   S6        1.0  0.27412000000000003  0.5688800000000003  0.03742  1.0000
  N   N1        1.0  0.89007  0.65564  0.49715  1.0000
  N   N2        1.0  0.07554000000000004  0.7091500000000002  0.48476  1.0000
  N   N3        1.0  0.49713  0.8901700000000002  0.6557199999999999  1.0000
  N   N4        1.0  0.48469  0.07564000000000001  0.7091699999999999  1.0000
  N   N5        1.0  0.6556499999999998  0.49717000000000006  0.8899599999999998  1.0000
  N   N6        1.0  0.70908  0.48470000000000013  0.0754  1.0000
  N   N7        1.0  0.10992999999999999  0.34436  0.5028499999999999  1.0000
  N   N8        1.0  0.92446  0.29085  0.5152499999999999  1.0000
  N   N9        1.0  0.5028700000000002  0.10983  0.3442799999999999  1.0000
  N   N10       1.0  0.51531  0.9243500000000002  0.29083  1.0000
  N   N11       1.0  0.34435  0.5028200000000002  0.11005  1.0000
  N   N12       1.0  0.29092  0.5153  0.9246  1.0000
  O   O1        1.0  0.7369500000000001  0.5507700000000002  0.61131  1.0000
  O   O2        1.0  0.80309  0.45894  0.72805  1.0000
  O   O3        1.0  0.28229000000000004  0.7363600000000002  0.6219699999999999  1.0000
  O   O4        1.0  0.31282  0.57171  0.6015399999999999  1.0000
  O   O5        1.0  0.61133  0.7369600000000004  0.55077  1.0000
  O   O6        1.0  0.72816  0.80306  0.4589699999999999  1.0000
  O   O7        1.0  0.62193  0.2823  0.73631  1.0000
  O   O8        1.0  0.60153  0.31279  0.5716499999999999  1.0000
  O   O9        1.0  0.55076  0.61134  0.73691  1.0000
  O   O10       1.0  0.4589500000000001  0.7281700000000001  0.8030999999999998  1.0000
  O   O11       1.0  0.73637  0.62198  0.28227  1.0000
  O   O12       1.0  0.5717000000000001  0.6015200000000002  0.3127899999999999  1.0000
  O   O13       1.0  0.26305  0.44923000000000013  0.3886899999999999  1.0000
  O   O14       1.0  0.19691000000000003  0.5410600000000001  0.27195  1.0000
  O   O15       1.0  0.7177100000000001  0.26363  0.3780399999999999  1.0000
  O   O16       1.0  0.6871800000000001  0.4282900000000001  0.3984699999999999  1.0000
  O   O17       1.0  0.38867  0.26303000000000004  0.44922999999999996  1.0000
  O   O18       1.0  0.27183999999999997  0.19694000000000003  0.5410399999999999  1.0000
  O   O19       1.0  0.3780700000000001  0.7177  0.2636899999999999  1.0000
  O   O20       1.0  0.39847  0.68721  0.42835  1.0000
  O   O21       1.0  0.44924000000000003  0.38866  0.26308999999999994  1.0000
  O   O22       1.0  0.5410599999999999  0.27183  0.19691  1.0000
  O   O23       1.0  0.26364  0.37801999999999997  0.7177399999999998  1.0000
  O   O24       1.0  0.42830000000000007  0.3984800000000001  0.68721  1.0000
