data_image0
_chemical_formula_structural       Sr4Li8H16C40N16O32
_chemical_formula_sum              "Sr4 Li8 H16 C40 N16 O32"
_cell_length_a       10.57067
_cell_length_b       14.84843
_cell_length_c       14.84843
_cell_angle_alpha    90.0
_cell_angle_beta     90.0
_cell_angle_gamma    90.0

_symmetry_space_group_name_H-M    'P 1'
_symmetry_Int_Tables_number       1

loop_
  _symmetry_equiv_pos_as_xyz
  'x,y,z'

loop_
  _atom_site_type_symbol
  _atom_site_label
  _atom_site_symmetry_multiplicity
  _atom_site_fract_x
  _atom_site_fract_y
  _atom_site_fract_z
  _atom_site_occupancy
  Sr  Sr1       1.0  0.59136  0.5  0.0  1.0000
  Sr  Sr2       1.0  0.40864  0.0  0.5  1.0000
  Sr  Sr3       1.0  0.90865  0.0  0.5  1.0000
  Sr  Sr4       1.0  0.09135  0.5  0.0  1.0000
  Li  Li1       1.0  0.35558000000000006  0.4455800000000001  0.15279  1.0000
  Li  Li2       1.0  0.35558000000000006  0.5544200000000002  0.8472200000000002  1.0000
  Li  Li3       1.0  0.64442  0.15279  0.5544200000000002  1.0000
  Li  Li4       1.0  0.64442  0.8472200000000002  0.4455800000000001  1.0000
  Li  Li5       1.0  0.14442  0.05442  0.6527900000000002  1.0000
  Li  Li6       1.0  0.14442  0.94558  0.34721  1.0000
  Li  Li7       1.0  0.8555800000000002  0.34721  0.05442  1.0000
  Li  Li8       1.0  0.8555800000000002  0.6527900000000002  0.94558  1.0000
  H   H1        1.0  0.44317  0.18313  0.362  1.0000
  H   H2        1.0  0.7768900000000002  0.20158  0.20302000000000003  1.0000
  H   H3        1.0  0.44317  0.8168700000000001  0.6380000000000001  1.0000
  H   H4        1.0  0.7768900000000002  0.79842  0.7969900000000002  1.0000
  H   H5        1.0  0.5568300000000002  0.362  0.8168700000000001  1.0000
  H   H6        1.0  0.22311000000000003  0.20302000000000003  0.79842  1.0000
  H   H7        1.0  0.5568300000000002  0.6380000000000001  0.18313  1.0000
  H   H8        1.0  0.22311000000000003  0.7969900000000002  0.20158  1.0000
  H   H9        1.0  0.05683  0.31687  0.862  1.0000
  H   H10       1.0  0.72311  0.29842  0.7030200000000002  1.0000
  H   H11       1.0  0.05683  0.68313  0.138  1.0000
  H   H12       1.0  0.72311  0.70159  0.29699000000000003  1.0000
  H   H13       1.0  0.9431700000000001  0.138  0.31687  1.0000
  H   H14       1.0  0.27689  0.29699000000000003  0.29842  1.0000
  H   H15       1.0  0.9431700000000001  0.862  0.68313  1.0000
  H   H16       1.0  0.27689  0.7030200000000002  0.70159  1.0000
  C   C1        1.0  0.59196  0.33505  0.12681  1.0000
  C   C2        1.0  0.58775  0.26945  0.20126000000000005  1.0000
  C   C3        1.0  0.68259  0.20935  0.23022  1.0000
  C   C4        1.0  0.63194  0.16693  0.30554  1.0000
  C   C5        1.0  0.6876800000000002  0.10549  0.37292  1.0000
  C   C6        1.0  0.59196  0.6649600000000002  0.8731900000000002  1.0000
  C   C7        1.0  0.58775  0.73056  0.79874  1.0000
  C   C8        1.0  0.68259  0.79065  0.76978  1.0000
  C   C9        1.0  0.63194  0.83307  0.69447  1.0000
  C   C10       1.0  0.6876800000000002  0.89452  0.62708  1.0000
  C   C11       1.0  0.40804000000000007  0.12681  0.6649600000000002  1.0000
  C   C12       1.0  0.41225000000000006  0.20126000000000005  0.73056  1.0000
  C   C13       1.0  0.31741  0.23022  0.79065  1.0000
  C   C14       1.0  0.36806  0.30554  0.83307  1.0000
  C   C15       1.0  0.31232000000000004  0.37292  0.89452  1.0000
  C   C16       1.0  0.40804000000000007  0.8731900000000002  0.33505  1.0000
  C   C17       1.0  0.41225000000000006  0.79874  0.26945  1.0000
  C   C18       1.0  0.31741  0.76978  0.20935  1.0000
  C   C19       1.0  0.36806  0.69447  0.16693  1.0000
  C   C20       1.0  0.31232000000000004  0.62708  0.10549  1.0000
  C   C21       1.0  0.9080400000000001  0.16495  0.6268200000000003  1.0000
  C   C22       1.0  0.9122500000000001  0.23056  0.7012600000000002  1.0000
  C   C23       1.0  0.8174200000000001  0.29065  0.73022  1.0000
  C   C24       1.0  0.86806  0.33307  0.80554  1.0000
  C   C25       1.0  0.8123100000000001  0.3945200000000001  0.8729300000000001  1.0000
  C   C26       1.0  0.9080400000000001  0.8350500000000002  0.37319  1.0000
  C   C27       1.0  0.9122500000000001  0.76945  0.2987400000000001  1.0000
  C   C28       1.0  0.8174200000000001  0.70935  0.26978  1.0000
  C   C29       1.0  0.86806  0.66693  0.19447000000000006  1.0000
  C   C30       1.0  0.8123100000000001  0.60549  0.12708  1.0000
  C   C31       1.0  0.09196000000000001  0.37319  0.16495  1.0000
  C   C32       1.0  0.08775000000000001  0.2987400000000001  0.23056  1.0000
  C   C33       1.0  0.18259000000000003  0.26978  0.29065  1.0000
  C   C34       1.0  0.13194  0.19446  0.33307  1.0000
  C   C35       1.0  0.18769000000000005  0.12708  0.3945200000000001  1.0000
  C   C36       1.0  0.09196000000000001  0.6268200000000003  0.8350500000000002  1.0000
  C   C37       1.0  0.08775000000000001  0.7012600000000002  0.76945  1.0000
  C   C38       1.0  0.18259000000000003  0.73022  0.70935  1.0000
  C   C39       1.0  0.13194  0.80554  0.66693  1.0000
  C   C40       1.0  0.18769000000000005  0.8729300000000001  0.60549  1.0000
  N   N1        1.0  0.51252  0.20261  0.31669  1.0000
  N   N2        1.0  0.48382  0.26448  0.25474  1.0000
  N   N3        1.0  0.51252  0.79739  0.68332  1.0000
  N   N4        1.0  0.48382  0.73552  0.74526  1.0000
  N   N5        1.0  0.4874800000000001  0.31669  0.79739  1.0000
  N   N6        1.0  0.51618  0.25474  0.73552  1.0000
  N   N7        1.0  0.4874800000000001  0.68332  0.20261  1.0000
  N   N8        1.0  0.51618  0.74526  0.26448  1.0000
  N   N9        1.0  0.9874800000000001  0.29739  0.8166900000000001  1.0000
  N   N10       1.0  0.016180000000000003  0.23552  0.75474  1.0000
  N   N11       1.0  0.9874800000000001  0.70261  0.18332  1.0000
  N   N12       1.0  0.016180000000000003  0.76448  0.24526000000000006  1.0000
  N   N13       1.0  0.012520000000000003  0.18332  0.29739  1.0000
  N   N14       1.0  0.98382  0.24526000000000006  0.23552  1.0000
  N   N15       1.0  0.012520000000000003  0.8166900000000001  0.70261  1.0000
  N   N16       1.0  0.98382  0.75474  0.76448  1.0000
  O   O1        1.0  0.50061  0.39071  0.11777  1.0000
  O   O2        1.0  0.68624  0.33668  0.07317000000000003  1.0000
  O   O3        1.0  0.618  0.08633  0.4414500000000001  1.0000
  O   O4        1.0  0.8008600000000001  0.07776000000000002  0.36336  1.0000
  O   O5        1.0  0.50061  0.60929  0.8822300000000002  1.0000
  O   O6        1.0  0.68624  0.66333  0.92683  1.0000
  O   O7        1.0  0.618  0.91367  0.5585600000000002  1.0000
  O   O8        1.0  0.8008600000000001  0.92224  0.63665  1.0000
  O   O9        1.0  0.4993900000000001  0.11777  0.60929  1.0000
  O   O10       1.0  0.31377000000000005  0.07317000000000003  0.66333  1.0000
  O   O11       1.0  0.3820000000000001  0.4414500000000001  0.91367  1.0000
  O   O12       1.0  0.19914000000000007  0.36336  0.92224  1.0000
  O   O13       1.0  0.4993900000000001  0.8822300000000002  0.39071  1.0000
  O   O14       1.0  0.31377000000000005  0.92683  0.33668  1.0000
  O   O15       1.0  0.3820000000000001  0.5585600000000002  0.08633  1.0000
  O   O16       1.0  0.19914000000000007  0.63665  0.07776000000000002  1.0000
  O   O17       1.0  0.99939  0.10929  0.61777  1.0000
  O   O18       1.0  0.81376  0.16333  0.57317  1.0000
  O   O19       1.0  0.8820000000000002  0.41367  0.9414500000000002  1.0000
  O   O20       1.0  0.69915  0.4222400000000001  0.86336  1.0000
  O   O21       1.0  0.99939  0.89071  0.38223  1.0000
  O   O22       1.0  0.81376  0.8366800000000002  0.42683  1.0000
  O   O23       1.0  0.8820000000000002  0.58633  0.05855  1.0000
  O   O24       1.0  0.69915  0.57777  0.13664  1.0000
  O   O25       1.0  0.0006100000000000001  0.38223  0.10929  1.0000
  O   O26       1.0  0.18624  0.42683  0.16333  1.0000
  O   O27       1.0  0.118  0.05855  0.41367  1.0000
  O   O28       1.0  0.30085  0.13664  0.4222400000000001  1.0000
  O   O29       1.0  0.0006100000000000001  0.61777  0.89071  1.0000
  O   O30       1.0  0.18624  0.57317  0.8366800000000002  1.0000
  O   O31       1.0  0.118  0.9414500000000002  0.58633  1.0000
  O   O32       1.0  0.30085  0.86336  0.57777  1.0000
