data_image0
_chemical_formula_structural       Zn4H32C44N4O16
_chemical_formula_sum              "Zn4 H32 C44 N4 O16"
_cell_length_a       10.18044
_cell_length_b       11.10604
_cell_length_c       12.88773
_cell_angle_alpha    57.93662000000002
_cell_angle_beta     86.55775000000001
_cell_angle_gamma    66.3675

_symmetry_space_group_name_H-M    'P 1'
_symmetry_Int_Tables_number       1

loop_
  _symmetry_equiv_pos_as_xyz
  'x,y,z'

loop_
  _atom_site_type_symbol
  _atom_site_label
  _atom_site_symmetry_multiplicity
  _atom_site_fract_x
  _atom_site_fract_y
  _atom_site_fract_z
  _atom_site_occupancy
  Zn  Zn1       1.0  0.15163  0.41737  0.23779000000000003  1.0000
  Zn  Zn2       1.0  0.16008999999999995  0.45987000000000006  0.97449  1.0000
  Zn  Zn3       1.0  0.84837  0.5826299999999998  0.7622200000000001  1.0000
  Zn  Zn4       1.0  0.83991  0.54013  0.02551  1.0000
  H   H1        1.0  0.11746999999999999  0.89121  0.11748000000000003  1.0000
  H   H2        1.0  0.33311  0.1604699999999999  0.8639600000000001  1.0000
  H   H3        1.0  0.3109  0.7888099999999999  0.8512100000000001  1.0000
  H   H4        1.0  0.35186  0.91757  0.6697  1.0000
  H   H5        1.0  0.44719999999999993  0.03332000000000001  0.58701  1.0000
  H   H6        1.0  0.16879  0.74014  0.71859  1.0000
  H   H7        1.0  0.33105999999999997  0.7776399999999999  0.5605300000000001  1.0000
  H   H8        1.0  0.5999099999999999  0.27360999999999996  0.7931300000000002  1.0000
  H   H9        1.0  0.4344500000000001  0.2605899999999999  0.9430800000000001  1.0000
  H   H10       1.0  0.5455500000000001  0.6559999999999997  0.4865200000000001  1.0000
  H   H11       1.0  0.7574499999999997  0.31944000000000006  0.69892  1.0000
  H   H12       1.0  0.6911700000000001  0.6602399999999999  0.35666  1.0000
  H   H13       1.0  0.8747  0.63492  0.22524000000000005  1.0000
  H   H14       1.0  0.16807999999999998  0.19697000000000003  0.52209  1.0000
  H   H15       1.0  0.9927399999999998  0.19769  0.6658  1.0000
  H   H16       1.0  0.88253  0.10878999999999997  0.88252  1.0000
  H   H17       1.0  0.66689  0.8395299999999999  0.13604  1.0000
  H   H18       1.0  0.6890999999999999  0.21119000000000002  0.14879  1.0000
  H   H19       1.0  0.64814  0.08242999999999995  0.3303  1.0000
  H   H20       1.0  0.5527999999999998  0.9666800000000001  0.41299  1.0000
  H   H21       1.0  0.8312  0.25986  0.28141000000000005  1.0000
  H   H22       1.0  0.66894  0.22236  0.43947  1.0000
  H   H23       1.0  0.40009  0.7263800000000001  0.20687000000000003  1.0000
  H   H24       1.0  0.56555  0.73941  0.056920000000000005  1.0000
  H   H25       1.0  0.4544499999999999  0.34400000000000003  0.51348  1.0000
  H   H26       1.0  0.24254999999999996  0.68055  0.30108  1.0000
  H   H27       1.0  0.3088300000000001  0.33975999999999984  0.6433500000000001  1.0000
  H   H28       1.0  0.12530000000000002  0.3650799999999999  0.77476  1.0000
  H   H29       1.0  0.83191  0.8030299999999999  0.47791000000000006  1.0000
  H   H30       1.0  0.007260000000000011  0.8023  0.3342  1.0000
  H   H31       1.0  0.08593000000000002  0.27655  0.15561  1.0000
  H   H32       1.0  0.91407  0.7234399999999999  0.84439  1.0000
  C   C1        1.0  0.17986999999999997  0.68735  0.04126  1.0000
  C   C2        1.0  0.2117600000000001  0.8273599999999998  0.98876  1.0000
  C   C3        1.0  0.17782000000000003  0.9155399999999999  0.04195  1.0000
  C   C4        1.0  0.21990999999999994  0.03778000000000003  0.99571  1.0000
  C   C5        1.0  0.29662  0.06879000000000002  0.89765  1.0000
  C   C6        1.0  0.32558999999999977  0.9849600000000002  0.84121  1.0000
  C   C7        1.0  0.28413  0.8626999999999998  0.8874300000000002  1.0000
  C   C8        1.0  0.4359799999999999  0.9508999999999997  0.68077  1.0000
  C   C9        1.0  0.5812300000000001  0.8018799999999997  0.7505900000000001  1.0000
  C   C10       1.0  0.17949  0.14321  0.04424000000000001  1.0000
  C   C11       1.0  0.26763000000000003  0.6411  0.73161  1.0000
  C   C12       1.0  0.35818000000000005  0.6608299999999999  0.64424  1.0000
  C   C13       1.0  0.4843199999999999  0.5289299999999999  0.6646600000000001  1.0000
  C   C14       1.0  0.50852  0.3818099999999999  0.77293  1.0000
  C   C15       1.0  0.41511  0.37237999999999993  0.8567800000000001  1.0000
  C   C16       1.0  0.58436  0.5438299999999999  0.57726  1.0000
  C   C17       1.0  0.71936  0.42683999999999994  0.60553  1.0000
  C   C18       1.0  0.82373  0.4284299999999999  0.5232600000000001  1.0000
  C   C19       1.0  0.7939999999999998  0.55391  0.39784  1.0000
  C   C20       1.0  0.8966399999999999  0.54275  0.32406  1.0000
  C   C21       1.0  0.06006  0.29531  0.48952  1.0000
  C   C22       1.0  0.96181  0.2972499999999999  0.5686900000000001  1.0000
  C   C23       1.0  0.82013  0.3126499999999999  0.9587400000000003  1.0000
  C   C24       1.0  0.7882399999999999  0.17263  0.011240000000000002  1.0000
  C   C25       1.0  0.8221799999999999  0.08445999999999992  0.9580600000000001  1.0000
  C   C26       1.0  0.7800900000000001  0.9622199999999999  0.00429  1.0000
  C   C27       1.0  0.70338  0.93121  0.10235000000000001  1.0000
  C   C28       1.0  0.67441  0.015039999999999996  0.15879  1.0000
  C   C29       1.0  0.71586  0.13730000000000003  0.11257  1.0000
  C   C30       1.0  0.56402  0.04909999999999995  0.31923000000000007  1.0000
  C   C31       1.0  0.41877  0.1981199999999999  0.24942000000000006  1.0000
  C   C32       1.0  0.8205100000000002  0.8567899999999999  0.9557700000000001  1.0000
  C   C33       1.0  0.7323699999999999  0.3589  0.26839  1.0000
  C   C34       1.0  0.64182  0.3391700000000001  0.35576  1.0000
  C   C35       1.0  0.51568  0.47107  0.33535000000000004  1.0000
  C   C36       1.0  0.4914799999999998  0.61818  0.22708000000000003  1.0000
  C   C37       1.0  0.5848900000000001  0.6276099999999998  0.14322000000000001  1.0000
  C   C38       1.0  0.41563999999999995  0.4561599999999999  0.42274000000000006  1.0000
  C   C39       1.0  0.28063  0.57315  0.39447  1.0000
  C   C40       1.0  0.17627  0.5715599999999998  0.47675000000000006  1.0000
  C   C41       1.0  0.20599999999999988  0.4460900000000001  0.60217  1.0000
  C   C42       1.0  0.10336000000000002  0.45724999999999993  0.67594  1.0000
  C   C43       1.0  0.93994  0.7046799999999999  0.51048  1.0000
  C   C44       1.0  0.038189999999999974  0.70275  0.43131  1.0000
  N   N1        1.0  0.29571000000000003  0.4995899999999999  0.83716  1.0000
  N   N2        1.0  0.027969999999999988  0.41535  0.36837  1.0000
  N   N3        1.0  0.70428  0.50041  0.16284  1.0000
  N   N4        1.0  0.9720200000000001  0.58465  0.63163  1.0000
  O   O1        1.0  0.15164  0.6282  0.15213000000000002  1.0000
  O   O2        1.0  0.18755  0.6344199999999999  0.9742200000000001  1.0000
  O   O3        1.0  0.39138000000000006  0.03627999999999994  0.73942  1.0000
  O   O4        1.0  0.61885  0.7325599999999999  0.8654700000000001  1.0000
  O   O5        1.0  0.6515800000000002  0.7620199999999999  0.6781000000000001  1.0000
  O   O6        1.0  0.18064000000000008  0.27762999999999977  0.9643600000000002  1.0000
  O   O7        1.0  0.14672000000000002  0.09967999999999999  0.14992000000000003  1.0000
  O   O8        1.0  0.05388999999999999  0.38727000000000006  0.13136  1.0000
  O   O9        1.0  0.8483600000000003  0.3717899999999999  0.8478800000000002  1.0000
  O   O10       1.0  0.81244  0.36557999999999996  0.02579  1.0000
  O   O11       1.0  0.6086100000000001  0.9637199999999999  0.26059  1.0000
  O   O12       1.0  0.38115  0.26744  0.13454  1.0000
  O   O13       1.0  0.34841  0.23797999999999997  0.32191000000000003  1.0000
  O   O14       1.0  0.8193599999999999  0.72237  0.03565  1.0000
  O   O15       1.0  0.85328  0.9003200000000001  0.85008  1.0000
  O   O16       1.0  0.94611  0.6127299999999999  0.8686500000000001  1.0000
