data_image0
_chemical_formula_structural       Cd10H24C72O48
_chemical_formula_sum              "Cd10 H24 C72 O48"
_cell_length_a       10.26905
_cell_length_b       10.393110000000002
_cell_length_c       29.86252
_cell_angle_alpha    90.06590999999999
_cell_angle_beta     98.17236
_cell_angle_gamma    89.87555

_symmetry_space_group_name_H-M    'P 1'
_symmetry_Int_Tables_number       1

loop_
  _symmetry_equiv_pos_as_xyz
  'x,y,z'

loop_
  _atom_site_type_symbol
  _atom_site_label
  _atom_site_symmetry_multiplicity
  _atom_site_fract_x
  _atom_site_fract_y
  _atom_site_fract_z
  _atom_site_occupancy
  Cd  Cd1       1.0  0.027039999999999974  0.18953  0.89431  1.0000
  Cd  Cd2       1.0  0.72214  0.3607  0.84899  1.0000
  Cd  Cd3       1.0  0.9730300000000001  0.68978  0.6058  1.0000
  Cd  Cd4       1.0  0.27969  0.86074  0.6512  1.0000
  Cd  Cd5       1.0  0.9729600000000002  0.8104799999999999  0.10568  1.0000
  Cd  Cd6       1.0  0.27791  0.6393  0.15102  1.0000
  Cd  Cd7       1.0  0.02697  0.31024  0.39417  1.0000
  Cd  Cd8       1.0  0.72025  0.13933  0.34874999999999995  1.0000
  Cd  Cd9       1.0  0.5  0.5  0.0  1.0000
  Cd  Cd10      1.0  0.5  0.0  0.5  1.0000
  H   H1        1.0  0.7629499999999999  0.9030900000000001  0.9599099999999998  1.0000
  H   H2        1.0  0.3412700000000001  0.8736900000000001  0.95127  1.0000
  H   H3        1.0  0.51476  0.22609000000000004  0.91304  1.0000
  H   H4        1.0  0.25049  0.40434000000000003  0.86207  1.0000
  H   H5        1.0  0.38509  0.55601  0.74228  1.0000
  H   H6        1.0  0.97115  0.55177  0.75221  1.0000
  H   H7        1.0  0.2376  0.40496  0.53985  1.0000
  H   H8        1.0  0.65953  0.37408  0.54918  1.0000
  H   H9        1.0  0.4848  0.72782  0.58644  1.0000
  H   H10       1.0  0.75022  0.90578  0.63796  1.0000
  H   H11       1.0  0.61571  0.05493999999999999  0.75835  1.0000
  H   H12       1.0  0.029219999999999996  0.05349000000000001  0.74771  1.0000
  H   H13       1.0  0.23704000000000003  0.09692000000000002  0.0401  1.0000
  H   H14       1.0  0.65874  0.12631  0.04874  1.0000
  H   H15       1.0  0.48524  0.77388  0.08697  1.0000
  H   H16       1.0  0.74951  0.59573  0.13787999999999997  1.0000
  H   H17       1.0  0.61498  0.4440299999999999  0.2577  1.0000
  H   H18       1.0  0.028939999999999983  0.44827  0.24774  1.0000
  H   H19       1.0  0.7624099999999999  0.59503  0.4601499999999999  1.0000
  H   H20       1.0  0.34046000000000004  0.62592  0.45081999999999994  1.0000
  H   H21       1.0  0.51519  0.27216  0.41356  1.0000
  H   H22       1.0  0.24976  0.09422  0.36205  1.0000
  H   H23       1.0  0.38428000000000007  0.94505  0.24164  1.0000
  H   H24       1.0  0.97072  0.94649  0.25229  1.0000
  C   C1        1.0  0.76804  0.15041  0.9274999999999999  1.0000
  C   C2        1.0  0.65125  0.07346  0.9364  1.0000
  C   C3        1.0  0.66556  0.94606  0.95216  1.0000
  C   C4        1.0  0.5532800000000001  0.8742799999999998  0.9574499999999998  1.0000
  C   C5        1.0  0.42818  0.9293500000000001  0.94715  1.0000
  C   C6        1.0  0.41428  0.05556  0.93117  1.0000
  C   C7        1.0  0.52566  0.1282  0.92592  1.0000
  C   C8        1.0  0.56159  0.73852  0.97356  1.0000
  C   C9        1.0  0.27989  0.1082  0.91939  1.0000
  C   C10       1.0  0.9864600000000001  0.4399  0.8339999999999997  1.0000
  C   C11       1.0  0.09904  0.47596999999999995  0.80996  1.0000
  C   C12       1.0  0.22925  0.44889  0.8289  1.0000
  C   C13       1.0  0.33223  0.47650000000000003  0.80408  1.0000
  C   C14       1.0  0.30515  0.53408  0.76132  1.0000
  C   C15       1.0  0.17535  0.56216  0.74271  1.0000
  C   C16       1.0  0.07228999999999991  0.53213  0.7668999999999998  1.0000
  C   C17       1.0  0.47054  0.44175  0.82136  1.0000
  C   C18       1.0  0.1476  0.62362  0.69692  1.0000
  C   C19       1.0  0.23186  0.65151  0.57246  1.0000
  C   C20       1.0  0.34893  0.57482  0.56334  1.0000
  C   C21       1.0  0.33507  0.44733  0.5476299999999998  1.0000
  C   C22       1.0  0.44753000000000004  0.37506  0.54247  1.0000
  C   C23       1.0  0.57237  0.43014  0.55292  1.0000
  C   C24       1.0  0.58592  0.55676  0.56869  1.0000
  C   C25       1.0  0.47421  0.62971  0.57372  1.0000
  C   C26       1.0  0.4394600000000001  0.23897000000000002  0.52649  1.0000
  C   C27       1.0  0.72034  0.60923  0.58058  1.0000
  C   C28       1.0  0.014099999999999932  0.94267  0.6655799999999997  1.0000
  C   C29       1.0  0.90166  0.97814  0.68988  1.0000
  C   C30       1.0  0.77165  0.9501600000000001  0.6711899999999997  1.0000
  C   C31       1.0  0.669  0.97678  0.69631  1.0000
  C   C32       1.0  0.69567  0.03377  0.73917  1.0000
  C   C33       1.0  0.8253700000000002  0.062110000000000005  0.75762  1.0000
  C   C34       1.0  0.92822  0.03361  0.73308  1.0000
  C   C35       1.0  0.53142  0.94154  0.67878  1.0000
  C   C36       1.0  0.85302  0.12252  0.80355  1.0000
  C   C37       1.0  0.23196  0.8496  0.07251  1.0000
  C   C38       1.0  0.34875  0.9265400000000001  0.0636  1.0000
  C   C39       1.0  0.33444  0.05393  0.04785  1.0000
  C   C40       1.0  0.4467199999999999  0.12571  0.042559999999999994  1.0000
  C   C41       1.0  0.57182  0.07065  0.05285  1.0000
  C   C42       1.0  0.58572  0.9444300000000001  0.06883  1.0000
  C   C43       1.0  0.47433000000000003  0.87178  0.07409  1.0000
  C   C44       1.0  0.43841  0.26147  0.02645  1.0000
  C   C45       1.0  0.7201  0.89179  0.08062  1.0000
  C   C46       1.0  0.013550000000000001  0.56011  0.16596  1.0000
  C   C47       1.0  0.90098  0.52408  0.18999  1.0000
  C   C48       1.0  0.77076  0.5511699999999998  0.17104999999999995  1.0000
  C   C49       1.0  0.6678  0.52357  0.19589  1.0000
  C   C50       1.0  0.6948800000000002  0.466  0.23864  1.0000
  C   C51       1.0  0.82473  0.43798000000000004  0.25721  1.0000
  C   C52       1.0  0.9278000000000001  0.46795  0.23305  1.0000
  C   C53       1.0  0.5294800000000001  0.55826  0.17863  1.0000
  C   C54       1.0  0.8524199999999998  0.37654  0.30296  1.0000
  C   C55       1.0  0.76813  0.3485  0.42751  1.0000
  C   C56       1.0  0.65107  0.42517  0.43665999999999994  1.0000
  C   C57       1.0  0.66493  0.55266  0.45237  1.0000
  C   C58       1.0  0.55247  0.62492  0.45753  1.0000
  C   C59       1.0  0.42761999999999994  0.56985  0.44709  1.0000
  C   C60       1.0  0.41408000000000006  0.44323  0.43132  1.0000
  C   C61       1.0  0.52579  0.37027  0.42628  1.0000
  C   C62       1.0  0.56054  0.76102  0.47352  1.0000
  C   C63       1.0  0.27966  0.39076  0.41942  1.0000
  C   C64       1.0  0.98588  0.05732  0.33442  1.0000
  C   C65       1.0  0.09831  0.02184  0.31012  1.0000
  C   C66       1.0  0.22832  0.049830000000000006  0.32882  1.0000
  C   C67       1.0  0.33095  0.02322  0.30368  1.0000
  C   C68       1.0  0.30431  0.9662200000000001  0.26082  1.0000
  C   C69       1.0  0.1746  0.93787  0.24237999999999996  1.0000
  C   C70       1.0  0.07174  0.9663700000000001  0.26692  1.0000
  C   C71       1.0  0.46852  0.05846  0.32122  1.0000
  C   C72       1.0  0.14696  0.87748  0.19645  1.0000
  O   O1        1.0  0.75311  0.27014  0.91836  1.0000
  O   O2        1.0  0.87726  0.09082  0.92887  1.0000
  O   O3        1.0  0.44705  0.68216  0.97326  1.0000
  O   O4        1.0  0.66791  0.68157  0.98661  1.0000
  O   O5        1.0  0.18097  0.03729  0.92422  1.0000
  O   O6        1.0  0.25978999999999997  0.22222  0.90396  1.0000
  O   O7        1.0  0.0068599999999999954  0.4015  0.87507  1.0000
  O   O8        1.0  0.8710700000000001  0.44904  0.81155  1.0000
  O   O9        1.0  0.50498  0.40322  0.86218  1.0000
  O   O10       1.0  0.55759  0.44777000000000006  0.79471  1.0000
  O   O11       1.0  0.027560000000000008  0.632  0.67886  1.0000
  O   O12       1.0  0.2463  0.66251  0.67904  1.0000
  O   O13       1.0  0.24652000000000002  0.7712599999999998  0.58168  1.0000
  O   O14       1.0  0.12326000000000001  0.59122  0.57127  1.0000
  O   O15       1.0  0.55401  0.18231  0.52669  1.0000
  O   O16       1.0  0.33316  0.18204  0.51357  1.0000
  O   O17       1.0  0.8188900000000001  0.53489  0.57817  1.0000
  O   O18       1.0  0.7403  0.72571  0.5936  1.0000
  O   O19       1.0  0.9931400000000001  0.90152  0.62484  1.0000
  O   O20       1.0  0.12985  0.95487  0.68747  1.0000
  O   O21       1.0  0.49898  0.90287  0.63792  1.0000
  O   O22       1.0  0.44344  0.94738  0.70514  1.0000
  O   O23       1.0  0.9732100000000001  0.13054  0.8214599999999997  1.0000
  O   O24       1.0  0.75422  0.16132  0.82149  1.0000
  O   O25       1.0  0.24689000000000003  0.72987  0.08166  1.0000
  O   O26       1.0  0.12274  0.90917  0.07113  1.0000
  O   O27       1.0  0.55295  0.31783  0.02674  1.0000
  O   O28       1.0  0.33209  0.31843  0.0134  1.0000
  O   O29       1.0  0.81902  0.9626899999999999  0.07578  1.0000
  O   O30       1.0  0.74022  0.7777699999999999  0.09604  1.0000
  O   O31       1.0  0.9931400000000001  0.59854  0.12489  1.0000
  O   O32       1.0  0.12895  0.55094  0.18839  1.0000
  O   O33       1.0  0.49497  0.59676  0.13781  1.0000
  O   O34       1.0  0.44244  0.55224  0.20528  1.0000
  O   O35       1.0  0.97234  0.36869  0.3211899999999999  1.0000
  O   O36       1.0  0.75347  0.33716  0.32057  1.0000
  O   O37       1.0  0.75344  0.22879000000000002  0.4182299999999999  1.0000
  O   O38       1.0  0.8767500000000001  0.40877  0.42874  1.0000
  O   O39       1.0  0.44599  0.8176800000000001  0.47332  1.0000
  O   O40       1.0  0.66683  0.8179400000000001  0.48643  1.0000
  O   O41       1.0  0.18111  0.46509  0.4218399999999999  1.0000
  O   O42       1.0  0.25969  0.27428  0.4064  1.0000
  O   O43       1.0  0.006859999999999992  0.0985  0.37516  1.0000
  O   O44       1.0  0.87013  0.04512  0.31253999999999993  1.0000
  O   O45       1.0  0.50096  0.09712  0.36208  1.0000
  O   O46       1.0  0.55652  0.052610000000000004  0.29487  1.0000
  O   O47       1.0  0.02678  0.86944  0.17854  1.0000
  O   O48       1.0  0.24577  0.83867  0.17850999999999997  1.0000
