data_image0
_chemical_formula_structural       Cd9H30C24N54Cl6
_chemical_formula_sum              "Cd9 H30 C24 N54 Cl6"
_cell_length_a       10.0463
_cell_length_b       16.32951
_cell_length_c       16.33167
_cell_angle_alpha    115.89501
_cell_angle_beta     101.84943
_cell_angle_gamma    101.85198

_symmetry_space_group_name_H-M    'P 1'
_symmetry_Int_Tables_number       1

loop_
  _symmetry_equiv_pos_as_xyz
  'x,y,z'

loop_
  _atom_site_type_symbol
  _atom_site_label
  _atom_site_symmetry_multiplicity
  _atom_site_fract_x
  _atom_site_fract_y
  _atom_site_fract_z
  _atom_site_occupancy
  Cd  Cd1       1.0  0.9283899999999999  0.24684999999999996  0.54396  1.0000
  Cd  Cd2       1.0  0.3847000000000001  0.45597  0.70291  1.0000
  Cd  Cd3       1.0  0.68176  0.29696  0.75302  1.0000
  Cd  Cd4       1.0  0.07160999999999992  0.7531499999999998  0.45604000000000006  1.0000
  Cd  Cd5       1.0  0.6153  0.5440299999999998  0.29709  1.0000
  Cd  Cd6       1.0  0.3182499999999999  0.7030299999999998  0.24698  1.0000
  Cd  Cd7       1.0  0.0  0.0  0.5  1.0000
  Cd  Cd8       1.0  0.5  0.4999999999999999  0.5  1.0000
  Cd  Cd9       1.0  0.0  0.4999999999999999  0.0  1.0000
  H   H1        1.0  0.66252  0.34159  0.37218  1.0000
  H   H2        1.0  0.8334000000000003  0.40895999999999993  0.4638800000000001  1.0000
  H   H3        1.0  0.86368  0.29617  0.29579  1.0000
  H   H4        1.0  0.8986  0.19502  0.29982  1.0000
  H   H5        1.0  0.7116500000000001  0.19615000000000005  0.35410000000000014  1.0000
  H   H6        1.0  0.2905  0.62781  0.9693  1.0000
  H   H7        1.0  0.36972000000000005  0.5361100000000002  0.9451400000000002  1.0000
  H   H8        1.0  0.56824  0.70407  0.00033  1.0000
  H   H9        1.0  0.5992799999999998  0.7001099999999998  0.89523  1.0000
  H   H10       1.0  0.35823999999999995  0.6458399999999997  0.8420900000000001  1.0000
  H   H11       1.0  0.32118  0.030679999999999968  0.65844  1.0000
  H   H12       1.0  0.42450000000000004  0.05499000000000006  0.5910000000000002  1.0000
  H   H13       1.0  0.5675899999999999  0.9996099999999999  0.70374  1.0000
  H   H14       1.0  0.70387  0.10474999999999998  0.80486  1.0000
  H   H15       1.0  0.51611  0.15806000000000006  0.80367  1.0000
  H   H16       1.0  0.33748  0.65841  0.62781  1.0000
  H   H17       1.0  0.16660000000000003  0.59103  0.53611  1.0000
  H   H18       1.0  0.13632  0.70383  0.70421  1.0000
  H   H19       1.0  0.10139999999999999  0.8049799999999998  0.70018  1.0000
  H   H20       1.0  0.28836  0.8038499999999997  0.64589  1.0000
  H   H21       1.0  0.7095  0.37218  0.0307  1.0000
  H   H22       1.0  0.63028  0.4638799999999999  0.05486  1.0000
  H   H23       1.0  0.43176  0.29591999999999996  0.9996700000000001  1.0000
  H   H24       1.0  0.40072  0.2998899999999999  0.10476  1.0000
  H   H25       1.0  0.64176  0.3541499999999999  0.1579  1.0000
  H   H26       1.0  0.6788199999999999  0.9693099999999998  0.34156  1.0000
  H   H27       1.0  0.5755099999999999  0.9450099999999998  0.409  1.0000
  H   H28       1.0  0.4324100000000001  0.00039000000000004596  0.2962600000000001  1.0000
  H   H29       1.0  0.2961299999999999  0.8952399999999998  0.19513  1.0000
  H   H30       1.0  0.48389999999999994  0.8419399999999998  0.19633  1.0000
  C   C1        1.0  0.67623  0.34275  0.50502  1.0000
  C   C2        1.0  0.74103  0.34174  0.43035  1.0000
  C   C3        1.0  0.8956899999999999  0.2678199999999999  0.34401  1.0000
  C   C4        1.0  0.04389999999999995  0.3305999999999999  0.41461  1.0000
  C   C5        1.0  0.17151999999999992  0.4949699999999999  0.8377  1.0000
  C   C6        1.0  0.311  0.5696399999999999  0.9114200000000001  1.0000
  C   C7        1.0  0.55219  0.65588  0.9238300000000002  1.0000
  C   C8        1.0  0.6297799999999999  0.5853399999999997  0.91613  1.0000
  C   C9        1.0  0.33367  0.16229999999999994  0.65722  1.0000
  C   C10       1.0  0.3995  0.08866000000000002  0.6582  1.0000
  C   C11       1.0  0.62815  0.07615000000000002  0.73204  1.0000
  C   C12       1.0  0.7135  0.08387000000000004  0.6692400000000001  1.0000
  C   C13       1.0  0.32376999999999995  0.6572399999999998  0.49498  1.0000
  C   C14       1.0  0.25897  0.65825  0.56965  1.0000
  C   C15       1.0  0.10430999999999999  0.7321799999999999  0.6559900000000001  1.0000
  C   C16       1.0  0.9561  0.6693999999999998  0.58538  1.0000
  C   C17       1.0  0.82849  0.5050299999999998  0.1623  1.0000
  C   C18       1.0  0.689  0.43036  0.08858  1.0000
  C   C19       1.0  0.44781000000000004  0.34412  0.07617  1.0000
  C   C20       1.0  0.37022  0.41465999999999986  0.08387  1.0000
  C   C21       1.0  0.6663400000000002  0.8376900000000002  0.3427800000000001  1.0000
  C   C22       1.0  0.60051  0.9113300000000001  0.34179000000000004  1.0000
  C   C23       1.0  0.37185  0.9238499999999997  0.26796  1.0000
  C   C24       1.0  0.28649999999999987  0.9161299999999998  0.33076  1.0000
  N   N1        1.0  0.70871  0.2990099999999999  0.55548  1.0000
  N   N2        1.0  0.79543  0.2598999999999999  0.3964  1.0000
  N   N3        1.0  0.08875  0.34076  0.50316  1.0000
  N   N4        1.0  0.22736000000000006  0.39724000000000004  0.54271  1.0000
  N   N5        1.0  0.6342900000000002  0.31979  0.61759  1.0000
  N   N6        1.0  0.55917  0.37337  0.60516  1.0000
  N   N7        1.0  0.58339  0.38852  0.5341  1.0000
  N   N8        1.0  0.26302  0.4199299999999999  0.47947  1.0000
  N   N9        1.0  0.14975999999999998  0.3796299999999999  0.39825  1.0000
  N   N10       1.0  0.15352999999999997  0.4443899999999999  0.74353  1.0000
  N   N11       1.0  0.39948  0.60348  0.86351  1.0000
  N   N12       1.0  0.5861  0.49681999999999993  0.8377100000000001  1.0000
  N   N13       1.0  0.68515  0.4573199999999999  0.85463  1.0000
  N   N14       1.0  0.016889999999999936  0.3822899999999999  0.70222  1.0000
  N   N15       1.0  0.95417  0.3948499999999998  0.76822  1.0000
  N   N16       1.0  0.04949999999999996  0.4659999999999999  0.8544  1.0000
  N   N17       1.0  0.7839899999999999  0.52054  0.94063  1.0000
  N   N18       1.0  0.7519499999999998  0.6017199999999998  0.98159  1.0000
  N   N19       1.0  0.40996999999999995  0.2564999999999999  0.70089  1.0000
  N   N20       1.0  0.53597  0.13656  0.7399200000000001  1.0000
  N   N21       1.0  0.7482200000000001  0.16224  0.6590500000000001  1.0000
  N   N22       1.0  0.8302399999999999  0.14523999999999995  0.60256  1.0000
  N   N23       1.0  0.31471000000000005  0.29784  0.68017  1.0000
  N   N24       1.0  0.18589  0.23184  0.62671  1.0000
  N   N25       1.0  0.19492  0.14562999999999995  0.61158  1.0000
  N   N26       1.0  0.84307  0.059270000000000045  0.5798800000000001  1.0000
  N   N27       1.0  0.77013  0.018400000000000017  0.6202  1.0000
  N   N28       1.0  0.29128999999999994  0.7009899999999998  0.4445200000000001  1.0000
  N   N29       1.0  0.20457000000000009  0.7401000000000001  0.6035900000000001  1.0000
  N   N30       1.0  0.9112600000000001  0.65924  0.49684  1.0000
  N   N31       1.0  0.77264  0.6027599999999997  0.45729  1.0000
  N   N32       1.0  0.36571  0.68021  0.38241  1.0000
  N   N33       1.0  0.44083000000000006  0.6266199999999997  0.39484  1.0000
  N   N34       1.0  0.41661  0.61147  0.4659  1.0000
  N   N35       1.0  0.7369799999999999  0.5800699999999998  0.52053  1.0000
  N   N36       1.0  0.8502399999999999  0.6203699999999998  0.60175  1.0000
  N   N37       1.0  0.84647  0.55561  0.25646  1.0000
  N   N38       1.0  0.60052  0.39651  0.13649  1.0000
  N   N39       1.0  0.4139  0.50317  0.16229  1.0000
  N   N40       1.0  0.31486  0.54268  0.14536  1.0000
  N   N41       1.0  0.9831099999999999  0.61771  0.29778000000000004  1.0000
  N   N42       1.0  0.0458399999999999  0.6051399999999998  0.23178000000000007  1.0000
  N   N43       1.0  0.9505  0.534  0.1456  1.0000
  N   N44       1.0  0.21601  0.4794599999999999  0.05937000000000001  1.0000
  N   N45       1.0  0.24805  0.3982799999999999  0.0184  1.0000
  N   N46       1.0  0.5900299999999999  0.7434899999999997  0.29911  1.0000
  N   N47       1.0  0.46402999999999994  0.8634299999999998  0.26007  1.0000
  N   N48       1.0  0.25178  0.83776  0.34095  1.0000
  N   N49       1.0  0.16976  0.8547599999999997  0.39744  1.0000
  N   N50       1.0  0.68529  0.70216  0.31983  1.0000
  N   N51       1.0  0.8141200000000001  0.76815  0.37329  1.0000
  N   N52       1.0  0.80508  0.8543599999999999  0.38841  1.0000
  N   N53       1.0  0.15692999999999996  0.9407199999999998  0.42012  1.0000
  N   N54       1.0  0.22986999999999985  0.9815999999999998  0.3798  1.0000
  Cl  Cl1       1.0  0.9246100000000002  0.08764999999999998  0.39862  1.0000
  Cl  Cl2       1.0  0.52604  0.6011499999999997  0.68896  1.0000
  Cl  Cl3       1.0  0.8366700000000001  0.31087  0.91227  1.0000
  Cl  Cl4       1.0  0.07538999999999998  0.9123399999999998  0.60138  1.0000
  Cl  Cl5       1.0  0.4739600000000001  0.3988499999999999  0.31104000000000004  1.0000
  Cl  Cl6       1.0  0.16332999999999998  0.6891299999999998  0.08772  1.0000
