data_image0
_chemical_formula_structural       Cu4H56C68O16
_chemical_formula_sum              "Cu4 H56 C68 O16"
_cell_length_a       10.58244
_cell_length_b       15.180010000000001
_cell_length_c       15.180540000000002
_cell_angle_alpha    66.80214
_cell_angle_beta     67.66417
_cell_angle_gamma    67.64593

_symmetry_space_group_name_H-M    'P 1'
_symmetry_Int_Tables_number       1

loop_
  _symmetry_equiv_pos_as_xyz
  'x,y,z'

loop_
  _atom_site_type_symbol
  _atom_site_label
  _atom_site_symmetry_multiplicity
  _atom_site_fract_x
  _atom_site_fract_y
  _atom_site_fract_z
  _atom_site_occupancy
  Cu  Cu1       1.0  0.97583  0.91912  0.54082  1.0000
  Cu  Cu2       1.0  0.5241800000000001  0.45915  0.08088  1.0000
  Cu  Cu3       1.0  0.02416000000000001  0.08087999999999998  0.45918  1.0000
  Cu  Cu4       1.0  0.4758099999999998  0.5408599999999999  0.9191199999999998  1.0000
  H   H1        1.0  0.1339200000000001  0.8449800000000001  0.9685399999999997  1.0000
  H   H2        1.0  0.9044099999999999  0.15644999999999995  0.8956699999999997  1.0000
  H   H3        1.0  0.9285100000000001  0.15077000000000002  0.7306799999999999  1.0000
  H   H4        1.0  0.25001000000000007  0.8274999999999999  0.7199999999999998  1.0000
  H   H5        1.0  0.11196000000000034  0.7727999999999998  0.8008499999999997  1.0000
  H   H6        1.0  0.24946000000000007  0.76323  0.84739  1.0000
  H   H7        1.0  0.42199  0.32526  0.71916  1.0000
  H   H8        1.0  0.25195  0.11008000000000004  0.7186799999999999  1.0000
  H   H9        1.0  0.6519999999999999  0.31802  0.6612799999999998  1.0000
  H   H10       1.0  0.7183599999999998  0.30285  0.54005  1.0000
  H   H11       1.0  0.7855399999999998  0.20882000000000006  0.6369899999999997  1.0000
  H   H12       1.0  0.38068000000000013  0.005190000000000067  0.6211399999999998  1.0000
  H   H13       1.0  0.5151800000000001  0.93283  0.6833799999999998  1.0000
  H   H14       1.0  0.5637600000000004  0.9916099999999998  0.5546499999999998  1.0000
  H   H15       1.0  0.36607999999999996  0.031479999999999994  0.15499  1.0000
  H   H16       1.0  0.5955400000000001  0.10432000000000004  0.8435899999999998  1.0000
  H   H17       1.0  0.5714200000000003  0.26933  0.8492799999999998  1.0000
  H   H18       1.0  0.2499600000000001  0.2800499999999999  0.17246999999999996  1.0000
  H   H19       1.0  0.38806  0.19917999999999997  0.22717  1.0000
  H   H20       1.0  0.25057  0.15264  0.23673  1.0000
  H   H21       1.0  0.07799999999999994  0.28086  0.67474  1.0000
  H   H22       1.0  0.24810000000000004  0.28132000000000007  0.8899199999999998  1.0000
  H   H23       1.0  0.8479600000000002  0.33873999999999993  0.6819699999999997  1.0000
  H   H24       1.0  0.7815300000000002  0.45997000000000005  0.6971799999999999  1.0000
  H   H25       1.0  0.7144500000000001  0.36299999999999977  0.79118  1.0000
  H   H26       1.0  0.1193300000000001  0.37883000000000006  0.9948399999999997  1.0000
  H   H27       1.0  0.9848799999999993  0.31657999999999986  0.06716  1.0000
  H   H28       1.0  0.93624  0.44534  0.0084  1.0000
  H   H29       1.0  0.86607  0.15503  0.03146  1.0000
  H   H30       1.0  0.0955800000000001  0.8435599999999998  0.10433  1.0000
  H   H31       1.0  0.07148000000000015  0.8492399999999998  0.26932  1.0000
  H   H32       1.0  0.7499799999999999  0.1725  0.28  1.0000
  H   H33       1.0  0.88803  0.22721  0.19914999999999997  1.0000
  H   H34       1.0  0.75054  0.23677000000000004  0.15260999999999994  1.0000
  H   H35       1.0  0.578  0.67474  0.28084  1.0000
  H   H36       1.0  0.74804  0.88993  0.28131999999999996  1.0000
  H   H37       1.0  0.34799  0.6819800000000001  0.33871999999999997  1.0000
  H   H38       1.0  0.28163000000000005  0.69716  0.45995  1.0000
  H   H39       1.0  0.21444999999999997  0.79119  0.36300999999999994  1.0000
  H   H40       1.0  0.6193200000000003  0.9948099999999998  0.3788699999999999  1.0000
  H   H41       1.0  0.48480999999999996  0.06717  0.31663  1.0000
  H   H42       1.0  0.4362300000000001  0.008400000000000012  0.4453599999999999  1.0000
  H   H43       1.0  0.63392  0.9685200000000002  0.8450099999999998  1.0000
  H   H44       1.0  0.40445  0.89568  0.15641  1.0000
  H   H45       1.0  0.42857000000000006  0.7306699999999998  0.15072999999999995  1.0000
  H   H46       1.0  0.7500400000000004  0.7199599999999999  0.8275299999999998  1.0000
  H   H47       1.0  0.61193  0.80082  0.77283  1.0000
  H   H48       1.0  0.74942  0.84736  0.7632699999999999  1.0000
  H   H49       1.0  0.9219899999999999  0.71915  0.32526999999999995  1.0000
  H   H50       1.0  0.7518899999999997  0.71868  0.11007999999999997  1.0000
  H   H51       1.0  0.1520399999999999  0.66127  0.31803  1.0000
  H   H52       1.0  0.21847000000000005  0.54004  0.30281999999999987  1.0000
  H   H53       1.0  0.28554999999999997  0.637  0.20882  1.0000
  H   H54       1.0  0.8806600000000001  0.6211799999999998  0.00517  1.0000
  H   H55       1.0  0.015110000000000182  0.6834199999999999  0.9328399999999998  1.0000
  H   H56       1.0  0.06375000000000011  0.5546699999999998  0.99161  1.0000
  C   C1        1.0  0.03169000000000007  0.9947400000000001  0.6612099999999997  1.0000
  C   C2        1.0  0.036690000000000215  0.9946699999999999  0.7579499999999998  1.0000
  C   C3        1.0  0.09860000000000024  0.9075599999999997  0.8249  1.0000
  C   C4        1.0  0.08409000000000022  0.9123999999999999  0.9185799999999997  1.0000
  C   C5        1.0  0.009730000000000058  0.9994600000000001  0.9490499999999997  1.0000
  C   C6        1.0  0.95641  0.08602000000000001  0.87838  1.0000
  C   C7        1.0  0.97044  0.08346  0.78458  1.0000
  C   C8        1.0  0.18268999999999988  0.81246  0.79697  1.0000
  C   C9        1.0  0.7365699999999998  0.07948999999999999  0.56998  1.0000
  C   C10       1.0  0.5913499999999999  0.13011999999999999  0.62104  1.0000
  C   C11       1.0  0.57189  0.21646  0.64573  1.0000
  C   C12       1.0  0.4373700000000001  0.25993000000000005  0.6989499999999997  1.0000
  C   C13       1.0  0.3208899999999998  0.2235799999999999  0.72477  1.0000
  C   C14       1.0  0.34125000000000005  0.13992999999999997  0.69801  1.0000
  C   C15       1.0  0.47487  0.09134999999999997  0.64774  1.0000
  C   C16       1.0  0.68833  0.26387  0.61989  1.0000
  C   C17       1.0  0.4847799999999999  0.000750000000000064  0.6244899999999998  1.0000
  C   C18       1.0  0.46826  0.3388  0.0052899999999999996  1.0000
  C   C19       1.0  0.46326000000000006  0.24207  0.005339999999999998  1.0000
  C   C20       1.0  0.40137  0.17511999999999994  0.09242999999999998  1.0000
  C   C21       1.0  0.41589  0.08145  0.08757999999999998  1.0000
  C   C22       1.0  0.49025  0.05096  0.00054  1.0000
  C   C23       1.0  0.5435600000000002  0.12164000000000004  0.9139999999999998  1.0000
  C   C24       1.0  0.5295000000000002  0.2154300000000001  0.9165699999999998  1.0000
  C   C25       1.0  0.31731000000000004  0.20305999999999996  0.18750999999999995  1.0000
  C   C26       1.0  0.7634100000000004  0.4299799999999999  0.9205299999999997  1.0000
  C   C27       1.0  0.9086500000000001  0.37893  0.8698999999999998  1.0000
  C   C28       1.0  0.92809  0.35427  0.7835399999999998  1.0000
  C   C29       1.0  0.0626300000000001  0.30106000000000005  0.7400799999999997  1.0000
  C   C30       1.0  0.1791300000000001  0.27522999999999986  0.77642  1.0000
  C   C31       1.0  0.15877999999999998  0.3019899999999999  0.86007  1.0000
  C   C32       1.0  0.02514000000000009  0.35223999999999983  0.90865  1.0000
  C   C33       1.0  0.8116199999999998  0.38011000000000006  0.73614  1.0000
  C   C34       1.0  0.015250000000000059  0.37548  0.9992599999999999  1.0000
  C   C35       1.0  0.9683  0.00526  0.33879  1.0000
  C   C36       1.0  0.9633  0.005340000000000023  0.24204999999999993  1.0000
  C   C37       1.0  0.90139  0.09244000000000002  0.17510999999999993  1.0000
  C   C38       1.0  0.9158999999999999  0.08759999999999998  0.08141999999999998  1.0000
  C   C39       1.0  0.99026  0.000540000000000004  0.050959999999999984  1.0000
  C   C40       1.0  0.043590000000000066  0.91398  0.12163  1.0000
  C   C41       1.0  0.02956  0.91655  0.21543  1.0000
  C   C42       1.0  0.8173  0.1875399999999999  0.20303  1.0000
  C   C43       1.0  0.2634299999999999  0.92052  0.43003  1.0000
  C   C44       1.0  0.40864000000000006  0.8698899999999998  0.37896  1.0000
  C   C45       1.0  0.4280999999999999  0.7835400000000001  0.3542799999999999  1.0000
  C   C46       1.0  0.5626300000000001  0.7400799999999997  0.30105  1.0000
  C   C47       1.0  0.6791  0.7764299999999997  0.27523  1.0000
  C   C48       1.0  0.65874  0.8600799999999997  0.30198999999999987  1.0000
  C   C49       1.0  0.5251200000000001  0.9086499999999997  0.35225999999999996  1.0000
  C   C50       1.0  0.31167000000000017  0.7361299999999997  0.38011  1.0000
  C   C51       1.0  0.5152199999999999  0.99925  0.3755099999999999  1.0000
  C   C52       1.0  0.5317399999999999  0.6612  0.9947099999999998  1.0000
  C   C53       1.0  0.5367300000000003  0.75793  0.9946599999999998  1.0000
  C   C54       1.0  0.5986200000000003  0.8248799999999998  0.90758  1.0000
  C   C55       1.0  0.5841000000000001  0.9185599999999997  0.91242  1.0000
  C   C56       1.0  0.5097500000000001  0.9490499999999997  0.9994599999999999  1.0000
  C   C57       1.0  0.45643000000000006  0.8783699999999998  0.08599999999999998  1.0000
  C   C58       1.0  0.47049  0.7845799999999999  0.08343  1.0000
  C   C59       1.0  0.6826800000000001  0.7969500000000002  0.8124899999999998  1.0000
  C   C60       1.0  0.23658000000000012  0.57003  0.07946999999999997  1.0000
  C   C61       1.0  0.09135000000000011  0.6210699999999999  0.13011  1.0000
  C   C62       1.0  0.07189999999999999  0.64573  0.21645999999999996  1.0000
  C   C63       1.0  0.93736  0.69895  0.25993  1.0000
  C   C64       1.0  0.8208599999999998  0.7247699999999999  0.22357999999999997  1.0000
  C   C65       1.0  0.84121  0.6980199999999998  0.13993  1.0000
  C   C66       1.0  0.97485  0.64776  0.09134999999999997  1.0000
  C   C67       1.0  0.18837  0.61989  0.26387  1.0000
  C   C68       1.0  0.9847500000000002  0.6245299999999998  0.0007499999999999999  1.0000
  O   O1        1.0  0.0051700000000000175  0.9191400000000001  0.66137  1.0000
  O   O2        1.0  0.04898000000000007  0.07156000000000001  0.5858899999999999  1.0000
  O   O3        1.0  0.7730400000000004  0.9840199999999996  0.59307  1.0000
  O   O4        1.0  0.81777  0.13488  0.50766  1.0000
  O   O5        1.0  0.49480999999999997  0.3386  0.08091  1.0000
  O   O6        1.0  0.45094000000000006  0.41415  0.9284899999999999  1.0000
  O   O7        1.0  0.72697  0.40684  0.015989999999999997  1.0000
  O   O8        1.0  0.68217  0.49233000000000005  0.86515  1.0000
  O   O9        1.0  0.99482  0.08087000000000005  0.3386399999999999  1.0000
  O   O10       1.0  0.9510099999999998  0.92844  0.41411  1.0000
  O   O11       1.0  0.22694999999999999  0.015990000000000004  0.40692999999999996  1.0000
  O   O12       1.0  0.1822200000000002  0.8651299999999997  0.49234999999999995  1.0000
  O   O13       1.0  0.5051800000000003  0.6613999999999998  0.9190999999999999  1.0000
  O   O14       1.0  0.54905  0.58586  0.07151999999999997  1.0000
  O   O15       1.0  0.27302999999999994  0.59316  0.9840099999999998  1.0000
  O   O16       1.0  0.31781999999999994  0.5076700000000001  0.13486  1.0000
