data_image0
_chemical_formula_structural       Li8H32C48N8O16
_chemical_formula_sum              "Li8 H32 C48 N8 O16"
_cell_length_a       9.69222
_cell_length_b       10.52072
_cell_length_c       14.841689999999998
_cell_angle_alpha    97.59380000000002
_cell_angle_beta     90.05393
_cell_angle_gamma    89.97879

_symmetry_space_group_name_H-M    'P 1'
_symmetry_Int_Tables_number       1

loop_
  _symmetry_equiv_pos_as_xyz
  'x,y,z'

loop_
  _atom_site_type_symbol
  _atom_site_label
  _atom_site_symmetry_multiplicity
  _atom_site_fract_x
  _atom_site_fract_y
  _atom_site_fract_z
  _atom_site_occupancy
  Li  Li1       1.0  0.03966  0.8544600000000001  0.9404800000000001  1.0000
  Li  Li2       1.0  0.94175  0.65636  0.02234  1.0000
  Li  Li3       1.0  0.53908  0.64561  0.56071  1.0000
  Li  Li4       1.0  0.44147  0.84413  0.47884  1.0000
  Li  Li5       1.0  0.96034  0.14554  0.05952  1.0000
  Li  Li6       1.0  0.05825  0.34365  0.97766  1.0000
  Li  Li7       1.0  0.46091000000000004  0.35439  0.4393  1.0000
  Li  Li8       1.0  0.55853  0.15588000000000002  0.52117  1.0000
  H   H1        1.0  0.57419  0.0544  0.11666000000000001  1.0000
  H   H2        1.0  0.67235  0.66802  0.00055  1.0000
  H   H3        1.0  0.48689  0.43272  0.67889  1.0000
  H   H4        1.0  0.32873  0.39902000000000004  0.8086500000000002  1.0000
  H   H5        1.0  0.33143  0.9813200000000002  0.1351  1.0000
  H   H6        1.0  0.37061  0.81295  0.69188  1.0000
  H   H7        1.0  0.42586999999999997  0.61168  0.02128  1.0000
  H   H8        1.0  0.20919999999999997  0.79593  0.82084  1.0000
  H   H9        1.0  0.07367  0.44584000000000007  0.38232  1.0000
  H   H10       1.0  0.17241  0.8319200000000001  0.49884  1.0000
  H   H11       1.0  0.98742  0.06811000000000003  0.82153  1.0000
  H   H12       1.0  0.82916  0.10124000000000001  0.69152  1.0000
  H   H13       1.0  0.83046  0.51877  0.36553  1.0000
  H   H14       1.0  0.87199  0.68778  0.80886  1.0000
  H   H15       1.0  0.9256300000000001  0.88827  0.47929  1.0000
  H   H16       1.0  0.71028  0.7042800000000001  0.67998  1.0000
  H   H17       1.0  0.42579999999999996  0.9456  0.88334  1.0000
  H   H18       1.0  0.32765  0.33198000000000005  0.99945  1.0000
  H   H19       1.0  0.5131  0.56729  0.32111  1.0000
  H   H20       1.0  0.67127  0.60098  0.19136  1.0000
  H   H21       1.0  0.66857  0.018679999999999992  0.8649  1.0000
  H   H22       1.0  0.62939  0.18705  0.30812  1.0000
  H   H23       1.0  0.57413  0.38832  0.97873  1.0000
  H   H24       1.0  0.79079  0.20407000000000003  0.17916  1.0000
  H   H25       1.0  0.92633  0.55416  0.61769  1.0000
  H   H26       1.0  0.8275899999999999  0.16809  0.50116  1.0000
  H   H27       1.0  0.012579999999999996  0.9319  0.17847  1.0000
  H   H28       1.0  0.17083  0.89876  0.30848  1.0000
  H   H29       1.0  0.16953  0.48124  0.63447  1.0000
  H   H30       1.0  0.12801  0.31222  0.19115000000000001  1.0000
  H   H31       1.0  0.07437  0.11173  0.52071  1.0000
  H   H32       1.0  0.28972  0.29572000000000004  0.32002  1.0000
  C   C1        1.0  0.15365  0.57431  0.89749  1.0000
  C   C2        1.0  0.78957  0.91116  0.0451  1.0000
  C   C3        1.0  0.64389  0.8668400000000003  0.05851  1.0000
  C   C4        1.0  0.54503  0.95482  0.09678000000000002  1.0000
  C   C5        1.0  0.60045  0.7406900000000001  0.03093  1.0000
  C   C6        1.0  0.25573  0.59454  0.82411  1.0000
  C   C7        1.0  0.42432000000000003  0.51073  0.7129  1.0000
  C   C8        1.0  0.33691  0.4919900000000001  0.78449  1.0000
  C   C9        1.0  0.40974  0.91364  0.10642  1.0000
  C   C10       1.0  0.35832  0.72278  0.71964  1.0000
  C   C11       1.0  0.46220999999999995  0.70904  0.04309  1.0000
  C   C12       1.0  0.26822  0.71287  0.79137  1.0000
  C   C13       1.0  0.65299  0.92586  0.60343  1.0000
  C   C14       1.0  0.2896  0.58914  0.45308  1.0000
  C   C15       1.0  0.14358  0.63341  0.44049  1.0000
  C   C16       1.0  0.04452  0.54535  0.40261  1.0000
  C   C17       1.0  0.10022  0.75941  0.46864  1.0000
  C   C18       1.0  0.75604  0.90588  0.6765200000000001  1.0000
  C   C19       1.0  0.9251499999999999  0.9899  0.78752  1.0000
  C   C20       1.0  0.83751  0.008390000000000028  0.7158400000000001  1.0000
  C   C21       1.0  0.90897  0.58643  0.39389  1.0000
  C   C22       1.0  0.8595899999999999  0.77788  0.78101  1.0000
  C   C23       1.0  0.9617700000000001  0.79097  0.45721  1.0000
  C   C24       1.0  0.76912  0.78756  0.70929  1.0000
  C   C25       1.0  0.8463500000000002  0.42569000000000007  0.10252  1.0000
  C   C26       1.0  0.21043  0.08884999999999998  0.9549  1.0000
  C   C27       1.0  0.35611  0.13316  0.94149  1.0000
  C   C28       1.0  0.45497  0.04517999999999999  0.90322  1.0000
  C   C29       1.0  0.39955  0.25932  0.96907  1.0000
  C   C30       1.0  0.74427  0.40547000000000005  0.17589  1.0000
  C   C31       1.0  0.57568  0.4892700000000001  0.2871  1.0000
  C   C32       1.0  0.66308  0.50801  0.21551000000000003  1.0000
  C   C33       1.0  0.59026  0.08636  0.89359  1.0000
  C   C34       1.0  0.64168  0.27722  0.28037  1.0000
  C   C35       1.0  0.53779  0.29096  0.95691  1.0000
  C   C36       1.0  0.73178  0.28713  0.20863  1.0000
  C   C37       1.0  0.34701  0.07414  0.39657  1.0000
  C   C38       1.0  0.7104  0.41086000000000006  0.54692  1.0000
  C   C39       1.0  0.85642  0.36659  0.55951  1.0000
  C   C40       1.0  0.9554800000000001  0.45466  0.59739  1.0000
  C   C41       1.0  0.8997799999999999  0.2406  0.53137  1.0000
  C   C42       1.0  0.24396  0.09412000000000001  0.32349  1.0000
  C   C43       1.0  0.07485  0.010099999999999996  0.21248  1.0000
  C   C44       1.0  0.16249  0.99161  0.28416  1.0000
  C   C45       1.0  0.09103  0.41357000000000005  0.60611  1.0000
  C   C46       1.0  0.14041  0.22212000000000004  0.219  1.0000
  C   C47       1.0  0.03823  0.20904000000000003  0.5428  1.0000
  C   C48       1.0  0.23088  0.21244  0.29071  1.0000
  N   N1        1.0  0.43464  0.62378  0.67982  1.0000
  N   N2        1.0  0.36671  0.79263  0.08066  1.0000
  N   N3        1.0  0.9359  0.87697  0.82075  1.0000
  N   N4        1.0  0.86597  0.70732  0.42014  1.0000
  N   N5        1.0  0.56536  0.37622  0.32018  1.0000
  N   N6        1.0  0.63329  0.20737000000000003  0.91934  1.0000
  N   N7        1.0  0.0641  0.12303  0.17926  1.0000
  N   N8        1.0  0.13403  0.29268  0.57986  1.0000
  O   O1        1.0  0.07655  0.66843  0.92881  1.0000
  O   O2        1.0  0.88269  0.82552  0.02293  1.0000
  O   O3        1.0  0.14866  0.4640500000000001  0.92249  1.0000
  O   O4        1.0  0.81186  0.03013  0.05485  1.0000
  O   O5        1.0  0.57599  0.8314000000000001  0.57252  1.0000
  O   O6        1.0  0.38235  0.67443  0.4772  1.0000
  O   O7        1.0  0.64679  0.035850000000000014  0.57811  1.0000
  O   O8        1.0  0.31243  0.47023  0.44087  1.0000
  O   O9        1.0  0.9234500000000001  0.33158  0.07119  1.0000
  O   O10       1.0  0.11731  0.17449000000000003  0.9770800000000001  1.0000
  O   O11       1.0  0.8513399999999999  0.53595  0.07751  1.0000
  O   O12       1.0  0.18814  0.9698700000000001  0.94515  1.0000
  O   O13       1.0  0.42400999999999994  0.16861  0.42748  1.0000
  O   O14       1.0  0.61765  0.32558  0.52281  1.0000
  O   O15       1.0  0.35321  0.96415  0.42189  1.0000
  O   O16       1.0  0.68757  0.52977  0.55913  1.0000
