data_image0
_chemical_formula_structural       Cu5H30C54O20
_chemical_formula_sum              "Cu5 H30 C54 O20"
_cell_length_a       11.3436
_cell_length_b       9.40257
_cell_length_c       12.66758
_cell_angle_alpha    87.64906000000002
_cell_angle_beta     105.53627
_cell_angle_gamma    72.94653

_symmetry_space_group_name_H-M    'P 1'
_symmetry_Int_Tables_number       1

loop_
  _symmetry_equiv_pos_as_xyz
  'x,y,z'

loop_
  _atom_site_type_symbol
  _atom_site_label
  _atom_site_symmetry_multiplicity
  _atom_site_fract_x
  _atom_site_fract_y
  _atom_site_fract_z
  _atom_site_occupancy
  Cu  Cu1       1.0  0.4643299999999999  0.8864100000000005  0.42824  1.0000
  Cu  Cu2       1.0  0.68402  0.029290000000000014  0.3770899999999999  1.0000
  Cu  Cu3       1.0  0.54053  0.11351999999999998  0.58179  1.0000
  Cu  Cu4       1.0  0.3165199999999999  0.97327  0.6303  1.0000
  Cu  Cu5       1.0  0.50009  0.00396  0.00463  1.0000
  H   H1        1.0  0.88831  0.6129  0.4320399999999999  1.0000
  H   H2        1.0  0.9054999999999999  0.7157400000000002  0.60931  1.0000
  H   H3        1.0  0.7435399999999998  0.39525  0.7180599999999999  1.0000
  H   H4        1.0  0.70009  0.5481200000000002  0.83366  1.0000
  H   H5        1.0  0.91844  0.7428300000000002  0.08299  1.0000
  H   H6        1.0  0.007259999999999997  0.68913  0.77501  1.0000
  H   H7        1.0  0.6953899999999997  0.41596000000000005  0.9717499999999998  1.0000
  H   H8        1.0  0.57118  0.36898  0.09407999999999998  1.0000
  H   H9        1.0  0.7598099999999999  0.78362  0.14528  1.0000
  H   H10       1.0  0.07887999999999999  0.7925300000000001  0.1406  1.0000
  H   H11       1.0  0.2596699999999999  0.89104  0.20037999999999995  1.0000
  H   H12       1.0  0.09824999999999996  0.83829  0.8058199999999999  1.0000
  H   H13       1.0  0.50064  0.61079  0.29012999999999994  1.0000
  H   H14       1.0  0.77112  0.30828  0.37525  1.0000
  H   H15       1.0  0.68937  0.86786  0.53664  1.0000
  H   H16       1.0  0.11119999999999992  0.38836  0.5734799999999999  1.0000
  H   H17       1.0  0.09675  0.2858  0.39648  1.0000
  H   H18       1.0  0.25871  0.60781  0.2904  1.0000
  H   H19       1.0  0.30208  0.4551500000000001  0.17253999999999997  1.0000
  H   H20       1.0  0.08154999999999994  0.26213  0.9233599999999997  1.0000
  H   H21       1.0  0.99453  0.31569  0.23186  1.0000
  H   H22       1.0  0.30591  0.5877  0.03442  1.0000
  H   H23       1.0  0.4295999999999999  0.6349600000000001  0.9116799999999999  1.0000
  H   H24       1.0  0.23914  0.22205  0.85947  1.0000
  H   H25       1.0  0.92027  0.21356000000000006  0.8667599999999999  1.0000
  H   H26       1.0  0.73886  0.11587000000000001  0.8079299999999999  1.0000
  H   H27       1.0  0.90455  0.16562  0.20239999999999994  1.0000
  H   H28       1.0  0.49778999999999995  0.3960199999999999  0.71408  1.0000
  H   H29       1.0  0.22718999999999992  0.6938700000000002  0.63235  1.0000
  H   H30       1.0  0.31593  0.13215  0.47196999999999995  1.0000
  C   C1        1.0  0.71168  0.26034  0.53647  1.0000
  C   C2        1.0  0.76659  0.38475000000000004  0.5560499999999999  1.0000
  C   C3        1.0  0.8124399999999999  0.44287000000000004  0.47541  1.0000
  C   C4        1.0  0.858  0.56575  0.49585  1.0000
  C   C5        1.0  0.86534  0.62371  0.5954  1.0000
  C   C6        1.0  0.8279199999999998  0.5623200000000003  0.68028  1.0000
  C   C7        1.0  0.77583  0.44536000000000003  0.6568  1.0000
  C   C8        1.0  0.84943  0.61555  0.7903299999999999  1.0000
  C   C9        1.0  0.7785399999999999  0.59481  0.86191  1.0000
  C   C10       1.0  0.80516  0.63729  0.96877  1.0000
  C   C11       1.0  0.89923  0.7087000000000001  0.00089  1.0000
  C   C12       1.0  0.96996  0.7345500000000003  0.9306999999999999  1.0000
  C   C13       1.0  0.9457599999999994  0.68312  0.82658  1.0000
  C   C14       1.0  0.7344899999999999  0.6073900000000002  0.04527  1.0000
  C   C15       1.0  0.68203  0.48798  0.03532  1.0000
  C   C16       1.0  0.61238  0.4599  0.10390999999999997  1.0000
  C   C17       1.0  0.58816  0.55308  0.18388  1.0000
  C   C18       1.0  0.64626  0.6683200000000002  0.20035  1.0000
  C   C19       1.0  0.71846  0.69301  0.13104  1.0000
  C   C20       1.0  0.63144  0.7622500000000001  0.28845  1.0000
  C   C21       1.0  0.07196999999999988  0.8051700000000002  0.9668899999999998  1.0000
  C   C22       1.0  0.12082000000000004  0.824  0.07908  1.0000
  C   C23       1.0  0.22295  0.87911  0.11382999999999999  1.0000
  C   C24       1.0  0.28791999999999995  0.9166500000000001  0.03966  1.0000
  C   C25       1.0  0.23851000000000003  0.8995  0.92593  1.0000
  C   C26       1.0  0.1311  0.8487600000000001  0.89302  1.0000
  C   C27       1.0  0.30458  0.9173800000000003  0.8434099999999999  1.0000
  C   C28       1.0  0.28914999999999996  0.7417200000000003  0.47182  1.0000
  C   C29       1.0  0.23412999999999992  0.6174800000000003  0.45182  1.0000
  C   C30       1.0  0.18765000000000004  0.55892  0.53184  1.0000
  C   C31       1.0  0.14219  0.43605000000000005  0.51044  1.0000
  C   C32       1.0  0.13594999999999996  0.37854000000000004  0.41075999999999996  1.0000
  C   C33       1.0  0.174  0.44045  0.3265799999999999  1.0000
  C   C34       1.0  0.22588999999999998  0.5573  0.3509999999999999  1.0000
  C   C35       1.0  0.15270000000000003  0.38811  0.21625999999999995  1.0000
  C   C36       1.0  0.22337999999999994  0.40876  0.14448  1.0000
  C   C37       1.0  0.19590999999999995  0.3668  0.03744  1.0000
  C   C38       1.0  0.10158000000000002  0.29564  0.00562  1.0000
  C   C39       1.0  0.031199999999999995  0.26998000000000005  0.07612  1.0000
  C   C40       1.0  0.05587999999999999  0.32128  0.18011  1.0000
  C   C41       1.0  0.2655999999999999  0.3972300000000002  0.96022  1.0000
  C   C42       1.0  0.31864999999999993  0.51612  0.97053  1.0000
  C   C43       1.0  0.38812  0.5442800000000002  0.9018099999999999  1.0000
  C   C44       1.0  0.4117899999999999  0.45166000000000006  0.8214499999999999  1.0000
  C   C45       1.0  0.35365  0.33634000000000003  0.8049  1.0000
  C   C46       1.0  0.2809  0.3123099999999999  0.87393  1.0000
  C   C47       1.0  0.36899000000000004  0.24173000000000003  0.71719  1.0000
  C   C48       1.0  0.92873  0.19993  0.040709999999999996  1.0000
  C   C49       1.0  0.87886  0.18199000000000004  0.9286299999999998  1.0000
  C   C50       1.0  0.7761699999999999  0.12779000000000001  0.8943299999999998  1.0000
  C   C51       1.0  0.71185  0.09006999999999998  0.96881  1.0000
  C   C52       1.0  0.76263  0.10575  0.08266  1.0000
  C   C53       1.0  0.87053  0.15593000000000007  0.11515  1.0000
  C   C54       1.0  0.69794  0.08670000000000004  0.1659  1.0000
  O   O1        1.0  0.69911  0.21505000000000005  0.43979999999999997  1.0000
  O   O2        1.0  0.67835  0.2065800000000001  0.6137199999999999  1.0000
  O   O3        1.0  0.5113600000000001  0.52786  0.24314  1.0000
  O   O4        1.0  0.5419300000000001  0.75744  0.33306  1.0000
  O   O5        1.0  0.7085399999999998  0.83811  0.31742  1.0000
  O   O6        1.0  0.38588000000000006  0.96416  0.08071  1.0000
  O   O7        1.0  0.41588  0.93553  0.8685499999999999  1.0000
  O   O8        1.0  0.24856999999999999  0.9067400000000001  0.74196  1.0000
  O   O9        1.0  0.8159199999999999  0.38588999999999996  0.3798399999999999  1.0000
  O   O10       1.0  0.61936  0.9569300000000001  0.49406  1.0000
  O   O11       1.0  0.29639  0.7904300000000001  0.56682  1.0000
  O   O12       1.0  0.32714000000000004  0.7925  0.3965  1.0000
  O   O13       1.0  0.4878899999999999  0.4782  0.7617899999999997  1.0000
  O   O14       1.0  0.45777999999999996  0.24795000000000003  0.67194  1.0000
  O   O15       1.0  0.29256999999999994  0.1648  0.68846  1.0000
  O   O16       1.0  0.6132799999999999  0.04354000000000005  0.9273299999999998  1.0000
  O   O17       1.0  0.58561  0.07117  0.14117999999999997  1.0000
  O   O18       1.0  0.7562  0.09317000000000002  0.26775999999999994  1.0000
  O   O19       1.0  0.1839899999999999  0.6147500000000001  0.6279299999999999  1.0000
  O   O20       1.0  0.38508  0.042820000000000025  0.5150799999999999  1.0000
