data_image0
_chemical_formula_structural       Zn4H44C56N8O16
_chemical_formula_sum              "Zn4 H44 C56 N8 O16"
_cell_length_a       7.46566
_cell_length_b       16.09271
_cell_length_c       16.03075
_cell_angle_alpha    114.18576000000002
_cell_angle_beta     92.82045
_cell_angle_gamma    100.55916

_symmetry_space_group_name_H-M    'P 1'
_symmetry_Int_Tables_number       1

loop_
  _symmetry_equiv_pos_as_xyz
  'x,y,z'

loop_
  _atom_site_type_symbol
  _atom_site_label
  _atom_site_symmetry_multiplicity
  _atom_site_fract_x
  _atom_site_fract_y
  _atom_site_fract_z
  _atom_site_occupancy
  Zn  Zn1       1.0  0.87581  0.44146  0.25815  1.0000
  Zn  Zn2       1.0  0.6703  0.21702  0.00975  1.0000
  Zn  Zn3       1.0  0.12419  0.55854  0.74185  1.0000
  Zn  Zn4       1.0  0.3296999999999999  0.78298  0.99025  1.0000
  H   H1        1.0  0.28197  0.33662  0.18345  1.0000
  H   H2        1.0  0.8470399999999998  0.08611999999999999  0.28554  1.0000
  H   H3        1.0  0.8073  0.06467  0.16658  1.0000
  H   H4        1.0  0.7432  0.16219  0.25248  1.0000
  H   H5        1.0  0.37655  0.19999  0.44046  1.0000
  H   H6        1.0  0.5494299999999998  0.29553  0.44337  1.0000
  H   H7        1.0  0.5533799999999998  0.18045  0.36837  1.0000
  H   H8        1.0  0.95892  0.38662000000000013  0.41276  1.0000
  H   H9        1.0  0.22841000000000003  0.41393  0.52454  1.0000
  H   H10       1.0  0.54859  0.56708  0.39212000000000014  1.0000
  H   H11       1.0  0.26003  0.54073  0.29317  1.0000
  H   H12       1.0  0.05613999999999999  0.87842  0.52982  1.0000
  H   H13       1.0  0.06183999999999998  0.75826  0.49868  1.0000
  H   H14       1.0  0.8555999999999998  0.7864200000000002  0.47504  1.0000
  H   H15       1.0  0.2707600000000001  0.03155000000000005  0.39056000000000013  1.0000
  H   H16       1.0  0.16607  0.0025800000000000232  0.27748000000000006  1.0000
  H   H17       1.0  0.39333999999999997  0.99099  0.29273  1.0000
  H   H18       1.0  0.08678999999999999  0.65334  0.16598  1.0000
  H   H19       1.0  0.52391  0.12316000000000002  0.12096  1.0000
  H   H20       1.0  0.24173  0.00961  0.10893  1.0000
  H   H21       1.0  0.9833099999999998  0.08854  0.91231  1.0000
  H   H22       1.0  0.27847  0.19649000000000005  0.93062  1.0000
  H   H23       1.0  0.71802  0.66338  0.81655  1.0000
  H   H24       1.0  0.15296000000000012  0.9138900000000002  0.71446  1.0000
  H   H25       1.0  0.19269999999999998  0.9353300000000001  0.83342  1.0000
  H   H26       1.0  0.2568000000000001  0.8378100000000004  0.74751  1.0000
  H   H27       1.0  0.62344  0.80001  0.55954  1.0000
  H   H28       1.0  0.4505699999999999  0.70447  0.5566300000000001  1.0000
  H   H29       1.0  0.44661999999999996  0.81955  0.63163  1.0000
  H   H30       1.0  0.0410800000000001  0.6133800000000003  0.5872400000000001  1.0000
  H   H31       1.0  0.77158  0.5860800000000004  0.4754600000000001  1.0000
  H   H32       1.0  0.45140999999999987  0.43292  0.60788  1.0000
  H   H33       1.0  0.73997  0.45927999999999997  0.70683  1.0000
  H   H34       1.0  0.9438599999999998  0.12159000000000003  0.47018  1.0000
  H   H35       1.0  0.9381599999999998  0.24175000000000005  0.50131  1.0000
  H   H36       1.0  0.14439999999999997  0.21359  0.52496  1.0000
  H   H37       1.0  0.72924  0.96845  0.60944  1.0000
  H   H38       1.0  0.8339299999999998  0.9974200000000004  0.7225200000000003  1.0000
  H   H39       1.0  0.60665  0.009020000000000004  0.70727  1.0000
  H   H40       1.0  0.9132099999999997  0.34666  0.83402  1.0000
  H   H41       1.0  0.4760900000000001  0.8768400000000002  0.87904  1.0000
  H   H42       1.0  0.75826  0.9904  0.89107  1.0000
  H   H43       1.0  0.01668999999999998  0.91146  0.08769  1.0000
  H   H44       1.0  0.7215300000000001  0.8035200000000002  0.06938  1.0000
  C   C1        1.0  0.5810300000000002  0.33179000000000003  0.2811500000000001  1.0000
  C   C2        1.0  0.38519999999999993  0.2856100000000001  0.2766  1.0000
  C   C3        1.0  0.24719  0.29161  0.21842  1.0000
  C   C4        1.0  0.06862000000000003  0.23880000000000004  0.20376  1.0000
  C   C5        1.0  0.03181000000000005  0.1799700000000001  0.24956000000000006  1.0000
  C   C6        1.0  0.84608  0.11881  0.23759  1.0000
  C   C7        1.0  0.3338  0.23155999999999996  0.3261  1.0000
  C   C8        1.0  0.4606699999999999  0.22711000000000003  0.39920000000000005  1.0000
  C   C9        1.0  0.09181000000000006  0.42820000000000014  0.41317  1.0000
  C   C10       1.0  0.24564  0.44249  0.4738100000000001  1.0000
  C   C11       1.0  0.4162999999999999  0.49315  0.46894  1.0000
  C   C12       1.0  0.4214799999999999  0.52917  0.40234000000000003  1.0000
  C   C13       1.0  0.26116  0.5138000000000003  0.34542  1.0000
  C   C14       1.0  0.9370899999999999  0.6214600000000002  0.30068  1.0000
  C   C15       1.0  0.029050000000000166  0.7144800000000002  0.30553  1.0000
  C   C16       1.0  0.05496000000000009  0.79947  0.38611000000000006  1.0000
  C   C17       1.0  0.005260000000000014  0.80636  0.47795  1.0000
  C   C18       1.0  0.18794000000000005  0.88606  0.30851  1.0000
  C   C19       1.0  0.26001000000000013  0.9831900000000002  0.3178100000000001  1.0000
  C   C20       1.0  0.17864000000000005  0.80353  0.22704  1.0000
  C   C21       1.0  0.0980100000000001  0.7180900000000002  0.22742  1.0000
  C   C22       1.0  0.24561999999999998  0.8029  0.14146  1.0000
  C   C23       1.0  0.92508  0.24496000000000007  0.14077000000000006  1.0000
  C   C24       1.0  0.40076  0.11271000000000003  0.07537  1.0000
  C   C25       1.0  0.24074  0.04890000000000001  0.06768  1.0000
  C   C26       1.0  0.08536  0.03517  0.0064  1.0000
  C   C27       1.0  0.09939  0.09143000000000004  0.95799  1.0000
  C   C28       1.0  0.26391  0.15348  0.96863  1.0000
  C   C29       1.0  0.41897  0.66821  0.71885  1.0000
  C   C30       1.0  0.61479  0.7144  0.7234  1.0000
  C   C31       1.0  0.7528000000000001  0.70839  0.7815800000000003  1.0000
  C   C32       1.0  0.9313799999999998  0.7612100000000003  0.79624  1.0000
  C   C33       1.0  0.9681899999999999  0.8200300000000001  0.7504400000000002  1.0000
  C   C34       1.0  0.15392  0.88119  0.76241  1.0000
  C   C35       1.0  0.6662000000000001  0.7684400000000002  0.6739  1.0000
  C   C36       1.0  0.5393299999999998  0.77289  0.6008  1.0000
  C   C37       1.0  0.9081799999999999  0.5718  0.58683  1.0000
  C   C38       1.0  0.7543600000000001  0.5575200000000002  0.52619  1.0000
  C   C39       1.0  0.58369  0.50685  0.53105  1.0000
  C   C40       1.0  0.57852  0.47083  0.59766  1.0000
  C   C41       1.0  0.73884  0.48621  0.65458  1.0000
  C   C42       1.0  0.0629  0.37855  0.69932  1.0000
  C   C43       1.0  0.97094  0.2855200000000001  0.69447  1.0000
  C   C44       1.0  0.9450299999999998  0.20052999999999999  0.61389  1.0000
  C   C45       1.0  0.9947399999999997  0.19364000000000003  0.52205  1.0000
  C   C46       1.0  0.81205  0.11393999999999996  0.69149  1.0000
  C   C47       1.0  0.7399899999999999  0.01681999999999998  0.68219  1.0000
  C   C48       1.0  0.82135  0.19648  0.77296  1.0000
  C   C49       1.0  0.90198  0.28191  0.77258  1.0000
  C   C50       1.0  0.7543700000000001  0.1971  0.85854  1.0000
  C   C51       1.0  0.07491000000000005  0.7550400000000002  0.8592300000000002  1.0000
  C   C52       1.0  0.5992299999999998  0.88729  0.92463  1.0000
  C   C53       1.0  0.75926  0.9511000000000001  0.93232  1.0000
  C   C54       1.0  0.91464  0.9648300000000002  0.9936  1.0000
  C   C55       1.0  0.9005999999999998  0.9085700000000002  0.04201  1.0000
  C   C56       1.0  0.7360799999999997  0.84652  0.03137  1.0000
  N   N1        1.0  0.09849000000000001  0.46364  0.35002  1.0000
  N   N2        1.0  0.16085999999999998  0.18055999999999997  0.31138  1.0000
  N   N3        1.0  0.13196999999999995  0.88186  0.38554  1.0000
  N   N4        1.0  0.41476  0.16343  0.025400000000000002  1.0000
  N   N5        1.0  0.9015099999999996  0.53636  0.64997  1.0000
  N   N6        1.0  0.8391399999999998  0.81944  0.68862  1.0000
  N   N7        1.0  0.8680299999999997  0.11814999999999995  0.61446  1.0000
  N   N8        1.0  0.5852299999999998  0.83657  0.9746  1.0000
  O   O1        1.0  0.70896  0.30648  0.31169000000000013  1.0000
  O   O2        1.0  0.6086099999999998  0.39475  0.24918  1.0000
  O   O3        1.0  0.9097300000000001  0.3229800000000001  0.14063  1.0000
  O   O4        1.0  0.95924  0.5491000000000003  0.22895  1.0000
  O   O5        1.0  0.84656  0.61477  0.36266  1.0000
  O   O6        1.0  0.8173699999999998  0.16889  0.08236  1.0000
  O   O7        1.0  0.27328  0.8761700000000002  0.12639  1.0000
  O   O8        1.0  0.27266000000000007  0.7256500000000002  0.07874  1.0000
  O   O9        1.0  0.29103000000000007  0.69352  0.68831  1.0000
  O   O10       1.0  0.39138  0.60525  0.75082  1.0000
  O   O11       1.0  0.09027000000000021  0.6770200000000004  0.8593700000000002  1.0000
  O   O12       1.0  0.04075  0.45091000000000003  0.7710500000000001  1.0000
  O   O13       1.0  0.15344  0.38523  0.63734  1.0000
  O   O14       1.0  0.18263000000000007  0.8311100000000002  0.91764  1.0000
  O   O15       1.0  0.7267200000000001  0.12383000000000008  0.87361  1.0000
  O   O16       1.0  0.7273299999999998  0.27435000000000004  0.92126  1.0000
