data_image0
_chemical_formula_structural       Ni6H36C60N12O24
_chemical_formula_sum              "Ni6 H36 C60 N12 O24"
_cell_length_a       6.82982
_cell_length_b       20.28668
_cell_length_c       19.78024
_cell_angle_alpha    114.36136999999998
_cell_angle_beta     90.09286999999999
_cell_angle_gamma    89.83231

_symmetry_space_group_name_H-M    'P 1'
_symmetry_Int_Tables_number       1

loop_
  _symmetry_equiv_pos_as_xyz
  'x,y,z'

loop_
  _atom_site_type_symbol
  _atom_site_label
  _atom_site_symmetry_multiplicity
  _atom_site_fract_x
  _atom_site_fract_y
  _atom_site_fract_z
  _atom_site_occupancy
  Ni  Ni1       1.0  0.50989  0.13182000000000005  0.41932000000000014  1.0000
  Ni  Ni2       1.0  0.50982  0.36804  0.5787800000000002  1.0000
  Ni  Ni3       1.0  0.49012  0.86819  0.5807  1.0000
  Ni  Ni4       1.0  0.49019  0.6319700000000003  0.42123  1.0000
  Ni  Ni5       1.0  0.39708  0.25149000000000005  0.9992300000000001  1.0000
  Ni  Ni6       1.0  0.60277  0.74853  0.0008200000000000002  1.0000
  H   H1        1.0  0.50422  0.41225000000000006  0.43612  1.0000
  H   H2        1.0  0.44340999999999997  0.4093800000000001  0.21874000000000002  1.0000
  H   H3        1.0  0.46808999999999995  0.20835  0.24348000000000003  1.0000
  H   H4        1.0  0.19768  0.12990000000000004  0.5247  1.0000
  H   H5        1.0  0.8222099999999999  0.1308100000000001  0.5247600000000001  1.0000
  H   H6        1.0  0.82169  0.13057  0.31539  1.0000
  H   H7        1.0  0.19862  0.13004000000000002  0.3154  1.0000
  H   H8        1.0  0.08698  0.3434  0.09588  1.0000
  H   H9        1.0  0.71764  0.34443  0.09485000000000003  1.0000
  H   H10       1.0  0.50467  0.08792999999999997  0.56339  1.0000
  H   H11       1.0  0.44395999999999997  0.09232999999999998  0.78135  1.0000
  H   H12       1.0  0.4696  0.29255000000000003  0.7553000000000001  1.0000
  H   H13       1.0  0.19664999999999996  0.37009  0.47415000000000007  1.0000
  H   H14       1.0  0.82112  0.36882000000000004  0.47395000000000004  1.0000
  H   H15       1.0  0.82257  0.36903  0.68331  1.0000
  H   H16       1.0  0.19947  0.36994  0.68345  1.0000
  H   H17       1.0  0.08763  0.1526100000000001  0.9043800000000001  1.0000
  H   H18       1.0  0.71805  0.15174999999999997  0.90541  1.0000
  H   H19       1.0  0.49571  0.58781  0.56392  1.0000
  H   H20       1.0  0.55688  0.59058  0.7813  1.0000
  H   H21       1.0  0.53209  0.7916300000000001  0.7566  1.0000
  H   H22       1.0  0.8022999999999999  0.87009  0.47533000000000003  1.0000
  H   H23       1.0  0.17776  0.86916  0.47526000000000007  1.0000
  H   H24       1.0  0.17828  0.86942  0.68465  1.0000
  H   H25       1.0  0.80136  0.86996  0.68463  1.0000
  H   H26       1.0  0.9137  0.6568100000000001  0.9040100000000001  1.0000
  H   H27       1.0  0.28305  0.6557300000000001  0.90513  1.0000
  H   H28       1.0  0.49517  0.91217  0.4367  1.0000
  H   H29       1.0  0.55629  0.90767  0.21871  1.0000
  H   H30       1.0  0.53058  0.70749  0.24492  1.0000
  H   H31       1.0  0.80334  0.62999  0.52583  1.0000
  H   H32       1.0  0.17884  0.63127  0.5260300000000001  1.0000
  H   H33       1.0  0.1774  0.6310500000000001  0.31666  1.0000
  H   H34       1.0  0.80052  0.63014  0.31653000000000003  1.0000
  H   H35       1.0  0.91312  0.84752  0.09571  1.0000
  H   H36       1.0  0.28274  0.84836  0.09462  1.0000
  C   C1        1.0  0.48275  0.4988800000000001  0.3639700000000001  1.0000
  C   C2        1.0  0.47586  0.41834000000000005  0.33046  1.0000
  C   C3        1.0  0.49027  0.3812400000000001  0.37637  1.0000
  C   C4        1.0  0.45546999999999993  0.37984  0.2536  1.0000
  C   C5        1.0  0.5029  0.26598  0.3953000000000001  1.0000
  C   C6        1.0  0.48689  0.30537  0.34543  1.0000
  C   C7        1.0  0.4687  0.26719  0.26835000000000003  1.0000
  C   C8        1.0  0.45198  0.30403  0.22222000000000003  1.0000
  C   C9        1.0  0.43568  0.26053  0.13986  1.0000
  C   C10       1.0  0.11242  0.13076  0.47858  1.0000
  C   C11       1.0  0.90787  0.13120000000000004  0.47863  1.0000
  C   C12       1.0  0.90777  0.13095  0.36188  1.0000
  C   C13       1.0  0.1125  0.13056  0.36183  1.0000
  C   C14       1.0  0.00539  0.30086  0.05254000000000002  1.0000
  C   C15       1.0  0.7989999999999999  0.30109  0.0521  1.0000
  C   C16       1.0  0.48293  0.001510000000000008  0.63625  1.0000
  C   C17       1.0  0.47666  0.08215999999999996  0.66929  1.0000
  C   C18       1.0  0.49094  0.11897  0.62313  1.0000
  C   C19       1.0  0.4564  0.12129000000000001  0.746  1.0000
  C   C20       1.0  0.50339  0.23335  0.603  1.0000
  C   C21       1.0  0.48784  0.19485  0.65363  1.0000
  C   C22       1.0  0.47008  0.23369000000000004  0.73063  1.0000
  C   C23       1.0  0.45316  0.19711000000000015  0.7768900000000002  1.0000
  C   C24       1.0  0.43601999999999996  0.24014000000000002  0.85906  1.0000
  C   C25       1.0  0.11177  0.36915  0.52023  1.0000
  C   C26       1.0  0.9072699999999999  0.36849000000000004  0.5201000000000001  1.0000
  C   C27       1.0  0.9082  0.3687100000000001  0.6368300000000002  1.0000
  C   C28       1.0  0.11297  0.36933  0.63697  1.0000
  C   C29       1.0  0.00569  0.19512  0.94772  1.0000
  C   C30       1.0  0.7993599999999998  0.19496  0.94816  1.0000
  C   C31       1.0  0.51727  0.50114  0.63604  1.0000
  C   C32       1.0  0.5243  0.58168  0.66957  1.0000
  C   C33       1.0  0.50985  0.61879  0.62367  1.0000
  C   C34       1.0  0.54472  0.62015  0.74646  1.0000
  C   C35       1.0  0.49712  0.7340300000000001  0.60474  1.0000
  C   C36       1.0  0.51322  0.6946500000000002  0.6546100000000002  1.0000
  C   C37       1.0  0.53143  0.73281  0.7317000000000002  1.0000
  C   C38       1.0  0.54826  0.69597  0.7778300000000001  1.0000
  C   C39       1.0  0.56461  0.73955  0.8602  1.0000
  C   C40       1.0  0.88757  0.8692400000000001  0.52145  1.0000
  C   C41       1.0  0.09211999999999998  0.8688  0.52141  1.0000
  C   C42       1.0  0.09223  0.86906  0.63816  1.0000
  C   C43       1.0  0.8875  0.86945  0.63821  1.0000
  C   C44       1.0  0.99523  0.6993200000000002  0.9474200000000002  1.0000
  C   C45       1.0  0.20162  0.69905  0.94788  1.0000
  C   C46       1.0  0.51711  0.99854  0.36386000000000013  1.0000
  C   C47       1.0  0.52345  0.9178900000000001  0.3308100000000001  1.0000
  C   C48       1.0  0.50914  0.88107  0.37697  1.0000
  C   C49       1.0  0.54367  0.87875  0.25409  1.0000
  C   C50       1.0  0.49662  0.7667000000000002  0.39711000000000013  1.0000
  C   C51       1.0  0.51223  0.8052000000000001  0.3464600000000001  1.0000
  C   C52       1.0  0.52997  0.7663400000000001  0.26944000000000007  1.0000
  C   C53       1.0  0.54696  0.8029300000000001  0.22317000000000004  1.0000
  C   C54       1.0  0.56422  0.75999  0.14097  1.0000
  C   C55       1.0  0.88823  0.63091  0.47975000000000007  1.0000
  C   C56       1.0  0.09272  0.63157  0.47988000000000003  1.0000
  C   C57       1.0  0.09179  0.63135  0.36314  1.0000
  C   C58       1.0  0.88703  0.63073  0.36301  1.0000
  C   C59       1.0  0.99497  0.8050100000000001  0.05232  1.0000
  C   C60       1.0  0.20129  0.8051800000000001  0.05188  1.0000
  N   N1        1.0  0.21211  0.13184000000000007  0.4207700000000001  1.0000
  N   N2        1.0  0.8082599999999999  0.13268000000000005  0.4208800000000001  1.0000
  N   N3        1.0  0.21203  0.36825  0.57809  1.0000
  N   N4        1.0  0.80821  0.36697  0.57781  1.0000
  N   N5        1.0  0.7878899999999999  0.8681800000000001  0.5792700000000001  1.0000
  N   N6        1.0  0.19173  0.86735  0.57917  1.0000
  N   N7        1.0  0.7879799999999999  0.63181  0.42189  1.0000
  N   N8        1.0  0.19178  0.63309  0.42216  1.0000
  N   N9        1.0  0.10948  0.24768000000000004  0.0004800000000000001  1.0000
  N   N10       1.0  0.69569  0.24777  0.00049  1.0000
  N   N11       1.0  0.8912  0.7524900000000001  0.9995100000000001  1.0000
  N   N12       1.0  0.30494000000000004  0.75236  0.99952  1.0000
  O   O1        1.0  0.48581  0.5334100000000002  0.4346800000000001  1.0000
  O   O2        1.0  0.48552  0.53362  0.32257  1.0000
  O   O3        1.0  0.50469  0.19658000000000006  0.3632900000000001  1.0000
  O   O4        1.0  0.51407  0.30322  0.46443  1.0000
  O   O5        1.0  0.4004599999999999  0.30069000000000007  0.10225000000000001  1.0000
  O   O6        1.0  0.45638999999999996  0.19403  0.11119000000000001  1.0000
  O   O7        1.0  0.48573  0.9666000000000001  0.5656200000000002  1.0000
  O   O8        1.0  0.48547999999999997  0.96708  0.67802  1.0000
  O   O9        1.0  0.50501  0.30274  0.63423  1.0000
  O   O10       1.0  0.5141  0.19515000000000002  0.53409  1.0000
  O   O11       1.0  0.3996799999999999  0.19999  0.89614  1.0000
  O   O12       1.0  0.45693  0.3067200000000001  0.8888  1.0000
  O   O13       1.0  0.51417  0.46658000000000005  0.56532  1.0000
  O   O14       1.0  0.51447  0.46642  0.67746  1.0000
  O   O15       1.0  0.49524999999999997  0.80343  0.6367300000000001  1.0000
  O   O16       1.0  0.48599  0.6967600000000002  0.53561  1.0000
  O   O17       1.0  0.59991  0.6993500000000001  0.8977700000000001  1.0000
  O   O18       1.0  0.54366  0.80602  0.88886  1.0000
  O   O19       1.0  0.51425  0.03345  0.43448  1.0000
  O   O20       1.0  0.51455  0.03298000000000002  0.32209  1.0000
  O   O21       1.0  0.49494  0.69731  0.36594  1.0000
  O   O22       1.0  0.48596  0.80499  0.46602  1.0000
  O   O23       1.0  0.60082  0.80015  0.10393000000000001  1.0000
  O   O24       1.0  0.54295  0.69343  0.11114000000000003  1.0000
