data_image0
_chemical_formula_structural       Cd8H32C64Cl8O32
_chemical_formula_sum              "Cd8 H32 C64 Cl8 O32"
_cell_length_a       17.69001
_cell_length_b       18.9589
_cell_length_c       18.96395
_cell_angle_alpha    90.00579999999998
_cell_angle_beta     90.06491
_cell_angle_gamma    90.01791

_symmetry_space_group_name_H-M    'P 1'
_symmetry_Int_Tables_number       1

loop_
  _symmetry_equiv_pos_as_xyz
  'x,y,z'

loop_
  _atom_site_type_symbol
  _atom_site_label
  _atom_site_symmetry_multiplicity
  _atom_site_fract_x
  _atom_site_fract_y
  _atom_site_fract_z
  _atom_site_occupancy
  Cd  Cd1       1.0  0.00497  0.56833  0.43301000000000006  1.0000
  Cd  Cd2       1.0  0.00527  0.93165  0.06678  1.0000
  Cd  Cd3       1.0  0.50473  0.56719  0.06824  1.0000
  Cd  Cd4       1.0  0.50527  0.93313  0.43166  1.0000
  Cd  Cd5       1.0  0.99545  0.43174000000000007  0.56717  1.0000
  Cd  Cd6       1.0  0.99473  0.06849  0.93322  1.0000
  Cd  Cd7       1.0  0.49533000000000005  0.43284  0.9317399999999999  1.0000
  Cd  Cd8       1.0  0.4948  0.06675  0.56841  1.0000
  H   H1        1.0  0.80199  0.69831  0.53149  1.0000
  H   H2        1.0  0.82369  0.72519  0.30721  1.0000
  H   H3        1.0  0.70792  0.80356  0.30658  1.0000
  H   H4        1.0  0.68847  0.779  0.53154  1.0000
  H   H5        1.0  0.80204  0.80166  0.96858  1.0000
  H   H6        1.0  0.82397  0.77484  0.19293  1.0000
  H   H7        1.0  0.70812  0.69666  0.19337  1.0000
  H   H8        1.0  0.68848  0.7211600000000001  0.96838  1.0000
  H   H9        1.0  0.3016  0.46828  0.19857  1.0000
  H   H10       1.0  0.32353  0.69268  0.22519  1.0000
  H   H11       1.0  0.20792  0.69331  0.30357  1.0000
  H   H12       1.0  0.18825  0.46831  0.27922  1.0000
  H   H13       1.0  0.30211  0.03149  0.30179  1.0000
  H   H14       1.0  0.3239  0.80709  0.2749  1.0000
  H   H15       1.0  0.20811  0.80655  0.19651  1.0000
  H   H16       1.0  0.18857  0.0316  0.22107  1.0000
  H   H17       1.0  0.19839  0.30160000000000003  0.46836  1.0000
  H   H18       1.0  0.17668  0.27491  0.6927  1.0000
  H   H19       1.0  0.2922  0.19622  0.69329  1.0000
  H   H20       1.0  0.31161  0.22064  0.46835000000000004  1.0000
  H   H21       1.0  0.19799  0.19843  0.03143  1.0000
  H   H22       1.0  0.17599  0.22531  0.8071  1.0000
  H   H23       1.0  0.29197  0.30338000000000004  0.80666  1.0000
  H   H24       1.0  0.31162  0.27884  0.03159  1.0000
  H   H25       1.0  0.69842  0.5317  0.80139  1.0000
  H   H26       1.0  0.6765  0.30728  0.77477  1.0000
  H   H27       1.0  0.7921  0.30668  0.69635  1.0000
  H   H28       1.0  0.81177  0.53167  0.72072  1.0000
  H   H29       1.0  0.69785  0.96855  0.69826  1.0000
  H   H30       1.0  0.67606  0.19294  0.72521  1.0000
  H   H31       1.0  0.79199  0.19344  0.80345  1.0000
  H   H32       1.0  0.81148  0.9684300000000001  0.77884  1.0000
  C   C1        1.0  0.81887  0.70805  0.41936  1.0000
  C   C2        1.0  0.88668  0.6621  0.42004  1.0000
  C   C3        1.0  0.78101  0.72213  0.48310000000000003  1.0000
  C   C4        1.0  0.79311  0.7373600000000001  0.35544  1.0000
  C   C5        1.0  0.7294299999999999  0.78029  0.3551  1.0000
  C   C6        1.0  0.69234  0.79524  0.41908  1.0000
  C   C7        1.0  0.62532  0.8422400000000001  0.41989  1.0000
  C   C8        1.0  0.7184  0.76635  0.48306999999999994  1.0000
  C   C9        1.0  0.81909  0.79178  0.08063  1.0000
  C   C10       1.0  0.88688  0.83771  0.07987  1.0000
  C   C11       1.0  0.78105  0.77785  0.01692  1.0000
  C   C12       1.0  0.79337  0.7627  0.14462  1.0000
  C   C13       1.0  0.72963  0.71983  0.14488  1.0000
  C   C14       1.0  0.69245  0.70478  0.08088  1.0000
  C   C15       1.0  0.62539  0.65776  0.08011  1.0000
  C   C16       1.0  0.71842  0.73366  0.01691  1.0000
  C   C17       1.0  0.31857  0.58055  0.20803  1.0000
  C   C18       1.0  0.38628999999999997  0.57992  0.16199  1.0000
  C   C19       1.0  0.28071  0.51675  0.22224000000000002  1.0000
  C   C20       1.0  0.29291  0.64444  0.23734999999999998  1.0000
  C   C21       1.0  0.22935  0.64476  0.28037  1.0000
  C   C22       1.0  0.19223  0.58078  0.2954  1.0000
  C   C23       1.0  0.12522  0.58005  0.34236  1.0000
  C   C24       1.0  0.21822  0.51679  0.26655  1.0000
  C   C25       1.0  0.31911  0.91942  0.29185  1.0000
  C   C26       1.0  0.38693  0.9201099999999999  0.33779  1.0000
  C   C27       1.0  0.2811  0.98313  0.27793  1.0000
  C   C28       1.0  0.29332  0.8553800000000001  0.26274  1.0000
  C   C29       1.0  0.22959000000000002  0.85505  0.21983  1.0000
  C   C30       1.0  0.19247  0.91906  0.20483  1.0000
  C   C31       1.0  0.12542  0.91988  0.15778  1.0000
  C   C32       1.0  0.21846  0.9830900000000001  0.23372  1.0000
  C   C33       1.0  0.18151  0.29191  0.58057  1.0000
  C   C34       1.0  0.11365000000000001  0.33771  0.57988  1.0000
  C   C35       1.0  0.21933  0.27785  0.5168  1.0000
  C   C36       1.0  0.20725  0.26267  0.64449  1.0000
  C   C37       1.0  0.27082  0.21964  0.64482  1.0000
  C   C38       1.0  0.30782  0.20463  0.58083  1.0000
  C   C39       1.0  0.37478  0.15762  0.58007  1.0000
  C   C40       1.0  0.28182  0.23351  0.51683  1.0000
  C   C41       1.0  0.18086  0.20831  0.91934  1.0000
  C   C42       1.0  0.1131  0.16236  0.92014  1.0000
  C   C43       1.0  0.21892  0.22223000000000004  0.98307  1.0000
  C   C44       1.0  0.20661  0.23744000000000004  0.8553999999999999  1.0000
  C   C45       1.0  0.2704  0.28025  0.85516  1.0000
  C   C46       1.0  0.30762  0.29524  0.9191399999999998  1.0000
  C   C47       1.0  0.37468  0.34227  0.91991  1.0000
  C   C48       1.0  0.2816  0.26637  0.9830899999999999  1.0000
  C   C49       1.0  0.68144  0.41942  0.79193  1.0000
  C   C50       1.0  0.61386  0.42002  0.83816  1.0000
  C   C51       1.0  0.71928  0.48323  0.77769  1.0000
  C   C52       1.0  0.70709  0.35553  0.76258  1.0000
  C   C53       1.0  0.77065  0.35522  0.71956  1.0000
  C   C54       1.0  0.80777  0.41921  0.70455  1.0000
  C   C55       1.0  0.8748099999999999  0.41995  0.65761  1.0000
  C   C56       1.0  0.7817700000000001  0.4832000000000001  0.73338  1.0000
  C   C57       1.0  0.68089  0.08063  0.70822  1.0000
  C   C58       1.0  0.61311  0.07989  0.66226  1.0000
  C   C59       1.0  0.71888  0.0169  0.7221  1.0000
  C   C60       1.0  0.7066599999999998  0.14465  0.73734  1.0000
  C   C61       1.0  0.77043  0.14495  0.78019  1.0000
  C   C62       1.0  0.80755  0.08094  0.79517  1.0000
  C   C63       1.0  0.8746  0.08012  0.84221  1.0000
  C   C64       1.0  0.78154  0.01694  0.76628  1.0000
  Cl  Cl1       1.0  0.07918  0.5405  0.54659  1.0000
  Cl  Cl2       1.0  0.07898  0.96014  0.95332  1.0000
  Cl  Cl3       1.0  0.57891  0.4537  0.04047  1.0000
  Cl  Cl4       1.0  0.579  0.04666  0.46007999999999993  1.0000
  Cl  Cl5       1.0  0.9212599999999999  0.45968  0.45373  1.0000
  Cl  Cl6       1.0  0.9210299999999999  0.04002  0.04663  1.0000
  Cl  Cl7       1.0  0.4211  0.54635  0.95952  1.0000
  Cl  Cl8       1.0  0.42103  0.9532300000000001  0.53996  1.0000
  O   O1        1.0  0.9229  0.65344  0.4781  1.0000
  O   O2        1.0  0.90867  0.63128  0.3642  1.0000
  O   O3        1.0  0.61006  0.88209  0.36777  1.0000
  O   O4        1.0  0.5829  0.84301  0.47471  1.0000
  O   O5        1.0  0.9229999999999999  0.84652  0.02184  1.0000
  O   O6        1.0  0.90902  0.86839  0.13576  1.0000
  O   O7        1.0  0.61016  0.61796  0.13225  1.0000
  O   O8        1.0  0.58281  0.65703  0.02531  1.0000
  O   O9        1.0  0.42226  0.5218  0.15341  1.0000
  O   O10       1.0  0.40861  0.6357100000000001  0.13119  1.0000
  O   O11       1.0  0.11002  0.63226  0.38211  1.0000
  O   O12       1.0  0.08267  0.52527  0.34308  1.0000
  O   O13       1.0  0.42346  0.9780099999999999  0.34647  1.0000
  O   O14       1.0  0.40875  0.8642  0.36861  1.0000
  O   O15       1.0  0.11016  0.86777  0.11789  1.0000
  O   O16       1.0  0.08293  0.97469  0.15705  1.0000
  O   O17       1.0  0.07815  0.34679  0.52158  1.0000
  O   O18       1.0  0.09098  0.36802  0.6358  1.0000
  O   O19       1.0  0.39001  0.11782  0.63224  1.0000
  O   O20       1.0  0.41725  0.15689  0.5253  1.0000
  O   O21       1.0  0.07728  0.15348  0.9782999999999998  1.0000
  O   O22       1.0  0.0908  0.13171  0.86428  1.0000
  O   O23       1.0  0.38991  0.38204  0.8677499999999999  1.0000
  O   O24       1.0  0.41727  0.34302  0.9747  1.0000
  O   O25       1.0  0.57782  0.47813000000000005  0.8465999999999999  1.0000
  O   O26       1.0  0.59173  0.36433  0.8692799999999999  1.0000
  O   O27       1.0  0.88999  0.36776  0.61786  1.0000
  O   O28       1.0  0.9173800000000001  0.4747199999999999  0.65695  1.0000
  O   O29       1.0  0.57682  0.02188  0.65348  1.0000
  O   O30       1.0  0.59108  0.13578  0.63153  1.0000
  O   O31       1.0  0.88984  0.13226  0.8821  1.0000
  O   O32       1.0  0.9171000000000001  0.02532  0.84297  1.0000
