data_image0
_chemical_formula_structural       Zn4H48C36N16O12
_chemical_formula_sum              "Zn4 H48 C36 N16 O12"
_cell_length_a       8.96609
_cell_length_b       10.86407
_cell_length_c       14.83402
_cell_angle_alpha    96.88266999999999
_cell_angle_beta     89.92895
_cell_angle_gamma    90.21919

_space_group_name_H-M_alt    "P 1"
_space_group_IT_number       1

loop_
  _space_group_symop_operation_xyz
  'x, y, z'

loop_
  _atom_site_type_symbol
  _atom_site_label
  _atom_site_symmetry_multiplicity
  _atom_site_fract_x
  _atom_site_fract_y
  _atom_site_fract_z
  _atom_site_occupancy
  Zn  Zn1       1.0  0.25564  0.06905  0.28719  1.0000
  Zn  Zn2       1.0  0.75126  0.36653  0.18396  1.0000
  Zn  Zn3       1.0  0.75772  0.93139  0.71523  1.0000
  Zn  Zn4       1.0  0.24931  0.63282  0.81625  1.0000
  H   H1        1.0  0.13059  0.41606  0.76515  1.0000
  H   H2        1.0  0.14453  0.4971100000000001  0.6789200000000002  1.0000
  H   H3        1.0  0.56967  0.17616000000000004  0.27844  1.0000
  H   H4        1.0  0.23331999999999997  0.17156  0.08044000000000001  1.0000
  H   H5        1.0  0.56802  0.51932  0.06757  1.0000
  H   H6        1.0  0.35865  0.3213  0.97208  1.0000
  H   H7        1.0  0.55705  0.32431  0.97565  1.0000
  H   H8        1.0  0.25738  0.59313  0.29532  1.0000
  H   H9        1.0  0.14211000000000001  0.63858  0.21027  1.0000
  H   H10       1.0  0.12221000000000001  0.87073  0.20344  1.0000
  H   H11       1.0  0.29871  0.87332  0.17313  1.0000
  H   H12       1.0  0.18906  0.80307  0.34789000000000003  1.0000
  H   H13       1.0  0.37863  0.80833  0.31296  1.0000
  H   H14       1.0  0.24227999999999997  0.72577  0.6150900000000002  1.0000
  H   H15       1.0  0.23802  0.50101  0.09963  1.0000
  H   H16       1.0  0.61371  0.03200999999999999  0.54519  1.0000
  H   H17       1.0  0.29362  0.04650000000000002  0.5991000000000002  1.0000
  H   H18       1.0  0.38985  0.36412  0.75529  1.0000
  H   H19       1.0  0.40949  0.45087000000000005  0.6627800000000001  1.0000
  H   H20       1.0  0.5629  0.77102  0.82362  1.0000
  H   H21       1.0  0.2022  0.22380000000000003  0.66553  1.0000
  H   H22       1.0  0.21656  0.31729  0.57575  1.0000
  H   H23       1.0  0.37298  0.83637  0.49406  1.0000
  H   H24       1.0  0.56912  0.8194600000000001  0.4957300000000001  1.0000
  H   H25       1.0  0.63124  0.5824299999999999  0.235  1.0000
  H   H26       1.0  0.64464  0.50113  0.32108  1.0000
  H   H27       1.0  0.07029  0.8226700000000001  0.72186  1.0000
  H   H28       1.0  0.73425  0.8285000000000001  0.92071  1.0000
  H   H29       1.0  0.06704  0.4817  0.93183  1.0000
  H   H30       1.0  0.85734  0.67766  0.02845  1.0000
  H   H31       1.0  0.05584999999999999  0.67572  0.02539  1.0000
  H   H32       1.0  0.75546  0.40689000000000003  0.705  1.0000
  H   H33       1.0  0.64028  0.35997999999999997  0.79012  1.0000
  H   H34       1.0  0.62236  0.12828  0.79756  1.0000
  H   H35       1.0  0.79896  0.12900000000000006  0.8277900000000002  1.0000
  H   H36       1.0  0.68756  0.19556000000000007  0.6526200000000002  1.0000
  H   H37       1.0  0.87743  0.19266  0.68694  1.0000
  H   H38       1.0  0.74266  0.27532  0.38573  1.0000
  H   H39       1.0  0.73694  0.49915000000000004  0.90021  1.0000
  H   H40       1.0  0.1129  0.96909  0.45594  1.0000
  H   H41       1.0  0.79326  0.95338  0.40093  1.0000
  H   H42       1.0  0.89042  0.63633  0.24553  1.0000
  H   H43       1.0  0.90878  0.5499  0.33819  1.0000
  H   H44       1.0  0.06374  0.22864  0.17718  1.0000
  H   H45       1.0  0.70093  0.775  0.33403  1.0000
  H   H46       1.0  0.7145  0.68212  0.42409  1.0000
  H   H47       1.0  0.87209  0.16331  0.50695  1.0000
  H   H48       1.0  0.0682  0.18133  0.50498  1.0000
  C   C1        1.0  0.50795  0.19973  0.22012  1.0000
  C   C2        1.0  0.33522  0.19739000000000004  0.11711000000000003  1.0000
  C   C3        1.0  0.44737  0.2759  0.09515  1.0000
  C   C4        1.0  0.44011  0.54866  0.95045  1.0000
  C   C5        1.0  0.45825  0.49122000000000005  0.03969  1.0000
  C   C6        1.0  0.45553  0.34782  0.01563  1.0000
  C   C7        1.0  0.25107  0.65711  0.24301  1.0000
  C   C8        1.0  0.26412  0.78979  0.2893  1.0000
  C   C9        1.0  0.45846  0.82658  0.6239  1.0000
  C   C10       1.0  0.34260000000000007  0.7564600000000001  0.65202  1.0000
  C   C11       1.0  0.48002  0.025220000000000013  0.42477  1.0000
  C   C12       1.0  0.49863  0.006620000000000007  0.5258  1.0000
  C   C13       1.0  0.37678  0.62415  0.17531  1.0000
  C   C14       1.0  0.33115  0.39398  0.69684  1.0000
  C   C15       1.0  0.50594  0.78153  0.76078  1.0000
  C   C16       1.0  0.27881  0.28262  0.63156  1.0000
  C   C17       1.0  0.4747  0.8672  0.53179  1.0000
  C   C18       1.0  0.40799  0.20849  0.58687  1.0000
  C   C19       1.0  0.00854  0.79969  0.7805  1.0000
  C   C20       1.0  0.83605  0.80271  0.88403  1.0000
  C   C21       1.0  0.94729  0.7240700000000001  0.90579  1.0000
  C   C22       1.0  0.93862  0.45074000000000003  0.0494  1.0000
  C   C23       1.0  0.95739  0.50876  0.96031  1.0000
  C   C24       1.0  0.9546599999999998  0.65194  0.98512  1.0000
  C   C25       1.0  0.74925  0.34266  0.75715  1.0000
  C   C26       1.0  0.76296  0.21008  0.71094  1.0000
  C   C27       1.0  0.95756  0.1739  0.37704  1.0000
  C   C28       1.0  0.84279  0.24433000000000002  0.34887  1.0000
  C   C29       1.0  0.9773099999999999  0.97481  0.57595  1.0000
  C   C30       1.0  0.9975400000000001  0.9936900000000001  0.4749  1.0000
  C   C31       1.0  0.87489  0.3760800000000001  0.8248  1.0000
  C   C32       1.0  0.83079  0.60592  0.30363  1.0000
  C   C33       1.0  0.00631  0.21853000000000003  0.24005  1.0000
  C   C34       1.0  0.7773  0.71701  0.36837  1.0000
  C   C35       1.0  0.9737  0.13309  0.46906  1.0000
  C   C36       1.0  0.9065900000000001  0.79167  0.41286  1.0000
  N   N1        1.0  0.20335  0.47135000000000005  0.73276  1.0000
  N   N2        1.0  0.37353  0.72791  0.73854  1.0000
  N   N3        1.0  0.37391  0.14944  0.19635  1.0000
  N   N4        1.0  0.55676  0.27687  0.16151  1.0000
  N   N5        1.0  0.22838000000000003  0.88483  0.22802  1.0000
  N   N6        1.0  0.56214  0.84291  0.69418  1.0000
  N   N7        1.0  0.34676  0.53386  0.10723  1.0000
  N   N8        1.0  0.39596  0.08309  0.58411  1.0000
  N   N9        1.0  0.70374  0.52746  0.26736  1.0000
  N   N10       1.0  0.87452  0.27253  0.26226  1.0000
  N   N11       1.0  0.87522  0.85031  0.80463  1.0000
  N   N12       1.0  0.0565  0.72268  0.83917  1.0000
  N   N13       1.0  0.72866  0.11537  0.77299  1.0000
  N   N14       1.0  0.061290000000000004  0.15724000000000002  0.30682000000000004  1.0000
  N   N15       1.0  0.84571  0.46658  0.8926500000000003  1.0000
  N   N16       1.0  0.8954199999999999  0.9170500000000001  0.41592  1.0000
  O   O1        1.0  0.30945  0.5926100000000001  0.93679  1.0000
  O   O2        1.0  0.54696  0.54517  0.8956  1.0000
  O   O3        1.0  0.34725  0.06028000000000002  0.4049100000000001  1.0000
  O   O4        1.0  0.50146  0.67729  0.18604000000000004  1.0000
  O   O5        1.0  0.58527  0.9998  0.37051  1.0000
  O   O6        1.0  0.51708  0.2603  0.55514  1.0000
  O   O7        1.0  0.8074  0.40682000000000007  0.06295  1.0000
  O   O8        1.0  0.04472  0.4544500000000001  0.1046  1.0000
  O   O9        1.0  0.84396  0.93964  0.59534  1.0000
  O   O10       1.0  0.9989300000000001  0.32249000000000005  0.8141600000000002  1.0000
  O   O11       1.0  0.08173  0.00032000000000001146  0.63088  1.0000
  O   O12       1.0  0.015269999999999999  0.7397800000000001  0.44422  1.0000
