data_image0
_chemical_formula_structural       Cu2Si2H20W24C24N8O60
_chemical_formula_sum              "Cu2 Si2 H20 W24 C24 N8 O60"
_cell_length_a       9.92477
_cell_length_b       12.9817
_cell_length_c       18.73204
_cell_angle_alpha    97.50919
_cell_angle_beta     90.27775
_cell_angle_gamma    112.14008

_symmetry_space_group_name_H-M    'P 1'
_symmetry_Int_Tables_number       1

loop_
  _symmetry_equiv_pos_as_xyz
  'x,y,z'

loop_
  _atom_site_type_symbol
  _atom_site_label
  _atom_site_symmetry_multiplicity
  _atom_site_fract_x
  _atom_site_fract_y
  _atom_site_fract_z
  _atom_site_occupancy
  Cu  Cu1       1.0  0.0019799999999999917  0.0005599999999999843  0.99976  1.0000
  Cu  Cu2       1.0  0.99323  0.0014199999999999866  0.50098  1.0000
  Si  Si1       1.0  0.43926  0.0035399999999999997  0.25211  1.0000
  Si  Si2       1.0  0.5750499999999998  0.004259999999999997  0.74295  1.0000
  H   H1        1.0  0.42659  0.38396  0.59926  1.0000
  H   H2        1.0  0.28059  0.20961  0.52995  1.0000
  H   H3        1.0  0.95673  0.3829  0.10147  1.0000
  H   H4        1.0  0.9269599999999999  0.20739000000000002  0.03377  1.0000
  H   H5        1.0  0.31566000000000005  0.47993000000000013  0.40185  1.0000
  H   H6        1.0  0.6676  0.59904  0.04164  1.0000
  H   H7        1.0  0.86501  0.19444  0.46503  1.0000
  H   H8        1.0  0.06766000000000004  0.41133  0.46202  1.0000
  H   H9        1.0  0.9261499999999999  0.59915  0.54903  1.0000
  H   H10       1.0  0.08333000000000006  0.7913700000000001  0.97325  1.0000
  H   H11       1.0  0.6937  0.81964  0.04388  1.0000
  H   H12       1.0  0.04328999999999989  0.6141299999999998  0.9016599999999999  1.0000
  H   H13       1.0  0.12586  0.81426  0.54337  1.0000
  H   H14       1.0  0.71542  0.7893  0.46254999999999996  1.0000
  H   H15       1.0  0.33260000000000006  0.40191000000000004  0.95693  1.0000
  H   H16       1.0  0.56823  0.61921  0.4017499999999999  1.0000
  H   H17       1.0  0.15469  0.47191  0.90205  1.0000
  H   H18       1.0  0.84637  0.52528  0.10127999999999998  1.0000
  H   H19       1.0  0.3161  0.18401999999999996  0.9578899999999999  1.0000
  H   H20       1.0  0.67931  0.52375  0.59928  1.0000
  W   W1        1.0  0.70826  0.04487  0.12967  1.0000
  W   W2        1.0  0.27346000000000015  0.8047000000000002  0.7057599999999999  1.0000
  W   W3        1.0  0.31833  0.7521  0.33954  1.0000
  W   W4        1.0  0.1386  0.9401800000000001  0.37816  1.0000
  W   W5        1.0  0.66487  0.95149  0.36883999999999995  1.0000
  W   W6        1.0  0.29092999999999997  0.9573199999999998  0.86307  1.0000
  W   W7        1.0  0.18122  0.03636000000000001  0.11362999999999998  1.0000
  W   W8        1.0  0.73395  0.8137900000000001  0.71966  1.0000
  W   W9        1.0  0.78451  0.21744  0.29358  1.0000
  W   W10       1.0  0.54843  0.22682  0.16186  1.0000
  W   W11       1.0  0.84385  0.016580000000000004  0.61191  1.0000
  W   W12       1.0  0.42192999999999997  0.21366999999999992  0.7773099999999997  1.0000
  W   W13       1.0  0.82409  0.98193  0.8897699999999998  1.0000
  W   W14       1.0  0.5666700000000001  0.7826500000000001  0.20903999999999995  1.0000
  W   W15       1.0  0.65864  0.18003  0.8971899999999999  1.0000
  W   W16       1.0  0.27498  0.17756  0.2874  1.0000
  W   W17       1.0  0.48969999999999997  0.1561  0.41563  1.0000
  W   W18       1.0  0.3344  0.83123  0.08107  1.0000
  W   W19       1.0  0.46586  0.76754  0.84877  1.0000
  W   W20       1.0  0.93246  0.20409  0.78588  1.0000
  W   W21       1.0  0.69083  0.22236  0.65638  1.0000
  W   W22       1.0  0.09543999999999997  0.82908  0.22564999999999996  1.0000
  W   W23       1.0  0.46980999999999995  0.81535  0.59367  1.0000
  W   W24       1.0  0.34865  0.04654999999999999  0.61101  1.0000
  C   C1        1.0  0.7712600000000001  0.7813300000000001  0.02973  1.0000
  C   C2        1.0  0.60045  0.51259  0.55553  1.0000
  C   C3        1.0  0.19372  0.23339000000000004  0.51303  1.0000
  C   C4        1.0  0.06421999999999996  0.42064  0.00221  1.0000
  C   C5        1.0  0.03625000000000003  0.23024000000000003  0.01586  1.0000
  C   C6        1.0  0.8014  0.7672600000000002  0.4827699999999999  1.0000
  C   C7        1.0  0.08037000000000001  0.33674000000000004  0.47529  1.0000
  C   C8        1.0  0.026160000000000024  0.56429  0.9456299999999999  1.0000
  C   C9        1.0  0.53644  0.56873  0.44541  1.0000
  C   C10       1.0  0.91072  0.51163  0.05684999999999999  1.0000
  C   C11       1.0  0.45806  0.43528  0.55601  1.0000
  C   C12       1.0  0.24667999999999998  0.32887  0.97203  1.0000
  C   C13       1.0  0.63902  0.57933  0.5003699999999999  1.0000
  C   C14       1.0  0.75736  0.67207  0.029179999999999998  1.0000
  C   C15       1.0  0.97451  0.43281000000000003  0.05747  1.0000
  C   C16       1.0  0.93716  0.57714  0.00099  1.0000
  C   C17       1.0  0.23747  0.22100999999999998  0.9729699999999999  1.0000
  C   C18       1.0  0.9730999999999999  0.77009  0.9897499999999999  1.0000
  C   C19       1.0  0.39409999999999995  0.4914700000000001  0.44592  1.0000
  C   C20       1.0  0.35546  0.42499  0.50125  1.0000
  C   C21       1.0  0.010680000000000031  0.77754  0.52817  1.0000
  C   C22       1.0  0.9125900000000002  0.6709400000000002  0.53156  1.0000
  C   C23       1.0  0.98172  0.22921  0.47649  1.0000
  C   C24       1.0  0.09032000000000004  0.48589  0.94634  1.0000
  N   N1        1.0  0.1051  0.16041  0.0  1.0000
  N   N2        1.0  0.7798899999999999  0.6653900000000001  0.50233  1.0000
  N   N3        1.0  0.8860099999999999  0.6659  0.0033299999999999996  1.0000
  N   N4        1.0  0.93953  0.8369200000000001  0.49794999999999995  1.0000
  N   N5        1.0  0.21458  0.33848  0.49918999999999997  1.0000
  N   N6        1.0  0.05478999999999999  0.16542  0.49923  1.0000
  N   N7        1.0  0.90677  0.8414100000000001  0.00553  1.0000
  N   N8        1.0  0.11858999999999999  0.33356  0.99979  1.0000
  O   O1        1.0  0.40864999999999996  0.09382  0.31321  1.0000
  O   O2        1.0  0.56209  0.08831  0.20705  1.0000
  O   O3        1.0  0.67912  0.23863  0.37092  1.0000
  O   O4        1.0  0.42649  0.69829  0.26547  1.0000
  O   O5        1.0  0.13554  0.06429  0.33445  1.0000
  O   O6        1.0  0.50696  0.16219  0.57726  1.0000
  O   O7        1.0  0.30553  0.088  0.81799  1.0000
  O   O8        1.0  0.77895  0.13417  0.60022  1.0000
  O   O9        1.0  0.24816  0.92092  0.66606  1.0000
  O   O10       1.0  0.053609999999999956  0.9230100000000001  0.16278  1.0000
  O   O11       1.0  0.57201  0.04803000000000001  0.41915  1.0000
  O   O12       1.0  0.4923900000000001  0.9200600000000002  0.28758999999999996  1.0000
  O   O13       1.0  0.6730100000000001  0.9370800000000001  0.71342  1.0000
  O   O14       1.0  0.315  0.14433  0.68533  1.0000
  O   O15       1.0  0.29545000000000005  0.9339600000000001  0.20005  1.0000
  O   O16       1.0  0.8457999999999999  0.88322  0.80744  1.0000
  O   O17       1.0  0.77266  0.08022  0.32615  1.0000
  O   O18       1.0  0.6725899999999999  0.9153  0.56819  1.0000
  O   O19       1.0  0.6612299999999999  0.17295000000000002  0.09922  1.0000
  O   O20       1.0  0.16299000000000002  0.75109  0.11284999999999999  1.0000
  O   O21       1.0  0.4122700000000001  0.9254600000000002  0.56483  1.0000
  O   O22       1.0  0.83297  0.03747  0.06788  1.0000
  O   O23       1.0  0.69376  0.84684  0.29952  1.0000
  O   O24       1.0  0.16643000000000002  0.96147  0.92549  1.0000
  O   O25       1.0  0.83786  0.14827  0.20340999999999998  1.0000
  O   O26       1.0  0.9840000000000001  0.8329900000000001  0.30084  1.0000
  O   O27       1.0  0.86656  0.8967700000000001  0.65499  1.0000
  O   O28       1.0  0.36592  0.15746000000000004  0.10905  1.0000
  O   O29       1.0  0.20064999999999997  0.8227800000000001  0.39249999999999996  1.0000
  O   O30       1.0  0.167  0.14522  0.20366  1.0000
  O   O31       1.0  0.19979  0.025399999999999995  0.55524  1.0000
  O   O32       1.0  0.6768499999999998  0.09144999999999993  0.8081699999999998  1.0000
  O   O33       1.0  0.85066  0.28146  0.7196499999999999  1.0000
  O   O34       1.0  0.18503000000000003  0.7385500000000002  0.26153  1.0000
  O   O35       1.0  0.27059  0.72053  0.6172399999999999  1.0000
  O   O36       1.0  0.5784499999999999  0.28433  0.72277  1.0000
  O   O37       1.0  0.47546999999999995  0.06415  0.91044  1.0000
  O   O38       1.0  0.42707  0.92713  0.77473  1.0000
  O   O39       1.0  0.5242  0.94865  0.07979  1.0000
  O   O40       1.0  0.55488  0.26234  0.86602  1.0000
  O   O41       1.0  0.40188999999999997  0.25006  0.3940499999999999  1.0000
  O   O42       1.0  0.95293  0.10167999999999998  0.8435  1.0000
  O   O43       1.0  0.75363  0.08361  0.93423  1.0000
  O   O44       1.0  0.49028999999999995  0.82268  0.3970499999999999  1.0000
  O   O45       1.0  0.84713  0.26621  0.86498  1.0000
  O   O46       1.0  0.68841  0.91806  0.17493999999999998  1.0000
  O   O47       1.0  0.6455200000000002  0.8614300000000003  0.90158  1.0000
  O   O48       1.0  0.43966999999999995  0.75985  0.12939999999999996  1.0000
  O   O49       1.0  0.25295999999999996  0.94193  0.061939999999999995  1.0000
  O   O50       1.0  0.44585  0.26068  0.23998  1.0000
  O   O51       1.0  0.5737500000000001  0.7476400000000001  0.64008  1.0000
  O   O52       1.0  0.35378  0.84162  0.89461  1.0000
  O   O53       1.0  0.3190799999999999  0.7164899999999998  0.7660499999999998  1.0000
  O   O54       1.0  0.5823400000000001  0.7327600000000001  0.77914  1.0000
  O   O55       1.0  0.30487  0.04106000000000001  0.42919  1.0000
  O   O56       1.0  0.72264  0.29513  0.23548  1.0000
  O   O57       1.0  0.16847000000000004  0.8493  0.79062  1.0000
  O   O58       1.0  0.94798  0.11724  0.69733  1.0000
  O   O59       1.0  0.79161  0.96308  0.43599  1.0000
  O   O60       1.0  0.5420999999999999  0.07351000000000003  0.68347  1.0000
