data_image0
_chemical_formula_structural       Gd4P4H44C28N4O20
_chemical_formula_sum              "Gd4 P4 H44 C28 N4 O20"
_cell_length_a       4.19428
_cell_length_b       13.92085
_cell_length_c       20.45872
_cell_angle_alpha    90.10245000000002
_cell_angle_beta     87.33518
_cell_angle_gamma    89.84723999999999

_symmetry_space_group_name_H-M    'P 1'
_symmetry_Int_Tables_number       1

loop_
  _symmetry_equiv_pos_as_xyz
  'x,y,z'

loop_
  _atom_site_type_symbol
  _atom_site_label
  _atom_site_symmetry_multiplicity
  _atom_site_fract_x
  _atom_site_fract_y
  _atom_site_fract_z
  _atom_site_occupancy
  Gd  Gd1       1.0  0.73033  0.11123  0.9563  1.0000
  Gd  Gd2       1.0  0.26407  0.6112200000000001  0.54378  1.0000
  Gd  Gd3       1.0  0.26968  0.88878  0.0437  1.0000
  Gd  Gd4       1.0  0.7359400000000003  0.38878  0.45622000000000007  1.0000
  P   P1        1.0  0.84956  0.05658  0.09827000000000001  1.0000
  P   P2        1.0  0.15014000000000002  0.55661  0.4016799999999999  1.0000
  P   P3        1.0  0.15044000000000005  0.94343  0.9017199999999999  1.0000
  P   P4        1.0  0.84986  0.44339  0.59832  1.0000
  H   H1        1.0  0.69149  0.97443  0.19652  1.0000
  H   H2        1.0  0.4421800000000002  0.07798  0.19579  1.0000
  H   H3        1.0  0.68334  0.09082  0.31351  1.0000
  H   H4        1.0  0.92795  0.98774  0.29313  1.0000
  H   H5        1.0  0.12892  0.08789  0.38211  1.0000
  H   H6        1.0  0.40154000000000023  0.08534  0.31168  1.0000
  H   H7        1.0  0.9017300000000004  0.24436  0.33646  1.0000
  H   H8        1.0  0.20897000000000002  0.32426000000000005  0.24322000000000002  1.0000
  H   H9        1.0  0.44994000000000006  0.21975  0.23224000000000003  1.0000
  H   H10       1.0  0.98228  0.21831  0.16165  1.0000
  H   H11       1.0  0.73159  0.23292  0.23441  1.0000
  H   H12       1.0  0.3139  0.47447  0.30369  1.0000
  H   H13       1.0  0.5590800000000002  0.57851  0.3048  1.0000
  H   H14       1.0  0.3186  0.58939  0.18664  1.0000
  H   H15       1.0  0.07576  0.4867  0.20741999999999997  1.0000
  H   H16       1.0  0.8728400000000002  0.58591  0.11811999999999999  1.0000
  H   H17       1.0  0.60038  0.58497  0.18862  1.0000
  H   H18       1.0  0.10270000000000001  0.7422  0.16348  1.0000
  H   H19       1.0  0.7915100000000003  0.82401  0.25611  1.0000
  H   H20       1.0  0.55196  0.7196  0.26707  1.0000
  H   H21       1.0  0.020540000000000003  0.71907  0.33814  1.0000
  H   H22       1.0  0.27017  0.73238  0.26523  1.0000
  H   H23       1.0  0.30852  0.02558  0.80348  1.0000
  H   H24       1.0  0.55783  0.92203  0.8042  1.0000
  H   H25       1.0  0.31667000000000006  0.90919  0.68649  1.0000
  H   H26       1.0  0.07205  0.01226  0.70687  1.0000
  H   H27       1.0  0.87109  0.91211  0.61789  1.0000
  H   H28       1.0  0.5984700000000001  0.91466  0.68832  1.0000
  H   H29       1.0  0.09827000000000002  0.75564  0.66354  1.0000
  H   H30       1.0  0.7910400000000001  0.67574  0.75678  1.0000
  H   H31       1.0  0.5500600000000002  0.78025  0.76776  1.0000
  H   H32       1.0  0.017719999999999996  0.7817  0.83834  1.0000
  H   H33       1.0  0.26842  0.7670900000000003  0.76558  1.0000
  H   H34       1.0  0.6861000000000003  0.52553  0.69631  1.0000
  H   H35       1.0  0.4409200000000002  0.4215  0.69519  1.0000
  H   H36       1.0  0.68141  0.4106100000000001  0.81335  1.0000
  H   H37       1.0  0.92425  0.51331  0.79258  1.0000
  H   H38       1.0  0.12715999999999997  0.4141000000000001  0.88188  1.0000
  H   H39       1.0  0.39963  0.41503000000000007  0.8113799999999999  1.0000
  H   H40       1.0  0.8973000000000002  0.25781  0.8365200000000002  1.0000
  H   H41       1.0  0.20849  0.17599  0.74389  1.0000
  H   H42       1.0  0.44804  0.28041  0.73293  1.0000
  H   H43       1.0  0.9794600000000001  0.28094  0.66186  1.0000
  H   H44       1.0  0.7298300000000002  0.26763  0.73476  1.0000
  C   C1        1.0  0.69938  0.05157000000000001  0.18481  1.0000
  C   C2        1.0  0.92449  0.06664  0.29026  1.0000
  C   C3        1.0  0.15743  0.11149  0.33091  1.0000
  C   C4        1.0  0.1498  0.22152000000000005  0.32384  1.0000
  C   C5        1.0  0.20803000000000002  0.24627000000000004  0.25156  1.0000
  C   C6        1.0  0.9643800000000001  0.20023  0.21385  1.0000
  C   C7        1.0  0.3313200000000001  0.27561  0.37163  1.0000
  C   C8        1.0  0.3029800000000002  0.55163  0.31544  1.0000
  C   C9        1.0  0.07773  0.56565  0.20997  1.0000
  C   C10       1.0  0.84456  0.61033  0.1692  1.0000
  C   C11       1.0  0.8542  0.72046  0.17594  1.0000
  C   C12       1.0  0.7942  0.74593  0.24809999999999996  1.0000
  C   C13       1.0  0.03769999999999999  0.70017  0.28602  1.0000
  C   C14       1.0  0.6742700000000001  0.77529  0.12817  1.0000
  C   C15       1.0  0.30061999999999994  0.94844  0.81518  1.0000
  C   C16       1.0  0.07550999999999998  0.9333700000000001  0.70974  1.0000
  C   C17       1.0  0.8425699999999999  0.88852  0.66909  1.0000
  C   C18       1.0  0.8502099999999999  0.77849  0.67616  1.0000
  C   C19       1.0  0.7919700000000003  0.75374  0.74844  1.0000
  C   C20       1.0  0.035620000000000006  0.79977  0.78615  1.0000
  C   C21       1.0  0.66868  0.72439  0.62837  1.0000
  C   C22       1.0  0.69703  0.44837  0.68455  1.0000
  C   C23       1.0  0.9222700000000004  0.43436  0.7900199999999998  1.0000
  C   C24       1.0  0.15544999999999998  0.38967  0.83079  1.0000
  C   C25       1.0  0.1458100000000001  0.27954  0.82405  1.0000
  C   C26       1.0  0.2058  0.25408  0.7519  1.0000
  C   C27       1.0  0.9623100000000001  0.29984  0.71398  1.0000
  C   C28       1.0  0.3257400000000002  0.22472  0.87183  1.0000
  N   N1        1.0  0.9520500000000001  0.09464  0.22077000000000002  1.0000
  N   N2        1.0  0.05017999999999999  0.5945000000000001  0.27936  1.0000
  N   N3        1.0  0.04796000000000001  0.90537  0.77922  1.0000
  N   N4        1.0  0.94983  0.40551  0.72063  1.0000
  O   O1        1.0  0.7456800000000002  0.9766  0.04539  1.0000
  O   O2        1.0  0.7915  0.15211  0.06406  1.0000
  O   O3        1.0  0.20440000000000005  0.0282  0.10619000000000002  1.0000
  O   O4        1.0  0.2179  0.28524  0.43159  1.0000
  O   O5        1.0  0.5878699999999999  0.31888  0.35365  1.0000
  O   O6        1.0  0.25506000000000006  0.4767  0.45451  1.0000
  O   O7        1.0  0.20701  0.65226  0.43597  1.0000
  O   O8        1.0  0.79608  0.52807  0.39356  1.0000
  O   O9        1.0  0.79244  0.78546  0.06861  1.0000
  O   O10       1.0  0.41568  0.81825  0.14595  1.0000
  O   O11       1.0  0.25433000000000006  0.02341  0.9546099999999998  1.0000
  O   O12       1.0  0.20850000000000002  0.8478900000000001  0.93594  1.0000
  O   O13       1.0  0.7956  0.9718  0.8938  1.0000
  O   O14       1.0  0.7821  0.71477  0.56841  1.0000
  O   O15       1.0  0.41213000000000005  0.6811300000000002  0.64635  1.0000
  O   O16       1.0  0.7449400000000004  0.52331  0.54548  1.0000
  O   O17       1.0  0.79299  0.34775  0.56403  1.0000
  O   O18       1.0  0.20392  0.47194000000000014  0.60644  1.0000
  O   O19       1.0  0.20757  0.21454  0.93138  1.0000
  O   O20       1.0  0.5843200000000001  0.18176  0.85405  1.0000
