data_image0
_chemical_formula_structural       Cu4Ag12H32C40N28
_chemical_formula_sum              "Cu4 Ag12 H32 C40 N28"
_cell_length_a       9.3718
_cell_length_b       11.86117
_cell_length_c       18.36121
_cell_angle_alpha    89.99107
_cell_angle_beta     91.68087999999999
_cell_angle_gamma    89.96377

_symmetry_space_group_name_H-M    'P 1'
_symmetry_Int_Tables_number       1

loop_
  _symmetry_equiv_pos_as_xyz
  'x,y,z'

loop_
  _atom_site_type_symbol
  _atom_site_label
  _atom_site_symmetry_multiplicity
  _atom_site_fract_x
  _atom_site_fract_y
  _atom_site_fract_z
  _atom_site_occupancy
  Cu  Cu1       1.0  0.14459999999999998  0.20761999999999994  0.5161699999999999  1.0000
  Cu  Cu2       1.0  0.8541699999999998  0.70637  0.98351  1.0000
  Cu  Cu3       1.0  0.85541  0.79237  0.48383  1.0000
  Cu  Cu4       1.0  0.14583999999999994  0.29363  0.01649  1.0000
  Ag  Ag1       1.0  0.62526  0.43467999999999996  0.51693  1.0000
  Ag  Ag2       1.0  0.88987  0.36311  0.2615  1.0000
  Ag  Ag3       1.0  0.9272999999999998  0.41324  0.7627799999999999  1.0000
  Ag  Ag4       1.0  0.3741  0.9347  0.9843599999999999  1.0000
  Ag  Ag5       1.0  0.10973999999999999  0.86253  0.23906  1.0000
  Ag  Ag6       1.0  0.07272  0.91352  0.7378999999999998  1.0000
  Ag  Ag7       1.0  0.37475  0.56532  0.48307  1.0000
  Ag  Ag8       1.0  0.11014  0.63688  0.7384999999999999  1.0000
  Ag  Ag9       1.0  0.07270999999999998  0.58675  0.23722  1.0000
  Ag  Ag10      1.0  0.62591  0.0653  0.01564  1.0000
  Ag  Ag11      1.0  0.8902699999999999  0.13746  0.76094  1.0000
  Ag  Ag12      1.0  0.92729  0.08648  0.2620999999999999  1.0000
  H   H1        1.0  0.9481699999999997  0.35774  0.48216  1.0000
  H   H2        1.0  0.10682  0.40692  0.4608599999999999  1.0000
  H   H3        1.0  0.05861999999999999  0.4075  0.54682  1.0000
  H   H4        1.0  0.17506  0.9739399999999999  0.4443599999999999  1.0000
  H   H5        1.0  0.30834  0.79614  0.47237  1.0000
  H   H6        1.0  0.45605999999999997  0.78367  0.588  1.0000
  H   H7        1.0  0.4618  0.95173  0.67238  1.0000
  H   H8        1.0  0.3252699999999999  0.12474  0.6350599999999998  1.0000
  H   H9        1.0  0.05205  0.8556199999999998  0.017489999999999995  1.0000
  H   H10       1.0  0.8938199999999998  0.90527  0.03912  1.0000
  H   H11       1.0  0.9418  0.9062699999999998  0.9531099999999999  1.0000
  H   H12       1.0  0.8236799999999997  0.47378  0.055159999999999994  1.0000
  H   H13       1.0  0.6907599999999998  0.29581  0.02753  1.0000
  H   H14       1.0  0.54349  0.28263  0.91175  1.0000
  H   H15       1.0  0.5371499999999999  0.45039999999999997  0.8271199999999997  1.0000
  H   H16       1.0  0.67312  0.62373  0.86417  1.0000
  H   H17       1.0  0.051829999999999994  0.64226  0.51784  1.0000
  H   H18       1.0  0.8931899999999998  0.59308  0.5391399999999998  1.0000
  H   H19       1.0  0.9413899999999998  0.5925  0.45318  1.0000
  H   H20       1.0  0.82495  0.02605  0.55564  1.0000
  H   H21       1.0  0.6916699999999998  0.20385  0.52763  1.0000
  H   H22       1.0  0.54395  0.21632999999999994  0.41199999999999987  1.0000
  H   H23       1.0  0.5382099999999997  0.048269999999999987  0.32762  1.0000
  H   H24       1.0  0.67474  0.87526  0.36493999999999993  1.0000
  H   H25       1.0  0.94796  0.14437  0.9825099999999999  1.0000
  H   H26       1.0  0.10619  0.09473  0.96088  1.0000
  H   H27       1.0  0.05821  0.09373  0.04689  1.0000
  H   H28       1.0  0.17632  0.5262199999999999  0.9448399999999999  1.0000
  H   H29       1.0  0.3092499999999999  0.70419  0.97247  1.0000
  H   H30       1.0  0.45652  0.7173599999999998  0.08825  1.0000
  H   H31       1.0  0.46285999999999994  0.5496  0.17288  1.0000
  H   H32       1.0  0.32688999999999996  0.37626999999999994  0.13583  1.0000
  C   C1        1.0  0.43329  0.34774  0.52592  1.0000
  C   C2        1.0  0.97267  0.16951999999999998  0.6613299999999998  1.0000
  C   C3        1.0  0.80211  0.39923  0.3596699999999999  1.0000
  C   C4        1.0  0.014979999999999999  0.13131  0.36146  1.0000
  C   C5        1.0  0.8361599999999998  0.45542999999999995  0.6635799999999997  1.0000
  C   C6        1.0  0.24108  0.96587  0.49365  1.0000
  C   C7        1.0  0.31507  0.86691  0.51004  1.0000
  C   C8        1.0  0.39684999999999987  0.86014  0.57449  1.0000
  C   C9        1.0  0.40054  0.95318  0.62111  1.0000
  C   C10       1.0  0.32477  0.04979  0.60092  1.0000
  C   C11       1.0  0.5658799999999999  0.84759  0.97381  1.0000
  C   C12       1.0  0.02566999999999999  0.6691099999999999  0.83785  1.0000
  C   C13       1.0  0.19644999999999996  0.89927  0.14092  1.0000
  C   C14       1.0  0.98405  0.63154  0.13809  1.0000
  C   C15       1.0  0.16314999999999996  0.9547699999999999  0.83741  1.0000
  C   C16       1.0  0.75788  0.46531999999999996  0.005839999999999998  1.0000
  C   C17       1.0  0.6841799999999999  0.36626999999999993  0.9895999999999999  1.0000
  C   C18       1.0  0.6026399999999998  0.35917  0.9250699999999997  1.0000
  C   C19       1.0  0.59859  0.45209999999999995  0.8783399999999999  1.0000
  C   C20       1.0  0.67404  0.54885  0.8984  1.0000
  C   C21       1.0  0.56672  0.65225  0.47408  1.0000
  C   C22       1.0  0.02734  0.8304799999999998  0.33867  1.0000
  C   C23       1.0  0.19789999999999996  0.60077  0.6403299999999998  1.0000
  C   C24       1.0  0.9850299999999999  0.86869  0.63854  1.0000
  C   C25       1.0  0.16384  0.54457  0.33642  1.0000
  C   C26       1.0  0.75893  0.03412  0.50635  1.0000
  C   C27       1.0  0.6849399999999998  0.13309  0.48996  1.0000
  C   C28       1.0  0.6031599999999998  0.13985  0.4255099999999999  1.0000
  C   C29       1.0  0.59947  0.046809999999999984  0.37888999999999995  1.0000
  C   C30       1.0  0.6752399999999998  0.95021  0.39907999999999993  1.0000
  C   C31       1.0  0.43413  0.1524  0.02619  1.0000
  C   C32       1.0  0.97434  0.33087999999999995  0.16215  1.0000
  C   C33       1.0  0.80356  0.10072999999999999  0.85908  1.0000
  C   C34       1.0  0.015959999999999985  0.36846  0.8619099999999997  1.0000
  C   C35       1.0  0.8368599999999999  0.04522  0.16259  1.0000
  C   C36       1.0  0.24212999999999998  0.5346799999999999  0.9941599999999999  1.0000
  C   C37       1.0  0.31583  0.63373  0.010399999999999998  1.0000
  C   C38       1.0  0.3973699999999999  0.64083  0.07493  1.0000
  C   C39       1.0  0.4014099999999999  0.5479  0.12167  1.0000
  C   C40       1.0  0.32597  0.45114999999999994  0.1016  1.0000
  N   N1        1.0  0.3325  0.28904  0.5272  1.0000
  N   N2        1.0  0.02653000000000001  0.18531999999999998  0.60547  1.0000
  N   N3        1.0  0.7615299999999998  0.4186099999999999  0.4182599999999999  1.0000
  N   N4        1.0  0.06552  0.15519  0.4185099999999999  1.0000
  N   N5        1.0  0.7865599999999998  0.47562  0.6055099999999998  1.0000
  N   N6        1.0  0.05291999999999999  0.36235  0.4994  1.0000
  N   N7        1.0  0.24677  0.05623  0.53812  1.0000
  N   N8        1.0  0.66651  0.78865  0.97192  1.0000
  N   N9        1.0  0.97144  0.6851699999999998  0.8935799999999999  1.0000
  N   N10       1.0  0.23755999999999994  0.9199099999999999  0.08264  1.0000
  N   N11       1.0  0.93267  0.6543899999999999  0.08102999999999998  1.0000
  N   N12       1.0  0.21254  0.975  0.8955  1.0000
  N   N13       1.0  0.9472599999999998  0.86075  0.00039999999999999996  1.0000
  N   N14       1.0  0.75208  0.55546  0.9611799999999999  1.0000
  N   N15       1.0  0.6675099999999998  0.7109599999999998  0.4728  1.0000
  N   N16       1.0  0.97348  0.81468  0.3945299999999999  1.0000
  N   N17       1.0  0.23848  0.58139  0.58174  1.0000
  N   N18       1.0  0.9344799999999999  0.8448099999999998  0.5814899999999998  1.0000
  N   N19       1.0  0.21345  0.52438  0.39449  1.0000
  N   N20       1.0  0.9470899999999999  0.63764  0.50061  1.0000
  N   N21       1.0  0.75324  0.9437599999999998  0.46188  1.0000
  N   N22       1.0  0.33349  0.21135  0.02808  1.0000
  N   N23       1.0  0.02857  0.31483  0.10641999999999997  1.0000
  N   N24       1.0  0.7624500000000001  0.08008  0.91736  1.0000
  N   N25       1.0  0.06734  0.34561  0.91897  1.0000
  N   N26       1.0  0.78747  0.025  0.1045  1.0000
  N   N27       1.0  0.052739999999999995  0.13923999999999997  0.9995999999999999  1.0000
  N   N28       1.0  0.24793  0.4445299999999999  0.03882  1.0000
