data_image0
_chemical_formula_structural       Cd2H64C64N8O16
_chemical_formula_sum              "Cd2 H64 C64 N8 O16"
_cell_length_a       12.00269
_cell_length_b       11.9483
_cell_length_c       11.9483
_cell_angle_alpha    90.0
_cell_angle_beta     90.0
_cell_angle_gamma    90.0

_space_group_name_H-M_alt    "P 1"
_space_group_IT_number       1

loop_
  _space_group_symop_operation_xyz
  'x, y, z'

loop_
  _atom_site_type_symbol
  _atom_site_label
  _atom_site_symmetry_multiplicity
  _atom_site_fract_x
  _atom_site_fract_y
  _atom_site_fract_z
  _atom_site_occupancy
  Cd  Cd1       1.0  0.4999999999999999  0.5  0.5  1.0000
  Cd  Cd2       1.0  0.0  0.0  0.0  1.0000
  H   H1        1.0  0.19970999999999994  0.23508  0.56132  1.0000
  H   H2        1.0  0.02028  0.16144  0.64446  1.0000
  H   H3        1.0  0.011399999999999999  0.42007  0.87742  1.0000
  H   H4        1.0  0.19337  0.49867  0.8062  1.0000
  H   H5        1.0  0.9055199999999999  0.25801  0.89824  1.0000
  H   H6        1.0  0.90397  0.15452  0.79474  1.0000
  H   H7        1.0  0.8063399999999998  0.28748  0.66122  1.0000
  H   H8        1.0  0.80645  0.39131  0.7641999999999999  1.0000
  H   H9        1.0  0.19970999999999994  0.76492  0.43868  1.0000
  H   H10       1.0  0.020269999999999996  0.83856  0.35553999999999997  1.0000
  H   H11       1.0  0.011399999999999999  0.57993  0.12257999999999998  1.0000
  H   H12       1.0  0.19337  0.50132  0.1938  1.0000
  H   H13       1.0  0.9055199999999999  0.74199  0.10176  1.0000
  H   H14       1.0  0.90397  0.84548  0.20526  1.0000
  H   H15       1.0  0.8063399999999998  0.71252  0.33878  1.0000
  H   H16       1.0  0.80644  0.60869  0.2358  1.0000
  H   H17       1.0  0.8002899999999997  0.56132  0.76492  1.0000
  H   H18       1.0  0.97972  0.64446  0.83856  1.0000
  H   H19       1.0  0.9885999999999998  0.87742  0.57993  1.0000
  H   H20       1.0  0.8066299999999997  0.8062  0.50133  1.0000
  H   H21       1.0  0.09447  0.89824  0.74199  1.0000
  H   H22       1.0  0.09603  0.79474  0.84548  1.0000
  H   H23       1.0  0.19365  0.66121  0.71252  1.0000
  H   H24       1.0  0.19354999999999994  0.7641999999999999  0.60869  1.0000
  H   H25       1.0  0.8002899999999997  0.43868  0.23508  1.0000
  H   H26       1.0  0.97972  0.35553999999999997  0.16144  1.0000
  H   H27       1.0  0.9885999999999998  0.12257999999999998  0.42007  1.0000
  H   H28       1.0  0.8066299999999997  0.19379  0.49868  1.0000
  H   H29       1.0  0.09448  0.10176  0.25801  1.0000
  H   H30       1.0  0.09603  0.20526  0.15452  1.0000
  H   H31       1.0  0.19365999999999997  0.33878  0.28748  1.0000
  H   H32       1.0  0.19354999999999994  0.2358  0.39131  1.0000
  H   H33       1.0  0.6994  0.73153  0.93871  1.0000
  H   H34       1.0  0.5199  0.65939  0.85423  1.0000
  H   H35       1.0  0.51291  0.9206499999999999  0.62391  1.0000
  H   H36       1.0  0.69456  0.99798  0.69679  1.0000
  H   H37       1.0  0.40623999999999993  0.75925  0.60106  1.0000
  H   H38       1.0  0.40419  0.65467  0.7036899999999999  1.0000
  H   H39       1.0  0.30705999999999994  0.78679  0.83839  1.0000
  H   H40       1.0  0.3065899999999999  0.89113  0.73597  1.0000
  H   H41       1.0  0.6994  0.26847  0.06128999999999999  1.0000
  H   H42       1.0  0.5199  0.3406  0.14577  1.0000
  H   H43       1.0  0.51291  0.07935  0.3760899999999999  1.0000
  H   H44       1.0  0.69456  0.00202  0.30321  1.0000
  H   H45       1.0  0.40623999999999993  0.24075  0.39893999999999996  1.0000
  H   H46       1.0  0.40419  0.34532999999999997  0.29631  1.0000
  H   H47       1.0  0.30707  0.21320999999999998  0.16161  1.0000
  H   H48       1.0  0.3065899999999999  0.10886  0.26403  1.0000
  H   H49       1.0  0.3006  0.0613  0.73153  1.0000
  H   H50       1.0  0.4801  0.14577  0.6594  1.0000
  H   H51       1.0  0.48707999999999996  0.3760899999999999  0.9206499999999999  1.0000
  H   H52       1.0  0.30544  0.30321  0.99798  1.0000
  H   H53       1.0  0.59376  0.39893999999999996  0.75925  1.0000
  H   H54       1.0  0.59581  0.29631  0.65467  1.0000
  H   H55       1.0  0.69293  0.16161  0.78679  1.0000
  H   H56       1.0  0.6934  0.26403  0.89113  1.0000
  H   H57       1.0  0.3006  0.93871  0.26847  1.0000
  H   H58       1.0  0.4801  0.85423  0.34060999999999997  1.0000
  H   H59       1.0  0.48707999999999996  0.62391  0.07935  1.0000
  H   H60       1.0  0.30544  0.69679  0.00202  1.0000
  H   H61       1.0  0.59376  0.60106  0.24075  1.0000
  H   H62       1.0  0.59581  0.7036899999999999  0.34532999999999997  1.0000
  H   H63       1.0  0.69293  0.83839  0.21320999999999998  1.0000
  H   H64       1.0  0.6934  0.73597  0.10887  1.0000
  C   C1        1.0  0.32030999999999993  0.41565  0.63786  1.0000
  C   C2        1.0  0.21018999999999996  0.3734199999999999  0.6769699999999998  1.0000
  C   C3        1.0  0.15877999999999998  0.27813  0.62997  1.0000
  C   C4        1.0  0.06077999999999999  0.23726  0.67346  1.0000
  C   C5        1.0  0.05614  0.38441  0.8070599999999999  1.0000
  C   C6        1.0  0.15505  0.42615  0.7671  1.0000
  C   C7        1.0  0.9048899999999998  0.24542  0.8073599999999999  1.0000
  C   C8        1.0  0.8039  0.30018  0.75229  1.0000
  C   C9        1.0  0.32030999999999993  0.58435  0.36214  1.0000
  C   C10       1.0  0.21018999999999996  0.62658  0.32303  1.0000
  C   C11       1.0  0.15877999999999998  0.72187  0.37002  1.0000
  C   C12       1.0  0.06077999999999999  0.76273  0.32654  1.0000
  C   C13       1.0  0.05614  0.61559  0.19294  1.0000
  C   C14       1.0  0.15505  0.57385  0.2329  1.0000
  C   C15       1.0  0.9048899999999998  0.75458  0.19264  1.0000
  C   C16       1.0  0.8039  0.69982  0.24770999999999999  1.0000
  C   C17       1.0  0.67968  0.63786  0.58436  1.0000
  C   C18       1.0  0.7898  0.6769699999999998  0.62658  1.0000
  C   C19       1.0  0.8412199999999999  0.62997  0.72187  1.0000
  C   C20       1.0  0.93922  0.67345  0.76274  1.0000
  C   C21       1.0  0.94386  0.8070599999999999  0.61559  1.0000
  C   C22       1.0  0.8449399999999998  0.7671  0.57385  1.0000
  C   C23       1.0  0.09511  0.80735  0.75458  1.0000
  C   C24       1.0  0.1961  0.75229  0.69982  1.0000
  C   C25       1.0  0.67969  0.36214  0.41565  1.0000
  C   C26       1.0  0.7898  0.32303  0.3734199999999999  1.0000
  C   C27       1.0  0.8412199999999999  0.37002  0.27813  1.0000
  C   C28       1.0  0.93922  0.32654  0.23726999999999998  1.0000
  C   C29       1.0  0.94386  0.19294  0.38441  1.0000
  C   C30       1.0  0.8449499999999998  0.2329  0.42615  1.0000
  C   C31       1.0  0.09511  0.19264  0.24542  1.0000
  C   C32       1.0  0.1961  0.24770999999999999  0.30018  1.0000
  C   C33       1.0  0.8202  0.91307  0.8658  1.0000
  C   C34       1.0  0.7104499999999998  0.87141  0.8250199999999999  1.0000
  C   C35       1.0  0.6587399999999999  0.77555  0.87047  1.0000
  C   C36       1.0  0.56083  0.73537  0.82617  1.0000
  C   C37       1.0  0.55717  0.8839599999999997  0.69409  1.0000
  C   C38       1.0  0.6559399999999999  0.92513  0.73499  1.0000
  C   C39       1.0  0.40537999999999996  0.74564  0.6918399999999999  1.0000
  C   C40       1.0  0.30439999999999995  0.79994  0.7473799999999999  1.0000
  C   C41       1.0  0.8202  0.08692  0.1342  1.0000
  C   C42       1.0  0.7104499999999998  0.12858  0.17498  1.0000
  C   C43       1.0  0.6587399999999999  0.22445  0.12953  1.0000
  C   C44       1.0  0.56083  0.26463  0.17383  1.0000
  C   C45       1.0  0.55717  0.11604  0.30591  1.0000
  C   C46       1.0  0.65595  0.07487  0.26502  1.0000
  C   C47       1.0  0.40537999999999996  0.25435  0.30816  1.0000
  C   C48       1.0  0.30439999999999995  0.20006  0.25262  1.0000
  C   C49       1.0  0.17979999999999993  0.1342  0.91308  1.0000
  C   C50       1.0  0.28955  0.17498  0.8714199999999999  1.0000
  C   C51       1.0  0.34126  0.12953  0.77555  1.0000
  C   C52       1.0  0.43917  0.17383  0.73537  1.0000
  C   C53       1.0  0.44283  0.30591  0.8839599999999997  1.0000
  C   C54       1.0  0.34405  0.26502  0.92513  1.0000
  C   C55       1.0  0.5946199999999999  0.30816  0.74564  1.0000
  C   C56       1.0  0.6956  0.25262  0.79994  1.0000
  C   C57       1.0  0.17979999999999993  0.8658  0.08692  1.0000
  C   C58       1.0  0.28954  0.8250199999999999  0.12859  1.0000
  C   C59       1.0  0.34126  0.87047  0.22445  1.0000
  C   C60       1.0  0.4391599999999999  0.82617  0.26463  1.0000
  C   C61       1.0  0.44283  0.69409  0.11604  1.0000
  C   C62       1.0  0.34405  0.73498  0.07487  1.0000
  C   C63       1.0  0.5946199999999999  0.6918399999999999  0.25436  1.0000
  C   C64       1.0  0.6956  0.7473799999999999  0.20006  1.0000
  N   N1        1.0  0.00983  0.28953  0.76205  1.0000
  N   N2        1.0  0.00983  0.7104699999999999  0.23795  1.0000
  N   N3        1.0  0.99017  0.76205  0.7104699999999999  1.0000
  N   N4        1.0  0.99017  0.23795  0.28953  1.0000
  N   N5        1.0  0.5103599999999999  0.78881  0.73792  1.0000
  N   N6        1.0  0.5103699999999999  0.21119  0.26208  1.0000
  N   N7        1.0  0.48963  0.26208  0.78881  1.0000
  N   N8        1.0  0.48963  0.73792  0.21119  1.0000
  O   O1        1.0  0.361  0.37212  0.54796  1.0000
  O   O2        1.0  0.36768  0.49095  0.69518  1.0000
  O   O3        1.0  0.361  0.62788  0.45203999999999994  1.0000
  O   O4        1.0  0.36768  0.50905  0.30482  1.0000
  O   O5        1.0  0.6389999999999999  0.54796  0.62788  1.0000
  O   O6        1.0  0.6323199999999999  0.69518  0.50905  1.0000
  O   O7        1.0  0.6389999999999999  0.45203  0.37212  1.0000
  O   O8        1.0  0.6323199999999999  0.30482  0.49095999999999995  1.0000
  O   O9        1.0  0.86053  0.86855  0.95535  1.0000
  O   O10       1.0  0.8676899999999999  0.9896099999999999  0.8100799999999999  1.0000
  O   O11       1.0  0.86054  0.13145  0.04465  1.0000
  O   O12       1.0  0.8676899999999999  0.01039  0.18992  1.0000
  O   O13       1.0  0.13946  0.04465  0.86855  1.0000
  O   O14       1.0  0.13231  0.18992  0.9896099999999999  1.0000
  O   O15       1.0  0.13946  0.95535  0.13145  1.0000
  O   O16       1.0  0.1323  0.8100799999999999  0.01039  1.0000
