data_image0
_chemical_formula_structural       Zn2H48C52N14
_chemical_formula_sum              "Zn2 H48 C52 N14"
_cell_length_a       8.84375
_cell_length_b       13.72711
_cell_length_c       13.72098
_cell_angle_alpha    98.59164
_cell_angle_beta     99.85372
_cell_angle_gamma    100.05978

_symmetry_space_group_name_H-M    'P 1'
_symmetry_Int_Tables_number       1

loop_
  _symmetry_equiv_pos_as_xyz
  'x,y,z'

loop_
  _atom_site_type_symbol
  _atom_site_label
  _atom_site_symmetry_multiplicity
  _atom_site_fract_x
  _atom_site_fract_y
  _atom_site_fract_z
  _atom_site_occupancy
  Zn  Zn1       1.0  0.24605  0.67943  0.3193799999999999  1.0000
  Zn  Zn2       1.0  0.75395  0.32058  0.68063  1.0000
  H   H1        1.0  0.40514  0.57697  0.47933  1.0000
  H   H2        1.0  0.43275  0.57192  0.66141  1.0000
  H   H3        1.0  0.20678  0.82655  0.69071  1.0000
  H   H4        1.0  0.17267  0.81416  0.50488  1.0000
  H   H5        1.0  0.41395000000000004  0.6465  0.82558  1.0000
  H   H6        1.0  0.40863  0.77579  0.84433  1.0000
  H   H7        1.0  0.11575999999999997  0.60514  0.7966499999999999  1.0000
  H   H8        1.0  0.11473999999999995  0.7330899999999999  0.8177699999999999  1.0000
  H   H9        1.0  0.45448  0.7523400000000001  0.17862999999999996  1.0000
  H   H10       1.0  0.44297999999999993  0.76149  0.9989799999999999  1.0000
  H   H11       1.0  0.96537  0.5932400000000002  0.93808  1.0000
  H   H12       1.0  0.99773  0.59097  0.12156  1.0000
  H   H13       1.0  0.08853999999999998  0.51922  0.42207  1.0000
  H   H14       1.0  0.06438999999999999  0.3375  0.42819  1.0000
  H   H15       1.0  0.29518  0.31023  0.17515  1.0000
  H   H16       1.0  0.32541  0.49574  0.18638  1.0000
  H   H17       1.0  0.08454000000000002  0.17409000000000002  0.35388  1.0000
  H   H18       1.0  0.09022000000000001  0.15583000000000005  0.22461999999999993  1.0000
  H   H19       1.0  0.3829199999999999  0.20230999999999996  0.3947699999999999  1.0000
  H   H20       1.0  0.3836  0.18094  0.2667  1.0000
  H   H21       1.0  0.03824999999999998  0.82126  0.24719  1.0000
  H   H22       1.0  0.05311  0.0011699999999999944  0.23832  1.0000
  H   H23       1.0  0.5295999999999998  0.059830000000000015  0.40708  1.0000
  H   H24       1.0  0.49389  0.87613  0.4089199999999999  1.0000
  H   H25       1.0  0.59486  0.42303  0.52068  1.0000
  H   H26       1.0  0.56725  0.42808  0.3386  1.0000
  H   H27       1.0  0.79322  0.17344999999999997  0.3092999999999999  1.0000
  H   H28       1.0  0.82732  0.18584999999999996  0.49511999999999995  1.0000
  H   H29       1.0  0.58605  0.35351  0.17442  1.0000
  H   H30       1.0  0.59137  0.22422  0.15567  1.0000
  H   H31       1.0  0.88425  0.39487  0.20335  1.0000
  H   H32       1.0  0.8852600000000002  0.26692  0.18223  1.0000
  H   H33       1.0  0.54553  0.24766000000000002  0.8213799999999998  1.0000
  H   H34       1.0  0.55702  0.23852  0.00102  1.0000
  H   H35       1.0  0.034630000000000015  0.40676000000000007  0.061929999999999985  1.0000
  H   H36       1.0  0.002279999999999916  0.40903999999999996  0.8784399999999998  1.0000
  H   H37       1.0  0.9114600000000004  0.48078  0.57793  1.0000
  H   H38       1.0  0.9356099999999999  0.6625100000000003  0.57181  1.0000
  H   H39       1.0  0.70482  0.68977  0.8248599999999999  1.0000
  H   H40       1.0  0.67459  0.50426  0.8136199999999998  1.0000
  H   H41       1.0  0.9154599999999999  0.8259100000000003  0.64613  1.0000
  H   H42       1.0  0.9097799999999999  0.8441699999999999  0.7753899999999999  1.0000
  H   H43       1.0  0.6170800000000002  0.7977000000000002  0.60523  1.0000
  H   H44       1.0  0.6164  0.8190600000000002  0.7333  1.0000
  H   H45       1.0  0.96175  0.17875  0.7528099999999999  1.0000
  H   H46       1.0  0.94689  0.99883  0.76168  1.0000
  H   H47       1.0  0.4704  0.9401700000000002  0.5929199999999999  1.0000
  H   H48       1.0  0.50611  0.12387  0.59108  1.0000
  C   C1        1.0  0.62213  0.66686  0.3522099999999999  1.0000
  C   C2        1.0  0.35887  0.6290400000000003  0.52804  1.0000
  C   C3        1.0  0.37546  0.62764  0.63042  1.0000
  C   C4        1.0  0.32191  0.69822  0.69298  1.0000
  C   C5        1.0  0.24905  0.76835  0.64648  1.0000
  C   C6        1.0  0.23117  0.7625600000000002  0.54293  1.0000
  C   C7        1.0  0.3423999999999999  0.70081  0.8043799999999998  1.0000
  C   C8        1.0  0.18542999999999998  0.67814  0.8395599999999999  1.0000
  C   C9        1.0  0.34845  0.71798  0.12258  1.0000
  C   C10       1.0  0.34023  0.72279  0.02162  1.0000
  C   C11       1.0  0.20161  0.67779  0.95031  1.0000
  C   C12       1.0  0.07616999999999996  0.62973  0.98862  1.0000
  C   C13       1.0  0.09316  0.62776  0.09066  1.0000
  C   C14       1.0  0.8707599999999999  0.64729  0.33403  1.0000
  C   C15       1.0  0.13662999999999997  0.47105  0.3706199999999999  1.0000
  C   C16       1.0  0.12201  0.3689  0.37263  1.0000
  C   C17       1.0  0.17739999999999995  0.30693  0.3025599999999999  1.0000
  C   C18       1.0  0.25106  0.35396000000000005  0.23277  1.0000
  C   C19       1.0  0.26686  0.4573  0.23793  1.0000
  C   C20       1.0  0.15652  0.19548  0.29964  1.0000
  C   C21       1.0  0.31264  0.15963  0.32189  1.0000
  C   C22       1.0  0.14487  0.87686  0.28169  1.0000
  C   C23       1.0  0.15495000000000003  0.9779800000000002  0.27706  1.0000
  C   C24       1.0  0.29431  0.04875  0.32221  1.0000
  C   C25       1.0  0.41836  0.00976  0.3704  1.0000
  C   C26       1.0  0.3995400000000001  0.9076300000000003  0.37216  1.0000
  C   C27       1.0  0.37784999999999996  0.33315  0.6477899999999999  1.0000
  C   C28       1.0  0.64113  0.37096  0.47196  1.0000
  C   C29       1.0  0.62454  0.37236  0.3695799999999999  1.0000
  C   C30       1.0  0.6780899999999999  0.30179  0.30703  1.0000
  C   C31       1.0  0.75095  0.23166  0.35353  1.0000
  C   C32       1.0  0.76882  0.23744  0.45706999999999987  1.0000
  C   C33       1.0  0.6575999999999999  0.29919  0.19562999999999994  1.0000
  C   C34       1.0  0.81457  0.32186  0.16043999999999997  1.0000
  C   C35       1.0  0.65155  0.28202  0.87742  1.0000
  C   C36       1.0  0.65977  0.27722  0.9783799999999998  1.0000
  C   C37       1.0  0.79839  0.32221  0.049689999999999984  1.0000
  C   C38       1.0  0.92383  0.37027  0.01138  1.0000
  C   C39       1.0  0.90684  0.3722400000000001  0.90934  1.0000
  C   C40       1.0  0.12926  0.35271  0.66597  1.0000
  C   C41       1.0  0.8633699999999999  0.52895  0.6293799999999999  1.0000
  C   C42       1.0  0.8779899999999999  0.63111  0.62737  1.0000
  C   C43       1.0  0.8225999999999998  0.69307  0.69744  1.0000
  C   C44       1.0  0.74894  0.64605  0.76723  1.0000
  C   C45       1.0  0.73314  0.5427  0.7620699999999998  1.0000
  C   C46       1.0  0.84348  0.80453  0.70036  1.0000
  C   C47       1.0  0.68736  0.8403700000000002  0.6781199999999997  1.0000
  C   C48       1.0  0.8551299999999998  0.12313999999999997  0.7183099999999999  1.0000
  C   C49       1.0  0.84505  0.02202  0.72294  1.0000
  C   C50       1.0  0.7056900000000002  0.9512500000000003  0.6778  1.0000
  C   C51       1.0  0.58164  0.99024  0.62961  1.0000
  C   C52       1.0  0.60046  0.09237000000000001  0.6278499999999999  1.0000
  N   N1        1.0  0.50318  0.69577  0.34097  1.0000
  N   N2        1.0  0.28473  0.69495  0.48304999999999987  1.0000
  N   N3        1.0  0.22772  0.67077  0.15852  1.0000
  N   N4        1.0  0.98966  0.6566800000000003  0.30471  1.0000
  N   N5        1.0  0.21073  0.51648  0.3047  1.0000
  N   N6        1.0  0.26444000000000006  0.8402800000000002  0.32881  1.0000
  N   N7        1.0  0.74653  0.6297  0.37209  1.0000
  N   N8        1.0  0.49683999999999995  0.30423  0.65903  1.0000
  N   N9        1.0  0.7152700000000001  0.3050500000000001  0.51695  1.0000
  N   N10       1.0  0.7722800000000001  0.32923  0.84148  1.0000
  N   N11       1.0  0.01032999999999998  0.34332  0.6952999999999999  1.0000
  N   N12       1.0  0.78927  0.48352000000000006  0.69531  1.0000
  N   N13       1.0  0.73556  0.15973  0.67119  1.0000
  N   N14       1.0  0.25347  0.3703  0.62791  1.0000
