data_image0
_chemical_formula_structural       Co4H32C44N4O16
_chemical_formula_sum              "Co4 H32 C44 N4 O16"
_cell_length_a       9.89826
_cell_length_b       11.01641
_cell_length_c       13.26324
_cell_angle_alpha    66.97731
_cell_angle_beta     86.34846
_cell_angle_gamma    69.16343

_space_group_name_H-M_alt    "P 1"
_space_group_IT_number       1

loop_
  _space_group_symop_operation_xyz
  'x, y, z'

loop_
  _atom_site_type_symbol
  _atom_site_label
  _atom_site_symmetry_multiplicity
  _atom_site_fract_x
  _atom_site_fract_y
  _atom_site_fract_z
  _atom_site_occupancy
  Co  Co1       1.0  0.8957299999999999  0.02237000000000012  0.8003599999999998  1.0000
  Co  Co2       1.0  0.82938  0.04638  0.01681  1.0000
  Co  Co3       1.0  0.10450999999999999  0.97715  0.19997  1.0000
  Co  Co4       1.0  0.1701500000000001  0.94715  0.9872699999999999  1.0000
  H   H1        1.0  0.9502099999999999  0.1878  0.87493  1.0000
  H   H2        1.0  0.64417  0.7597599999999999  0.10595  1.0000
  H   H3        1.0  0.6661200000000003  0.35173999999999994  0.1285  1.0000
  H   H4        1.0  0.8950999999999999  0.5803400000000001  0.88777  1.0000
  H   H5        1.0  0.47757  0.57281  0.34542999999999996  1.0000
  H   H6        1.0  0.58959  0.66867  0.273  1.0000
  H   H7        1.0  0.8161899999999995  0.81558  0.22608  1.0000
  H   H8        1.0  0.65919  0.77824  0.38269999999999993  1.0000
  H   H9        1.0  0.38489999999999996  0.21798  0.21783  1.0000
  H   H10       1.0  0.55307  0.23517  0.07083  1.0000
  H   H11       1.0  0.45311999999999997  0.87105  0.47217  1.0000
  H   H12       1.0  0.23982000000000003  0.17076000000000005  0.33592999999999995  1.0000
  H   H13       1.0  0.30616  0.82713  0.59497  1.0000
  H   H14       1.0  0.14247  0.81874  0.74522  1.0000
  H   H15       1.0  0.8878399999999999  0.24136999999999995  0.58503  1.0000
  H   H16       1.0  0.04205999999999997  0.26957000000000003  0.42622999999999994  1.0000
  H   H17       1.0  0.04958999999999991  0.8089900000000002  0.12777  1.0000
  H   H18       1.0  0.35642  0.24176  0.89267  1.0000
  H   H19       1.0  0.33175  0.64971  0.87179  1.0000
  H   H20       1.0  0.10618000000000001  0.41735  0.11299  1.0000
  H   H21       1.0  0.5258699999999997  0.4263399999999999  0.65608  1.0000
  H   H22       1.0  0.41094  0.33268  0.72659  1.0000
  H   H23       1.0  0.18144999999999994  0.18426999999999993  0.77518  1.0000
  H   H24       1.0  0.33837999999999996  0.22247000000000006  0.6183599999999999  1.0000
  H   H25       1.0  0.6145300000000001  0.7834099999999999  0.78331  1.0000
  H   H26       1.0  0.4466200000000001  0.76532  0.9298  1.0000
  H   H27       1.0  0.5452099999999999  0.13018000000000002  0.52829  1.0000
  H   H28       1.0  0.75857  0.8302900000000001  0.66409  1.0000
  H   H29       1.0  0.69286  0.17348000000000002  0.40449  1.0000
  H   H30       1.0  0.85737  0.18114  0.25483  1.0000
  H   H31       1.0  0.11163  0.75878  0.41618999999999995  1.0000
  H   H32       1.0  0.9563600000000001  0.73104  0.57419  1.0000
  C   C1        1.0  0.8106799999999998  0.8111999999999999  0.94542  1.0000
  C   C2        1.0  0.7740999999999998  0.6810100000000001  0.99386  1.0000
  C   C3        1.0  0.6839499999999996  0.67133  0.08099  1.0000
  C   C4        1.0  0.64378  0.55324  0.1283  1.0000
  C   C5        1.0  0.6965199999999998  0.4442  0.09057  1.0000
  C   C6        1.0  0.7875200000000001  0.45274  0.00497  1.0000
  C   C7        1.0  0.8246099999999998  0.5733100000000001  0.95446  1.0000
  C   C8        1.0  0.50442  0.63043  0.2633  1.0000
  C   C9        1.0  0.36938999999999983  0.75877  0.20244999999999994  1.0000
  C   C10       1.0  0.84562  0.32866999999999996  0.97196  1.0000
  C   C11       1.0  0.71931  0.9009200000000002  0.22871999999999998  1.0000
  C   C12       1.0  0.6309899999999999  0.8812000000000002  0.3147  1.0000
  C   C13       1.0  0.50536  0.99438  0.31388  1.0000
  C   C14       1.0  0.47864999999999996  0.12501  0.22448  1.0000
  C   C15       1.0  0.57246  0.13654000000000005  0.14196  1.0000
  C   C16       1.0  0.4117100000000002  0.9731899999999999  0.4030599999999999  1.0000
  C   C17       1.0  0.2816699999999999  0.06954999999999997  0.40597  1.0000
  C   C18       1.0  0.19029000000000001  0.05130000000000001  0.49662  1.0000
  C   C19       1.0  0.2160199999999998  0.9227000000000002  0.58873  1.0000
  C   C20       1.0  0.12511000000000014  0.9159499999999998  0.67276  1.0000
  C   C21       1.0  0.98231  0.15362  0.5829  1.0000
  C   C22       1.0  0.06850999999999999  0.16790000000000002  0.4956599999999999  1.0000
  C   C23       1.0  0.18898000000000004  0.18863000000000002  0.05167999999999998  1.0000
  C   C24       1.0  0.22677  0.31847  0.00559  1.0000
  C   C25       1.0  0.3165299999999999  0.32954000000000006  0.9183699999999998  1.0000
  C   C26       1.0  0.35595999999999994  0.44808000000000003  0.87148  1.0000
  C   C27       1.0  0.30259000000000014  0.5565499999999999  0.90976  1.0000
  C   C28       1.0  0.21245000000000003  0.54629  0.99598  1.0000
  C   C29       1.0  0.17641999999999994  0.42507  0.04615  1.0000
  C   C30       1.0  0.49628  0.37008  0.73748  1.0000
  C   C31       1.0  0.6300799999999999  0.2411000000000001  0.8003599999999998  1.0000
  C   C32       1.0  0.15261  0.66993  0.02907  1.0000
  C   C33       1.0  0.27833  0.09917  0.77219  1.0000
  C   C34       1.0  0.36689  0.11935000000000003  0.68621  1.0000
  C   C35       1.0  0.49302  0.006700000000000001  0.68676  1.0000
  C   C36       1.0  0.5202900000000001  0.87613  0.77635  1.0000
  C   C37       1.0  0.42626000000000003  0.86425  0.8587399999999998  1.0000
  C   C38       1.0  0.58668  0.027989999999999973  0.59737  1.0000
  C   C39       1.0  0.7166199999999998  0.9315899999999998  0.59415  1.0000
  C   C40       1.0  0.80828  0.9494800000000001  0.50352  1.0000
  C   C41       1.0  0.7830600000000002  0.07776999999999998  0.4112  1.0000
  C   C42       1.0  0.8745199999999999  0.08416999999999998  0.32748  1.0000
  C   C43       1.0  0.01698000000000003  0.84667  0.41789  1.0000
  C   C44       1.0  0.9301300000000001  0.8326999999999999  0.50478  1.0000
  N   N1        1.0  0.69123  0.026560000000000004  0.14297  1.0000
  N   N2        1.0  0.009149999999999993  0.029609999999999997  0.67114  1.0000
  N   N3        1.0  0.30652  0.9734600000000001  0.85777  1.0000
  N   N4        1.0  0.9907199999999999  0.9704800000000001  0.32955  1.0000
  O   O1        1.0  0.8625900000000002  0.8422599999999999  0.85079  1.0000
  O   O2        1.0  0.78582  0.88756  0.00036999999999999994  1.0000
  O   O3        1.0  0.5549699999999999  0.53093  0.21293  1.0000
  O   O4        1.0  0.29112000000000005  0.81742  0.26392  1.0000
  O   O5        1.0  0.34748999999999997  0.79732  0.10057  1.0000
  O   O6        1.0  0.84047  0.21226  0.04555  1.0000
  O   O7        1.0  0.8938  0.34459999999999996  0.87879  1.0000
  O   O8        1.0  0.97544  0.08281000000000005  0.89292  1.0000
  O   O9        1.0  0.13560000000000003  0.15756  0.14601  1.0000
  O   O10       1.0  0.21296  0.11510999999999999  0.99476  1.0000
  O   O11       1.0  0.44383999999999996  0.47123000000000004  0.7863899999999999  1.0000
  O   O12       1.0  0.7117999999999999  0.18544000000000008  0.7383699999999999  1.0000
  O   O13       1.0  0.6469799999999996  0.20062  0.90284  1.0000
  O   O14       1.0  0.15442000000000006  0.7878099999999998  0.95463  1.0000
  O   O15       1.0  0.10506000000000001  0.65405  0.12220999999999997  1.0000
  O   O16       1.0  0.021090000000000053  0.9137899999999999  0.11192  1.0000
