data_image0
_chemical_formula_structural       Zn2H36C66O12
_chemical_formula_sum              "Zn2 H36 C66 O12"
_cell_length_a       12.01126
_cell_length_b       13.47017
_cell_length_c       14.08766
_cell_angle_alpha    68.15457000000002
_cell_angle_beta     75.76958
_cell_angle_gamma    84.3669

_symmetry_space_group_name_H-M    'P 1'
_symmetry_Int_Tables_number       1

loop_
  _symmetry_equiv_pos_as_xyz
  'x,y,z'

loop_
  _atom_site_type_symbol
  _atom_site_label
  _atom_site_symmetry_multiplicity
  _atom_site_fract_x
  _atom_site_fract_y
  _atom_site_fract_z
  _atom_site_occupancy
  Zn  Zn1       1.0  0.06822999999999996  0.37377999999999995  0.9571800000000003  1.0000
  Zn  Zn2       1.0  0.93688  0.6247599999999999  0.04306  1.0000
  H   H1        1.0  0.060129999999999954  0.32885999999999993  0.6711800000000002  1.0000
  H   H2        1.0  0.03944999999999999  0.25247  0.54004  1.0000
  H   H3        1.0  0.95593  0.94705  0.78964  1.0000
  H   H4        1.0  0.9760299999999997  0.02407999999999991  0.9185600000000003  1.0000
  H   H5        1.0  0.09737999999999994  0.91455  0.6477400000000001  1.0000
  H   H6        1.0  0.76751  0.13876999999999998  0.6449400000000001  1.0000
  H   H7        1.0  0.6423500000000001  0.30549  0.61546  1.0000
  H   H8        1.0  0.8205899999999999  0.4299799999999999  0.28011  1.0000
  H   H9        1.0  0.9407299999999998  0.27004  0.31068  1.0000
  H   H10       1.0  0.74953  0.054630000000000005  0.26073  1.0000
  H   H11       1.0  0.8713199999999999  0.20178999999999994  0.12001  1.0000
  H   H12       1.0  0.6321099999999997  0.433  0.20055000000000003  1.0000
  H   H13       1.0  0.50431  0.28586  0.33354  1.0000
  H   H14       1.0  0.7101699999999999  0.02446000000000001  0.46109  1.0000
  H   H15       1.0  0.47497  0.09909999999999994  0.21769  1.0000
  H   H16       1.0  0.34291  0.18999  0.09865  1.0000
  H   H17       1.0  0.10442999999999995  0.25299  0.3514600000000001  1.0000
  H   H18       1.0  0.23344000000000004  0.16162  0.47151  1.0000
  H   H19       1.0  0.9410299999999999  0.67001  0.32957  1.0000
  H   H20       1.0  0.9582399999999998  0.7466599999999998  0.4617  1.0000
  H   H21       1.0  0.05043999999999999  0.05047  0.21216  1.0000
  H   H22       1.0  0.033389999999999996  0.97325  0.08218000000000002  1.0000
  H   H23       1.0  0.9040099999999999  0.08276  0.35449  1.0000
  H   H24       1.0  0.2312899999999999  0.85706  0.3559600000000001  1.0000
  H   H25       1.0  0.35466  0.68904  0.38474  1.0000
  H   H26       1.0  0.1804  0.56654  0.72113  1.0000
  H   H27       1.0  0.06191000000000001  0.72777  0.6913000000000001  1.0000
  H   H28       1.0  0.25187000000000004  0.9436799999999999  0.74261  1.0000
  H   H29       1.0  0.13165999999999983  0.7947999999999998  0.8822800000000001  1.0000
  H   H30       1.0  0.37281  0.56686  0.79761  1.0000
  H   H31       1.0  0.4989199999999998  0.71579  0.66543  1.0000
  H   H32       1.0  0.29189000000000004  0.9759  0.54113  1.0000
  H   H33       1.0  0.5273200000000001  0.90147  0.78418  1.0000
  H   H34       1.0  0.65927  0.81009  0.90331  1.0000
  H   H35       1.0  0.89584  0.74429  0.65095  1.0000
  H   H36       1.0  0.7664299999999998  0.83644  0.53099  1.0000
  C   C1        1.0  0.018799999999999987  0.18238  0.80268  1.0000
  C   C2        1.0  0.03642999999999995  0.24573999999999993  0.6955200000000001  1.0000
  C   C3        1.0  0.02443000000000002  0.20268  0.6229  1.0000
  C   C4        1.0  0.9955699999999997  0.09433  0.65556  1.0000
  C   C5        1.0  0.97852  0.030929999999999944  0.7629900000000001  1.0000
  C   C6        1.0  0.98944  0.07448  0.83589  1.0000
  C   C7        1.0  0.03195  0.23070999999999997  0.87981  1.0000
  C   C8        1.0  0.9919199999999999  0.046089999999999985  0.57772  1.0000
  C   C9        1.0  0.053030000000000015  0.95053  0.58407  1.0000
  C   C10       1.0  0.9373499999999998  0.09445  0.49292  1.0000
  C   C11       1.0  0.8638299999999998  0.19175  0.48126  1.0000
  C   C12       1.0  0.78007  0.20118  0.5672  1.0000
  C   C13       1.0  0.70887  0.29352999999999996  0.55271  1.0000
  C   C14       1.0  0.73603  0.3593  0.45129  1.0000
  C   C15       1.0  0.80852  0.36999999999999994  0.36064000000000007  1.0000
  C   C16       1.0  0.8761399999999999  0.27284  0.38209  1.0000
  C   C17       1.0  0.62101  0.16058  0.30977  1.0000
  C   C18       1.0  0.7233299999999999  0.13759  0.24724000000000002  1.0000
  C   C19       1.0  0.7922199999999999  0.21964999999999998  0.16871  1.0000
  C   C20       1.0  0.7615800000000001  0.32632  0.1555  1.0000
  C   C21       1.0  0.6562800000000001  0.34983  0.21339  1.0000
  C   C22       1.0  0.58539  0.26777  0.28804  1.0000
  C   C23       1.0  0.8447399999999999  0.41408  0.08901000000000003  1.0000
  C   C24       1.0  0.55681  0.07583000000000001  0.40354  1.0000
  C   C25       1.0  0.6182999999999997  0.011569999999999971  0.4775400000000001  1.0000
  C   C26       1.0  0.43622999999999984  0.06399999999999995  0.42735  1.0000
  C   C27       1.0  0.36308  0.12294999999999999  0.35333000000000003  1.0000
  C   C28       1.0  0.39374  0.13269  0.24715000000000004  1.0000
  C   C29       1.0  0.32030999999999993  0.1833  0.18039  1.0000
  C   C30       1.0  0.21477999999999994  0.22590999999999997  0.21805000000000005  1.0000
  C   C31       1.0  0.18491  0.21787999999999993  0.32317000000000007  1.0000
  C   C32       1.0  0.25769  0.16684999999999997  0.39013  1.0000
  C   C33       1.0  0.13496999999999998  0.27842000000000006  0.14749  1.0000
  C   C34       1.0  0.9872199999999999  0.81569  0.19794  1.0000
  C   C35       1.0  0.96608  0.75271  0.30538  1.0000
  C   C36       1.0  0.97619  0.79579  0.37854000000000004  1.0000
  C   C37       1.0  0.006879999999999982  0.90361  0.3460800000000001  1.0000
  C   C38       1.0  0.027029999999999974  0.96682  0.23844  1.0000
  C   C39       1.0  0.01784000000000001  0.9232  0.16506000000000004  1.0000
  C   C40       1.0  0.9754899999999999  0.76779  0.12008  1.0000
  C   C41       1.0  0.00980000000000001  0.95145  0.42434  1.0000
  C   C42       1.0  0.94857  0.04684999999999998  0.4180400000000001  1.0000
  C   C43       1.0  0.06427999999999999  0.9029  0.50917  1.0000
  C   C44       1.0  0.13723999999999997  0.8052600000000001  0.52042  1.0000
  C   C45       1.0  0.21933999999999998  0.79494  0.43386  1.0000
  C   C46       1.0  0.28934  0.70183  0.4478  1.0000
  C   C47       1.0  0.2628499999999999  0.63641  0.54938  1.0000
  C   C48       1.0  0.19188  0.6264299999999998  0.64049  1.0000
  C   C49       1.0  0.12544999999999995  0.7243299999999999  0.61961  1.0000
  C   C50       1.0  0.38148999999999994  0.83944  0.69192  1.0000
  C   C51       1.0  0.27898000000000006  0.86107  0.75513  1.0000
  C   C52       1.0  0.21098  0.7779999999999998  0.83314  1.0000
  C   C53       1.0  0.24263000000000007  0.67177  0.84498  1.0000
  C   C54       1.0  0.34792999999999985  0.64965  0.7860500000000002  1.0000
  C   C55       1.0  0.4179  0.7326499999999999  0.71193  1.0000
  C   C56       1.0  0.1603199999999999  0.5831799999999999  0.9108200000000002  1.0000
  C   C57       1.0  0.4451699999999999  0.9249700000000001  0.5987  1.0000
  C   C58       1.0  0.38366  0.9892499999999997  0.52479  1.0000
  C   C59       1.0  0.56571  0.9368199999999998  0.57491  1.0000
  C   C60       1.0  0.63883  0.8773  0.64875  1.0000
  C   C61       1.0  0.6085599999999999  0.8677199999999999  0.7548500000000002  1.0000
  C   C62       1.0  0.68205  0.81684  0.82156  1.0000
  C   C63       1.0  0.78741  0.7738299999999997  0.7839700000000002  1.0000
  C   C64       1.0  0.8162599999999999  0.78077  0.6791000000000003  1.0000
  C   C65       1.0  0.7434099999999998  0.83206  0.61218  1.0000
  C   C66       1.0  0.8681199999999999  0.7220400000000001  0.85394  1.0000
  O   O1        1.0  0.010449999999999987  0.17774000000000004  0.97643  1.0000
  O   O2        1.0  0.06677999999999996  0.32959999999999995  0.8386300000000001  1.0000
  O   O3        1.0  0.90491  0.41503  0.00098  1.0000
  O   O4        1.0  0.84888  0.48597999999999997  0.12787  1.0000
  O   O5        1.0  0.17697  0.3048  0.04805  1.0000
  O   O6        1.0  0.030859999999999995  0.29487  0.18508000000000002  1.0000
  O   O7        1.0  0.9999799999999998  0.8206099999999998  0.02349  1.0000
  O   O8        1.0  0.9385999999999998  0.6695999999999998  0.16081  1.0000
  O   O9        1.0  0.10000999999999997  0.58059  0.99933  1.0000
  O   O10       1.0  0.1566599999999999  0.51167  0.8712500000000001  1.0000
  O   O11       1.0  0.8278199999999999  0.69728  0.9534100000000002  1.0000
  O   O12       1.0  0.9717699999999999  0.70467  0.81572  1.0000
