data_image0
_chemical_formula_structural       Co4H64C64N16
_chemical_formula_sum              "Co4 H64 C64 N16"
_cell_length_a       7.24094
_cell_length_b       18.55035
_cell_length_c       18.550349999999998
_cell_angle_alpha    89.99236
_cell_angle_beta     90.00989
_cell_angle_gamma    90.00989

_symmetry_space_group_name_H-M    'P 1'
_symmetry_Int_Tables_number       1

loop_
  _symmetry_equiv_pos_as_xyz
  'x,y,z'

loop_
  _atom_site_type_symbol
  _atom_site_label
  _atom_site_symmetry_multiplicity
  _atom_site_fract_x
  _atom_site_fract_y
  _atom_site_fract_z
  _atom_site_occupancy
  Co  Co1       1.0  0.7501  0.24989  0.75027  1.0000
  Co  Co2       1.0  0.24989000000000006  0.75011  0.24973  1.0000
  Co  Co3       1.0  0.7501  0.75027  0.24989  1.0000
  Co  Co4       1.0  0.24989000000000006  0.24973  0.75011  1.0000
  H   H1        1.0  0.93045  0.39092  0.6743000000000001  1.0000
  H   H2        1.0  0.80771  0.47046  0.65  1.0000
  H   H3        1.0  0.80074  0.43643  0.7400800000000002  1.0000
  H   H4        1.0  0.22682  0.48456999999999995  0.5793000000000001  1.0000
  H   H5        1.0  0.9304400000000003  0.10869  0.8259  1.0000
  H   H6        1.0  0.8069100000000001  0.02927  0.85016  1.0000
  H   H7        1.0  0.8002700000000003  0.06327  0.76008  1.0000
  H   H8        1.0  0.22695  0.01544  0.92075  1.0000
  H   H9        1.0  0.43023  0.8258199999999999  0.39092  1.0000
  H   H10       1.0  0.30724  0.85012  0.4704400000000001  1.0000
  H   H11       1.0  0.2999900000000001  0.76007  0.4363600000000001  1.0000
  H   H12       1.0  0.72689  0.92075  0.48447  1.0000
  H   H13       1.0  0.4307  0.67415  0.10870000000000003  1.0000
  H   H14       1.0  0.30753  0.64987  0.02924  1.0000
  H   H15       1.0  0.30105  0.7399999999999999  0.06313  1.0000
  H   H16       1.0  0.72689  0.57931  0.01531  1.0000
  H   H17       1.0  0.56976  0.6090799999999998  0.17418  1.0000
  H   H18       1.0  0.69275  0.52956  0.14988  1.0000
  H   H19       1.0  0.7000000000000002  0.56363  0.23992000000000002  1.0000
  H   H20       1.0  0.2731  0.51552  0.07925000000000003  1.0000
  H   H21       1.0  0.56929  0.8913000000000001  0.32585  1.0000
  H   H22       1.0  0.69245  0.97075  0.3501200000000001  1.0000
  H   H23       1.0  0.69893  0.9368699999999999  0.25999000000000005  1.0000
  H   H24       1.0  0.27309  0.9846899999999998  0.42069000000000006  1.0000
  H   H25       1.0  0.06955  0.17409  0.89131  1.0000
  H   H26       1.0  0.19308  0.14983  0.97073  1.0000
  H   H27       1.0  0.19972  0.23991  0.9367200000000002  1.0000
  H   H28       1.0  0.77304  0.07924  0.98455  1.0000
  H   H29       1.0  0.06953  0.32569  0.60908  1.0000
  H   H30       1.0  0.19228000000000006  0.35  0.52953  1.0000
  H   H31       1.0  0.19924  0.25991  0.56357  1.0000
  H   H32       1.0  0.77317  0.4207  0.51543  1.0000
  H   H33       1.0  0.06953  0.6090799999999998  0.32569000000000004  1.0000
  H   H34       1.0  0.19228000000000006  0.52953  0.35  1.0000
  H   H35       1.0  0.19924  0.56357  0.25991  1.0000
  H   H36       1.0  0.77317  0.51543  0.42070000000000013  1.0000
  H   H37       1.0  0.06955  0.8913099999999999  0.17409  1.0000
  H   H38       1.0  0.19308  0.9707299999999999  0.14983000000000002  1.0000
  H   H39       1.0  0.19972  0.93672  0.23991  1.0000
  H   H40       1.0  0.77304  0.98455  0.07924000000000002  1.0000
  H   H41       1.0  0.56976  0.17418  0.60908  1.0000
  H   H42       1.0  0.69275  0.14988  0.52956  1.0000
  H   H43       1.0  0.7000000000000002  0.23992  0.56363  1.0000
  H   H44       1.0  0.2731  0.07925  0.51552  1.0000
  H   H45       1.0  0.56929  0.32585  0.8913  1.0000
  H   H46       1.0  0.69245  0.35012  0.9707500000000002  1.0000
  H   H47       1.0  0.69893  0.25999  0.9368700000000001  1.0000
  H   H48       1.0  0.27309  0.42069  0.98469  1.0000
  H   H49       1.0  0.43023  0.39092  0.82582  1.0000
  H   H50       1.0  0.30724  0.47043999999999997  0.8501200000000001  1.0000
  H   H51       1.0  0.2999900000000001  0.43636  0.7600700000000002  1.0000
  H   H52       1.0  0.72689  0.48447  0.92075  1.0000
  H   H53       1.0  0.43069  0.10869999999999999  0.67415  1.0000
  H   H54       1.0  0.30753  0.02924  0.6498700000000001  1.0000
  H   H55       1.0  0.30105  0.06313  0.7400000000000001  1.0000
  H   H56       1.0  0.72689  0.01531  0.57931  1.0000
  H   H57       1.0  0.9304400000000003  0.8259  0.10869000000000001  1.0000
  H   H58       1.0  0.8069100000000001  0.85016  0.02927  1.0000
  H   H59       1.0  0.8002700000000003  0.76008  0.06327  1.0000
  H   H60       1.0  0.22695  0.92075  0.015440000000000002  1.0000
  H   H61       1.0  0.93045  0.6743  0.39092  1.0000
  H   H62       1.0  0.80771  0.6499999999999999  0.47046000000000004  1.0000
  H   H63       1.0  0.80074  0.74008  0.43643000000000004  1.0000
  H   H64       1.0  0.22682  0.5793  0.48457000000000006  1.0000
  C   C1        1.0  0.80208  0.4213  0.68274  1.0000
  C   C2        1.0  0.63376  0.3784  0.66458  1.0000
  C   C3        1.0  0.34574  0.49074999999999996  0.5439300000000001  1.0000
  C   C4        1.0  0.80182  0.07841  0.8174200000000003  1.0000
  C   C5        1.0  0.63359  0.12129  0.83558  1.0000
  C   C6        1.0  0.34573  0.00924  0.9561  1.0000
  C   C7        1.0  0.30173  0.8174299999999999  0.42126  1.0000
  C   C8        1.0  0.13357  0.8357  0.3783000000000001  1.0000
  C   C9        1.0  0.8457100000000002  0.9561  0.49069000000000007  1.0000
  C   C10       1.0  0.30225  0.68268  0.07834  1.0000
  C   C11       1.0  0.13385  0.66463  0.12116  1.0000
  C   C12       1.0  0.84575  0.54395  0.00918  1.0000
  C   C13       1.0  0.6982500000000001  0.57874  0.18257000000000007  1.0000
  C   C14       1.0  0.86642  0.62169  0.1643  1.0000
  C   C15       1.0  0.15428  0.50931  0.043900000000000015  1.0000
  C   C16       1.0  0.69773  0.92165  0.31732  1.0000
  C   C17       1.0  0.8661400000000001  0.87883  0.33536  1.0000
  C   C18       1.0  0.15424  0.9908199999999999  0.45605  1.0000
  C   C19       1.0  0.19817  0.18257999999999996  0.9215800000000001  1.0000
  C   C20       1.0  0.36639  0.16442  0.87871  1.0000
  C   C21       1.0  0.65426  0.04389  0.99076  1.0000
  C   C22       1.0  0.19791  0.31726  0.57869  1.0000
  C   C23       1.0  0.36623  0.33541  0.6216  1.0000
  C   C24       1.0  0.65425  0.45607  0.50925  1.0000
  C   C25       1.0  0.19791  0.57869  0.31726000000000004  1.0000
  C   C26       1.0  0.36623  0.6216  0.33541  1.0000
  C   C27       1.0  0.65425  0.50925  0.45607  1.0000
  C   C28       1.0  0.19817  0.9215799999999998  0.18258  1.0000
  C   C29       1.0  0.36639  0.87871  0.16442  1.0000
  C   C30       1.0  0.65426  0.99076  0.043890000000000005  1.0000
  C   C31       1.0  0.6982500000000001  0.18257  0.57874  1.0000
  C   C32       1.0  0.86642  0.1643  0.62169  1.0000
  C   C33       1.0  0.15428  0.0439  0.50931  1.0000
  C   C34       1.0  0.69773  0.31732  0.92165  1.0000
  C   C35       1.0  0.8661400000000001  0.33535999999999994  0.87883  1.0000
  C   C36       1.0  0.15424  0.45605  0.9908200000000001  1.0000
  C   C37       1.0  0.30173  0.42126  0.8174300000000001  1.0000
  C   C38       1.0  0.13357  0.3783  0.8357  1.0000
  C   C39       1.0  0.8457100000000002  0.49069  0.9561  1.0000
  C   C40       1.0  0.30225  0.07834  0.68268  1.0000
  C   C41       1.0  0.13385  0.12116  0.66463  1.0000
  C   C42       1.0  0.84575  0.00918  0.54395  1.0000
  C   C43       1.0  0.80182  0.81742  0.07841  1.0000
  C   C44       1.0  0.63359  0.83558  0.12129  1.0000
  C   C45       1.0  0.34573  0.9561  0.00924  1.0000
  C   C46       1.0  0.80208  0.68274  0.4213000000000001  1.0000
  C   C47       1.0  0.63376  0.66458  0.37840000000000007  1.0000
  C   C48       1.0  0.34574  0.54393  0.49075  1.0000
  C   C49       1.0  0.49999  0.38969  0.6103100000000001  1.0000
  C   C50       1.0  0.49999  0.44573  0.55427  1.0000
  C   C51       1.0  0.49999  0.11011  0.8898900000000001  1.0000
  C   C52       1.0  0.49999  0.054169999999999996  0.94583  1.0000
  C   C53       1.0  0.99986  0.88993  0.38968  1.0000
  C   C54       1.0  0.9999600000000001  0.94588  0.44571  1.0000
  C   C55       1.0  0.00013  0.61032  0.11006  1.0000
  C   C56       1.0  2.999999999999999e-05  0.55428  0.05412000000000001  1.0000
  C   C57       1.0  0.49999  0.6103099999999999  0.3896900000000001  1.0000
  C   C58       1.0  0.49999  0.55427  0.44573000000000007  1.0000
  C   C59       1.0  0.49999  0.88989  0.11011  1.0000
  C   C60       1.0  0.49999  0.94583  0.05417  1.0000
  C   C61       1.0  0.00013000000000000004  0.11006  0.61032  1.0000
  C   C62       1.0  3.0000000000000004e-05  0.05412000000000001  0.55428  1.0000
  C   C63       1.0  0.99986  0.38967999999999997  0.88993  1.0000
  C   C64       1.0  0.9999600000000001  0.44571  0.9458800000000002  1.0000
  N   N1        1.0  0.58274  0.32104  0.70526  1.0000
  N   N2        1.0  0.58258  0.17865  0.7949600000000001  1.0000
  N   N3        1.0  0.08271  0.79528  0.3207900000000001  1.0000
  N   N4        1.0  0.08268  0.70547  0.17836  1.0000
  N   N5        1.0  0.91728  0.6792  0.20471  1.0000
  N   N6        1.0  0.9173100000000002  0.82164  0.29453  1.0000
  N   N7        1.0  0.4174  0.20503  0.8213500000000002  1.0000
  N   N8        1.0  0.41725  0.29474  0.67896  1.0000
  N   N9        1.0  0.41725  0.67896  0.29474  1.0000
  N   N10       1.0  0.4174  0.82135  0.20503  1.0000
  N   N11       1.0  0.91728  0.20471  0.6792000000000001  1.0000
  N   N12       1.0  0.9173100000000002  0.29453  0.8216400000000001  1.0000
  N   N13       1.0  0.08271  0.32078999999999996  0.79528  1.0000
  N   N14       1.0  0.08268  0.17836  0.70547  1.0000
  N   N15       1.0  0.58258  0.79496  0.17865  1.0000
  N   N16       1.0  0.58274  0.70526  0.32104  1.0000
