data_image0
_chemical_formula_structural       Zn4H24C48S8N8O16
_chemical_formula_sum              "Zn4 H24 C48 S8 N8 O16"
_cell_length_a       11.16199
_cell_length_b       12.83316
_cell_length_c       12.836090000000002
_cell_angle_alpha    62.375600000000006
_cell_angle_beta     84.41435999999999
_cell_angle_gamma    84.48935

_symmetry_space_group_name_H-M    'P 1'
_symmetry_Int_Tables_number       1

loop_
  _symmetry_equiv_pos_as_xyz
  'x,y,z'

loop_
  _atom_site_type_symbol
  _atom_site_label
  _atom_site_symmetry_multiplicity
  _atom_site_fract_x
  _atom_site_fract_y
  _atom_site_fract_z
  _atom_site_occupancy
  Zn  Zn1       1.0  0.13091000000000005  0.50233  0.97443  1.0000
  Zn  Zn2       1.0  0.3676200000000001  0.025540000000000007  0.49823  1.0000
  Zn  Zn3       1.0  0.8690900000000001  0.49766  0.025559999999999996  1.0000
  Zn  Zn4       1.0  0.6323900000000002  0.97446  0.50177  1.0000
  H   H1        1.0  0.24831000000000003  0.20246999999999998  0.30666  1.0000
  H   H2        1.0  0.87393  0.25447  0.39824000000000004  1.0000
  H   H3        1.0  0.90658  0.09437999999999999  0.60186  1.0000
  H   H4        1.0  0.80607  0.18389999999999992  0.97048  1.0000
  H   H5        1.0  0.16189000000000003  0.27945  0.81119  1.0000
  H   H6        1.0  0.16834  0.11470999999999998  0.75453  1.0000
  H   H7        1.0  0.25127  0.69372  0.79796  1.0000
  H   H8        1.0  0.6252799999999997  0.60235  0.74531  1.0000
  H   H9        1.0  0.59221  0.39852000000000004  0.90543  1.0000
  H   H10       1.0  0.69582  0.030140000000000024  0.81608  1.0000
  H   H11       1.0  0.33999000000000007  0.18792  0.72017  1.0000
  H   H12       1.0  0.3325099999999999  0.24477999999999994  0.8848500000000001  1.0000
  H   H13       1.0  0.7516900000000002  0.7975299999999997  0.69334  1.0000
  H   H14       1.0  0.12607  0.74552  0.60177  1.0000
  H   H15       1.0  0.09343  0.90562  0.39813999999999994  1.0000
  H   H16       1.0  0.19393999999999997  0.8161  0.02952  1.0000
  H   H17       1.0  0.83812  0.7205400000000001  0.18882  1.0000
  H   H18       1.0  0.8316700000000001  0.8852899999999999  0.24546999999999997  1.0000
  H   H19       1.0  0.74874  0.30628  0.20204  1.0000
  H   H20       1.0  0.37472999999999995  0.39765  0.25469  1.0000
  H   H21       1.0  0.40779  0.60148  0.09458  1.0000
  H   H22       1.0  0.30418000000000006  0.96986  0.18392  1.0000
  H   H23       1.0  0.6600200000000003  0.81208  0.27983  1.0000
  H   H24       1.0  0.6674900000000001  0.75522  0.11514999999999999  1.0000
  C   C1        1.0  0.043899999999999995  0.33785  0.21365  1.0000
  C   C2        1.0  0.05959  0.24258000000000002  0.33683  1.0000
  C   C3        1.0  0.17047000000000004  0.18126999999999993  0.36933  1.0000
  C   C4        1.0  0.9626400000000002  0.21034999999999998  0.42175000000000007  1.0000
  C   C5        1.0  0.98044  0.12151000000000002  0.53471  1.0000
  C   C6        1.0  0.09500999999999998  0.06431000000000005  0.56103  1.0000
  C   C7        1.0  0.9893400000000001  0.06595000000000004  0.83512  1.0000
  C   C8        1.0  0.8878000000000001  0.17108  0.92305  1.0000
  C   C9        1.0  0.98432  0.24349000000000007  0.89596  1.0000
  C   C10       1.0  0.08652999999999998  0.22359000000000007  0.83359  1.0000
  C   C11       1.0  0.9826900000000001  0.33575000000000005  0.93662  1.0000
  C   C12       1.0  0.09013000000000003  0.13371999999999995  0.80159  1.0000
  C   C13       1.0  0.45547999999999994  0.78678  0.6623  1.0000
  C   C14       1.0  0.43979999999999997  0.66364  0.75774  1.0000
  C   C15       1.0  0.32889  0.6309699999999999  0.8191700000000001  1.0000
  C   C16       1.0  0.5365999999999999  0.57877  0.78973  1.0000
  C   C17       1.0  0.51856  0.46572  0.87844  1.0000
  C   C18       1.0  0.4039  0.43915000000000004  0.9356799999999998  1.0000
  C   C19       1.0  0.5114099999999999  0.1649500000000001  0.9337199999999999  1.0000
  C   C20       1.0  0.6138300000000001  0.07733000000000011  0.8286699999999999  1.0000
  C   C21       1.0  0.51757  0.10377999999999996  0.7562800000000001  1.0000
  C   C22       1.0  0.41509  0.16585  0.77608  1.0000
  C   C23       1.0  0.51931  0.06319000000000002  0.66392  1.0000
  C   C24       1.0  0.4108999999999999  0.19794999999999988  0.8659000000000001  1.0000
  C   C25       1.0  0.9560899999999999  0.66215  0.78635  1.0000
  C   C26       1.0  0.94041  0.75742  0.66318  1.0000
  C   C27       1.0  0.8295300000000001  0.8187299999999998  0.63068  1.0000
  C   C28       1.0  0.037360000000000004  0.78965  0.57825  1.0000
  C   C29       1.0  0.019559999999999998  0.87848  0.46529  1.0000
  C   C30       1.0  0.9049900000000001  0.93569  0.43896999999999997  1.0000
  C   C31       1.0  0.010659999999999985  0.9340500000000002  0.16488  1.0000
  C   C32       1.0  0.11221000000000002  0.82892  0.07695  1.0000
  C   C33       1.0  0.01569  0.75651  0.10404  1.0000
  C   C34       1.0  0.91347  0.77641  0.16641  1.0000
  C   C35       1.0  0.017290000000000007  0.66425  0.06339  1.0000
  C   C36       1.0  0.9098700000000001  0.8662799999999999  0.19841  1.0000
  C   C37       1.0  0.54451  0.21321999999999994  0.3377  1.0000
  C   C38       1.0  0.56021  0.33636  0.24226  1.0000
  C   C39       1.0  0.67111  0.3690399999999999  0.18082999999999996  1.0000
  C   C40       1.0  0.4634  0.4212299999999999  0.21027  1.0000
  C   C41       1.0  0.48144999999999993  0.53428  0.12155999999999999  1.0000
  C   C42       1.0  0.5961  0.5608499999999997  0.06432  1.0000
  C   C43       1.0  0.4886  0.83505  0.06629  1.0000
  C   C44       1.0  0.38617000000000007  0.92267  0.17133  1.0000
  C   C45       1.0  0.4824399999999999  0.89622  0.24371999999999996  1.0000
  C   C46       1.0  0.58492  0.83415  0.22391999999999998  1.0000
  C   C47       1.0  0.48069  0.93681  0.33608  1.0000
  C   C48       1.0  0.5891  0.8020399999999999  0.1341  1.0000
  S   S1        1.0  0.9757400000000002  0.9450000000000003  0.8041099999999999  1.0000
  S   S2        1.0  0.12854000000000002  0.9477199999999999  0.70248  1.0000
  S   S3        1.0  0.52366  0.19624  0.05472  1.0000
  S   S4        1.0  0.37035000000000007  0.2972099999999999  0.051870000000000006  1.0000
  S   S5        1.0  0.024260000000000004  0.055  0.1959  1.0000
  S   S6        1.0  0.87146  0.05228000000000001  0.29752  1.0000
  S   S7        1.0  0.47634000000000004  0.8037600000000001  0.9452799999999999  1.0000
  S   S8        1.0  0.6296499999999999  0.70279  0.94813  1.0000
  N   N1        1.0  0.89011  0.08312999999999997  0.89366  1.0000
  N   N2        1.0  0.18897  0.09368999999999997  0.47912000000000005  1.0000
  N   N3        1.0  0.61104  0.10693000000000004  0.91654  1.0000
  N   N4        1.0  0.3101000000000001  0.52108  0.9065699999999999  1.0000
  N   N5        1.0  0.10989000000000004  0.91687  0.10635  1.0000
  N   N6        1.0  0.81104  0.90631  0.52088  1.0000
  N   N7        1.0  0.38895999999999986  0.8930700000000001  0.08346  1.0000
  N   N8        1.0  0.6899  0.47891999999999996  0.09344  1.0000
  O   O1        1.0  0.88166  0.36575  0.97367  1.0000
  O   O2        1.0  0.08462999999999998  0.376  0.93127  1.0000
  O   O3        1.0  0.9357199999999998  0.37089000000000005  0.18531  1.0000
  O   O4        1.0  0.13933  0.37694000000000005  0.14856  1.0000
  O   O5        1.0  0.62015  0.025939999999999967  0.63395  1.0000
  O   O6        1.0  0.4175400000000001  0.0688  0.62351  1.0000
  O   O7        1.0  0.56364  0.8150999999999999  0.62898  1.0000
  O   O8        1.0  0.35987  0.8515899999999998  0.62343  1.0000
  O   O9        1.0  0.11835999999999999  0.6342400000000001  0.02633  1.0000
  O   O10       1.0  0.91538  0.6240099999999998  0.06873  1.0000
  O   O11       1.0  0.06430000000000001  0.6291  0.8146999999999999  1.0000
  O   O12       1.0  0.86069  0.62306  0.85144  1.0000
  O   O13       1.0  0.3798500000000001  0.97406  0.36604999999999993  1.0000
  O   O14       1.0  0.5824600000000002  0.9312  0.37649  1.0000
  O   O15       1.0  0.43637000000000004  0.18490000000000004  0.37101999999999996  1.0000
  O   O16       1.0  0.64014  0.14839999999999998  0.37657  1.0000
