data_image0
_chemical_formula_structural       Co4H32C52N4O20
_chemical_formula_sum              "Co4 H32 C52 N4 O20"
_cell_length_a       12.48651
_cell_length_b       12.44609
_cell_length_c       13.614880000000001
_cell_angle_alpha    115.27041999999999
_cell_angle_beta     116.51597
_cell_angle_gamma    92.8023

_symmetry_space_group_name_H-M    'P 1'
_symmetry_Int_Tables_number       1

loop_
  _symmetry_equiv_pos_as_xyz
  'x,y,z'

loop_
  _atom_site_type_symbol
  _atom_site_label
  _atom_site_symmetry_multiplicity
  _atom_site_fract_x
  _atom_site_fract_y
  _atom_site_fract_z
  _atom_site_occupancy
  Co  Co1       1.0  0.55484  0.3056299999999999  0.24933  1.0000
  Co  Co2       1.0  0.4448799999999999  0.6942399999999999  0.75055  1.0000
  Co  Co3       1.0  0.49986999999999987  0.00011999999999999998  0.00021  1.0000
  Co  Co4       1.0  0.5002099999999999  0.50017  0.50033  1.0000
  H   H1        1.0  0.8915299999999998  0.14019  0.15337  1.0000
  H   H2        1.0  0.11634999999999995  0.25711  0.25893  1.0000
  H   H3        1.0  0.12547  0.46232  0.60938  1.0000
  H   H4        1.0  0.89872  0.35044  0.50119  1.0000
  H   H5        1.0  0.27115  0.20496  0.01024  1.0000
  H   H6        1.0  0.047960000000000114  0.15011000000000008  0.9487100000000002  1.0000
  H   H7        1.0  0.12897  0.89374  0.09181  1.0000
  H   H8        1.0  0.34809000000000007  0.9579199999999999  0.14238  1.0000
  H   H9        1.0  0.48682000000000003  0.73946  0.34653  1.0000
  H   H10       1.0  0.49837  0.8581800000000002  0.23994  1.0000
  H   H11       1.0  0.3530299999999999  0.51414  0.8908500000000001  1.0000
  H   H12       1.0  0.34927  0.39646999999999993  0.00034  1.0000
  H   H13       1.0  0.6931899999999999  0.26092  0.48726  1.0000
  H   H14       1.0  0.7011499999999998  0.09960999999999999  0.5505  1.0000
  H   H15       1.0  0.30201  0.03705000000000002  0.40793000000000007  1.0000
  H   H16       1.0  0.31548  0.20601999999999998  0.35672  1.0000
  H   H17       1.0  0.10833000000000008  0.85999  0.8464400000000001  1.0000
  H   H18       1.0  0.88356  0.74274  0.74083  1.0000
  H   H19       1.0  0.87465  0.53793  0.39037  1.0000
  H   H20       1.0  0.10136999999999996  0.6498899999999999  0.49879  1.0000
  H   H21       1.0  0.72845  0.7951400000000001  0.9898900000000002  1.0000
  H   H22       1.0  0.9515599999999997  0.84984  0.051190000000000006  1.0000
  H   H23       1.0  0.8703999999999998  0.10613  0.90792  1.0000
  H   H24       1.0  0.6513299999999999  0.04185999999999999  0.85749  1.0000
  H   H25       1.0  0.51346  0.26063  0.65359  1.0000
  H   H26       1.0  0.50159  0.14192000000000005  0.76018  1.0000
  H   H27       1.0  0.6470699999999998  0.48591  0.10928000000000002  1.0000
  H   H28       1.0  0.6510799999999999  0.6036  0.9998  1.0000
  H   H29       1.0  0.30713  0.73907  0.51274  1.0000
  H   H30       1.0  0.29943  0.90026  0.44944  1.0000
  H   H31       1.0  0.6983599999999999  0.96262  0.59203  1.0000
  H   H32       1.0  0.6848499999999997  0.79379  0.64335  1.0000
  C   C1        1.0  0.74331  0.17581999999999998  0.25234  1.0000
  C   C2        1.0  0.88149  0.23584  0.32066  1.0000
  C   C3        1.0  0.9441899999999998  0.20925  0.25339  1.0000
  C   C4        1.0  0.06933999999999997  0.27411  0.3125  1.0000
  C   C5        1.0  0.13524000000000005  0.36583000000000004  0.44154000000000004  1.0000
  C   C6        1.0  0.07365999999999999  0.3900799999999999  0.50993  1.0000
  C   C7        1.0  0.9478999999999999  0.32677999999999996  0.4497900000000001  1.0000
  C   C8        1.0  0.2674  0.44344  0.50625  1.0000
  C   C9        1.0  0.23184999999999997  0.13742  0.02472  1.0000
  C   C10       1.0  0.10919999999999996  0.10539000000000003  0.99341  1.0000
  C   C11       1.0  0.06505  0.01785  0.0171  1.0000
  C   C12       1.0  0.15405  0.96456  0.07289  1.0000
  C   C13       1.0  0.27632999999999996  0.9981  0.10339  1.0000
  C   C14       1.0  0.42272  0.49141  0.24829  1.0000
  C   C15       1.0  0.41496999999999995  0.5612  0.17988  1.0000
  C   C16       1.0  0.45574999999999993  0.6916499999999999  0.24654000000000004  1.0000
  C   C17       1.0  0.4618299999999999  0.7572  0.18703  1.0000
  C   C18       1.0  0.4246  0.6929899999999999  0.05813  1.0000
  C   C19       1.0  0.38028  0.5625  0.99023  1.0000
  C   C20       1.0  0.37678  0.49745  0.05085  1.0000
  C   C21       1.0  0.43795000000000006  0.7603199999999999  0.9935300000000001  1.0000
  C   C22       1.0  0.61183  0.20704  0.47359  1.0000
  C   C23       1.0  0.6116099999999999  0.11583  0.50554  1.0000
  C   C24       1.0  0.50068  0.04780999999999999  0.48215  1.0000
  C   C25       1.0  0.39148  0.08093  0.42634  1.0000
  C   C26       1.0  0.3942999999999999  0.17279999999999998  0.39551  1.0000
  C   C27       1.0  0.25669000000000003  0.8241399999999998  0.7473600000000001  1.0000
  C   C28       1.0  0.11848000000000004  0.76424  0.67913  1.0000
  C   C29       1.0  0.055780000000000045  0.7908099999999999  0.74643  1.0000
  C   C30       1.0  0.9306499999999998  0.72579  0.68734  1.0000
  C   C31       1.0  0.86472  0.63402  0.55827  1.0000
  C   C32       1.0  0.9262399999999997  0.6099700000000001  0.4898600000000001  1.0000
  C   C33       1.0  0.05198000000000004  0.6733099999999999  0.55  1.0000
  C   C34       1.0  0.73262  0.55628  0.49356  1.0000
  C   C35       1.0  0.7676700000000001  0.86258  0.9752700000000001  1.0000
  C   C36       1.0  0.8902799999999997  0.89451  0.00639  1.0000
  C   C37       1.0  0.93433  0.9818899999999999  0.9824700000000001  1.0000
  C   C38       1.0  0.8453199999999997  0.03522000000000005  0.92676  1.0000
  C   C39       1.0  0.72311  0.0017200000000000366  0.8965  1.0000
  C   C40       1.0  0.57742  0.50885  0.75208  1.0000
  C   C41       1.0  0.5853199999999998  0.43896000000000013  0.8204000000000001  1.0000
  C   C42       1.0  0.54441  0.30849000000000004  0.75357  1.0000
  C   C43       1.0  0.53816  0.24290000000000006  0.81299  1.0000
  C   C44       1.0  0.57523  0.30702999999999997  0.9418400000000001  1.0000
  C   C45       1.0  0.6198  0.43749  0.00991  1.0000
  C   C46       1.0  0.62346  0.50262  0.94941  1.0000
  C   C47       1.0  0.56149  0.23965  0.0062499999999999995  1.0000
  C   C48       1.0  0.38855  0.79299  0.52649  1.0000
  C   C49       1.0  0.38898  0.8842200000000001  0.49460000000000004  1.0000
  C   C50       1.0  0.4998799999999999  0.9521099999999999  0.51788  1.0000
  C   C51       1.0  0.6089499999999999  0.9189199999999998  0.57377  1.0000
  C   C52       1.0  0.60602  0.8270199999999999  0.60455  1.0000
  N   N1        1.0  0.31473999999999996  0.08588  0.08177  1.0000
  N   N2        1.0  0.50325  0.23265  0.41649  1.0000
  N   N3        1.0  0.6846499999999999  0.9138499999999999  0.9179600000000001  1.0000
  N   N4        1.0  0.49706  0.76735  0.58368  1.0000
  O   O1        1.0  0.6879599999999998  0.2251  0.31298  1.0000
  O   O2        1.0  0.6904399999999999  0.08461  0.13966  1.0000
  O   O3        1.0  0.31673999999999997  0.52445  0.62303  1.0000
  O   O4        1.0  0.3185099999999999  0.42292999999999986  0.4393699999999999  1.0000
  O   O5        1.0  0.43407  0.11992999999999998  0.11611  1.0000
  O   O6        1.0  0.41043999999999997  0.3747899999999999  0.18752  1.0000
  O   O7        1.0  0.4439599999999999  0.55148  0.3607  1.0000
  O   O8        1.0  0.4035500000000002  0.6922300000000001  0.8772900000000001  1.0000
  O   O9        1.0  0.48327999999999993  0.8788699999999998  0.06001  1.0000
  O   O10       1.0  0.50288  0.31815000000000004  0.38249000000000005  1.0000
  O   O11       1.0  0.31195  0.7746299999999999  0.68663  1.0000
  O   O12       1.0  0.30954000000000004  0.9154200000000001  0.8599600000000001  1.0000
  O   O13       1.0  0.6831  0.47544  0.3767  1.0000
  O   O14       1.0  0.6817999999999997  0.57684  0.56074  1.0000
  O   O15       1.0  0.56535  0.87994  0.88383  1.0000
  O   O16       1.0  0.5894199999999999  0.6253899999999999  0.8127399999999999  1.0000
  O   O17       1.0  0.55614  0.44881  0.63963  1.0000
  O   O18       1.0  0.59547  0.30771  0.12236000000000001  1.0000
  O   O19       1.0  0.51623  0.12109  0.93977  1.0000
  O   O20       1.0  0.4972399999999999  0.68177  0.61753  1.0000
