data_image0
_chemical_formula_structural       Zn8H32C44O28
_chemical_formula_sum              "Zn8 H32 C44 O28"
_cell_length_a       10.3807
_cell_length_b       12.21653
_cell_length_c       20.15618
_cell_angle_alpha    90.00893
_cell_angle_beta     90.0
_cell_angle_gamma    90.01474

_symmetry_space_group_name_H-M    'P 1'
_symmetry_Int_Tables_number       1

loop_
  _symmetry_equiv_pos_as_xyz
  'x,y,z'

loop_
  _atom_site_type_symbol
  _atom_site_label
  _atom_site_symmetry_multiplicity
  _atom_site_fract_x
  _atom_site_fract_y
  _atom_site_fract_z
  _atom_site_occupancy
  Zn  Zn1       1.0  0.148  0.67618  0.01109  1.0000
  Zn  Zn2       1.0  0.45541999999999994  0.60132  0.00803  1.0000
  Zn  Zn3       1.0  0.35196  0.32397999999999993  0.51029  1.0000
  Zn  Zn4       1.0  0.04473  0.39862  0.50709  1.0000
  Zn  Zn5       1.0  0.85169  0.17580999999999994  0.48976  1.0000
  Zn  Zn6       1.0  0.54443  0.10005999999999997  0.49301999999999996  1.0000
  Zn  Zn7       1.0  0.64816  0.8239599999999998  0.98894  1.0000
  Zn  Zn8       1.0  0.95578  0.8998999999999999  0.9919  1.0000
  H   H1        1.0  0.05731  0.56463  0.82862  1.0000
  H   H2        1.0  0.4555199999999999  0.47323  0.8113599999999999  1.0000
  H   H3        1.0  0.02284  0.52008  0.70832  1.0000
  H   H4        1.0  0.42072  0.4284199999999999  0.69096  1.0000
  H   H5        1.0  0.24436  0.9779199999999999  0.9925399999999999  1.0000
  H   H6        1.0  0.1445  0.9505699999999998  0.87892  1.0000
  H   H7        1.0  0.31692  0.9494499999999998  0.87611  1.0000
  H   H8        1.0  0.22877  0.8239599999999998  0.8710799999999999  1.0000
  H   H9        1.0  0.4426800000000001  0.43537  0.32862  1.0000
  H   H10       1.0  0.04444  0.5267799999999999  0.31136  1.0000
  H   H11       1.0  0.47715  0.4799199999999999  0.20833  1.0000
  H   H12       1.0  0.07927  0.57158  0.19095  1.0000
  H   H13       1.0  0.25563  0.022069999999999992  0.49251999999999996  1.0000
  H   H14       1.0  0.35557  0.049439999999999984  0.37892  1.0000
  H   H15       1.0  0.18314  0.05061  0.37616  1.0000
  H   H16       1.0  0.27125  0.17604999999999998  0.37107  1.0000
  H   H17       1.0  0.94264  0.06461  0.6714  1.0000
  H   H18       1.0  0.54445  0.9730199999999999  0.68868  1.0000
  H   H19       1.0  0.9771700000000001  0.020129999999999995  0.79171  1.0000
  H   H20       1.0  0.57926  0.9283999999999998  0.80914  1.0000
  H   H21       1.0  0.75573  0.47768  0.50761  1.0000
  H   H22       1.0  0.85538  0.4507399999999999  0.62129  1.0000
  H   H23       1.0  0.68281  0.4497  0.62418  1.0000
  H   H24       1.0  0.77096  0.32419  0.62912  1.0000
  H   H25       1.0  0.55734  0.93538  0.17137  1.0000
  H   H26       1.0  0.95556  0.02698  0.18867  1.0000
  H   H27       1.0  0.52285  0.9798599999999998  0.29168  1.0000
  H   H28       1.0  0.9206900000000001  0.07158  0.3091  1.0000
  H   H29       1.0  0.74436  0.52219  0.00759  1.0000
  H   H30       1.0  0.64459  0.54925  0.12128999999999998  1.0000
  H   H31       1.0  0.8170600000000001  0.55036  0.12409  1.0000
  H   H32       1.0  0.729  0.67585  0.12909  1.0000
  C   C1        1.0  0.27974  0.55416  0.89789  1.0000
  C   C2        1.0  0.25889  0.52248  0.82683  1.0000
  C   C3        1.0  0.1362  0.53506  0.7980399999999999  1.0000
  C   C4        1.0  0.3616  0.4832999999999999  0.78833  1.0000
  C   C5        1.0  0.11707000000000001  0.51052  0.73121  1.0000
  C   C6        1.0  0.34242  0.45865999999999996  0.72167  1.0000
  C   C7        1.0  0.22041000000000002  0.47296  0.69257  1.0000
  C   C8        1.0  0.20467  0.44615999999999995  0.6205  1.0000
  C   C9        1.0  0.35971  0.83441  0.9879399999999999  1.0000
  C   C10       1.0  0.23665  0.8959  0.97  1.0000
  C   C11       1.0  0.23135  0.9056799999999998  0.89389  1.0000
  C   C12       1.0  0.22036000000000003  0.44594  0.39749999999999996  1.0000
  C   C13       1.0  0.24114  0.4776399999999999  0.32668  1.0000
  C   C14       1.0  0.36386  0.4649499999999999  0.29802  1.0000
  C   C15       1.0  0.13832  0.51675  0.28831  1.0000
  C   C16       1.0  0.38296  0.48947  0.23123999999999997  1.0000
  C   C17       1.0  0.15748  0.54135  0.22171000000000002  1.0000
  C   C18       1.0  0.27947  0.527  0.19269  1.0000
  C   C19       1.0  0.29519  0.55382  0.12072999999999999  1.0000
  C   C20       1.0  0.14019  0.16547999999999996  0.48794  1.0000
  C   C21       1.0  0.26345  0.10414  0.47015000000000007  1.0000
  C   C22       1.0  0.2688  0.09439  0.39395  1.0000
  C   C23       1.0  0.7207  0.05365  0.60261  1.0000
  C   C24       1.0  0.74121  0.022019999999999994  0.67342  1.0000
  C   C25       1.0  0.86392  0.03485  0.70203  1.0000
  C   C26       1.0  0.63833  0.98293  0.71175  1.0000
  C   C27       1.0  0.8830300000000001  0.01042  0.76879  1.0000
  C   C28       1.0  0.65752  0.9584699999999998  0.77836  1.0000
  C   C29       1.0  0.77951  0.97286  0.80733  1.0000
  C   C30       1.0  0.79539  0.9461399999999999  0.87924  1.0000
  C   C31       1.0  0.64024  0.33422  0.51227  1.0000
  C   C32       1.0  0.76337  0.39575  0.53019  1.0000
  C   C33       1.0  0.7684  0.4059199999999999  0.60634  1.0000
  C   C34       1.0  0.77934  0.94634  0.10197  1.0000
  C   C35       1.0  0.75889  0.97778  0.17311  1.0000
  C   C36       1.0  0.63622  0.9650999999999998  0.20191  1.0000
  C   C37       1.0  0.86159  0.01697  0.21165  1.0000
  C   C38       1.0  0.61701  0.98956  0.26874  1.0000
  C   C39       1.0  0.84236  0.041489999999999985  0.27832  1.0000
  C   C40       1.0  0.72033  0.02715  0.30739  1.0000
  C   C41       1.0  0.70451  0.05394  0.37942  1.0000
  C   C42       1.0  0.85975  0.6658  0.0124  1.0000
  C   C43       1.0  0.73663  0.60417  0.03008  1.0000
  C   C44       1.0  0.73146  0.5941599999999999  0.10626  1.0000
  O   O1        1.0  0.1816  0.5894199999999999  0.92885  1.0000
  O   O2        1.0  0.39447999999999994  0.54412  0.9216000000000001  1.0000
  O   O3        1.0  0.09322  0.4617599999999999  0.59375  1.0000
  O   O4        1.0  0.30442  0.4104299999999999  0.59147  1.0000
  O   O5        1.0  0.34474  0.73805  0.01212  1.0000
  O   O6        1.0  0.46623  0.8794799999999999  0.97612  1.0000
  O   O7        1.0  0.12774  0.8396299999999998  0.9965299999999999  1.0000
  O   O8        1.0  0.31862  0.41052  0.42823000000000006  1.0000
  O   O9        1.0  0.10549  0.4559  0.421  1.0000
  O   O10       1.0  0.40693  0.53821  0.09437  1.0000
  O   O11       1.0  0.19573  0.58934  0.09137  1.0000
  O   O12       1.0  0.15517  0.26175  0.51234  1.0000
  O   O13       1.0  0.03377  0.12081999999999998  0.4755  1.0000
  O   O14       1.0  0.37205  0.16017  0.49742  1.0000
  O   O15       1.0  0.8190199999999999  0.08963  0.57215  1.0000
  O   O16       1.0  0.60613  0.0433  0.5789  1.0000
  O   O17       1.0  0.90717  0.9617199999999998  0.90551  1.0000
  O   O18       1.0  0.69592  0.9105399999999999  0.9086999999999998  1.0000
  O   O19       1.0  0.65507  0.23784  0.4879299999999999  1.0000
  O   O20       1.0  0.534  0.3790399999999999  0.52465  1.0000
  O   O21       1.0  0.8722500000000001  0.33932  0.50385  1.0000
  O   O22       1.0  0.68104  0.91059  0.0713  1.0000
  O   O23       1.0  0.89365  0.9568799999999997  0.07791  1.0000
  O   O24       1.0  0.59305  0.03835  0.40617  1.0000
  O   O25       1.0  0.80432  0.08982  0.40842  1.0000
  O   O26       1.0  0.84484  0.76266  0.9889799999999999  1.0000
  O   O27       1.0  0.9661  0.62057  0.02397  1.0000
  O   O28       1.0  0.62791  0.66047  0.00341  1.0000
