data_image0
_chemical_formula_structural       Y4H32C48N8O24
_chemical_formula_sum              "Y4 H32 C48 N8 O24"
_cell_length_a       10.79403
_cell_length_b       10.77456
_cell_length_c       18.27982
_cell_angle_alpha    73.74309
_cell_angle_beta     73.67506
_cell_angle_gamma    65.87609

_symmetry_space_group_name_H-M    'P 1'
_symmetry_Int_Tables_number       1

loop_
  _symmetry_equiv_pos_as_xyz
  'x,y,z'

loop_
  _atom_site_type_symbol
  _atom_site_label
  _atom_site_symmetry_multiplicity
  _atom_site_fract_x
  _atom_site_fract_y
  _atom_site_fract_z
  _atom_site_occupancy
  Y   Y1        1.0  0.5424900000000001  0.44599  0.59825  1.0000
  Y   Y2        1.0  0.5547099999999999  0.4566299999999999  0.90163  1.0000
  Y   Y3        1.0  0.45751  0.5539999999999998  0.40175  1.0000
  Y   Y4        1.0  0.44528000000000006  0.54337  0.09836999999999999  1.0000
  H   H1        1.0  0.9753399999999999  0.3681  0.50735  1.0000
  H   H2        1.0  0.20296000000000008  0.39649999999999996  0.45089  1.0000
  H   H3        1.0  0.40223000000000003  0.23996  0.43128  1.0000
  H   H4        1.0  0.12457000000000001  0.46841000000000005  0.2217  1.0000
  H   H5        1.0  0.77716  0.46910999999999997  0.28747  1.0000
  H   H6        1.0  0.9005799999999999  0.51063  0.20992  1.0000
  H   H7        1.0  0.26787000000000005  0.16064999999999996  0.38211  1.0000
  H   H8        1.0  0.31802  0.9885999999999999  0.37933  1.0000
  H   H9        1.0  0.6308500000000001  0.024200000000000044  0.9930599999999999  1.0000
  H   H10       1.0  0.60331  0.79608  0.04971  1.0000
  H   H11       1.0  0.76059  0.59712  0.06943  1.0000
  H   H12       1.0  0.5319900000000001  0.8753899999999999  0.27884  1.0000
  H   H13       1.0  0.5297  0.22369  0.21285999999999994  1.0000
  H   H14       1.0  0.48919  0.09995  0.2905  1.0000
  H   H15       1.0  0.83992  0.7329  0.11815  1.0000
  H   H16       1.0  0.011980000000000022  0.68195  0.12063999999999998  1.0000
  H   H17       1.0  0.02466000000000004  0.6319  0.4926499999999999  1.0000
  H   H18       1.0  0.79704  0.60349  0.5491099999999999  1.0000
  H   H19       1.0  0.5977699999999999  0.76004  0.56872  1.0000
  H   H20       1.0  0.87544  0.5315899999999999  0.7783  1.0000
  H   H21       1.0  0.2228399999999998  0.53089  0.7125299999999999  1.0000
  H   H22       1.0  0.09943000000000003  0.48937  0.79008  1.0000
  H   H23       1.0  0.73213  0.8393399999999999  0.61789  1.0000
  H   H24       1.0  0.6819899999999999  0.011390000000000022  0.62067  1.0000
  H   H25       1.0  0.3691599999999999  0.9758000000000001  0.006939999999999998  1.0000
  H   H26       1.0  0.3967  0.20391000000000004  0.9502899999999999  1.0000
  H   H27       1.0  0.23942000000000013  0.40286999999999995  0.9305699999999999  1.0000
  H   H28       1.0  0.46801000000000004  0.12460000000000003  0.72115  1.0000
  H   H29       1.0  0.4703099999999999  0.7762900000000001  0.78714  1.0000
  H   H30       1.0  0.51081  0.9000399999999998  0.7095  1.0000
  H   H31       1.0  0.16007999999999997  0.26709  0.88185  1.0000
  H   H32       1.0  0.9880200000000001  0.31804000000000004  0.87936  1.0000
  C   C1        1.0  0.95828  0.43715  0.31499  1.0000
  C   C2        1.0  0.5200600000000001  0.10931999999999997  0.51839  1.0000
  C   C3        1.0  0.009850000000000027  0.38919  0.44483  1.0000
  C   C4        1.0  0.13685000000000005  0.40369000000000005  0.41364999999999996  1.0000
  C   C5        1.0  0.17647000000000004  0.43424999999999997  0.33205999999999997  1.0000
  C   C6        1.0  0.44356  0.13419  0.46191  1.0000
  C   C7        1.0  0.9171399999999993  0.40940000000000004  0.39777  1.0000
  C   C8        1.0  0.42009999999999975  0.029660000000000002  0.44252  1.0000
  C   C9        1.0  0.53341  0.22925999999999994  0.53601  1.0000
  C   C10       1.0  0.77542  0.41742  0.43651  1.0000
  C   C11       1.0  0.09095  0.4462499999999999  0.28427  1.0000
  C   C12       1.0  0.3090900000000001  0.45828  0.29575  1.0000
  C   C13       1.0  0.56215  0.041999999999999996  0.18531  1.0000
  C   C14       1.0  0.89074  0.47968000000000005  0.9818  1.0000
  C   C15       1.0  0.6098700000000001  0.9898  0.05559  1.0000
  C   C16       1.0  0.5959799999999998  0.86247  0.08692  1.0000
  C   C17       1.0  0.5660999999999999  0.8227300000000002  0.16854  1.0000
  C   C18       1.0  0.8660399999999999  0.55631  0.03836  1.0000
  C   C19       1.0  0.58962  0.08297  0.10252  1.0000
  C   C20       1.0  0.97045  0.58001  0.05756  1.0000
  C   C21       1.0  0.7709199999999999  0.4662799999999999  0.9640700000000001  1.0000
  C   C22       1.0  0.58183  0.22478  0.06365  1.0000
  C   C23       1.0  0.55377  0.90884  0.21625  1.0000
  C   C24       1.0  0.54338  0.6892  0.20446  1.0000
  C   C25       1.0  0.041719999999999986  0.56285  0.68501  1.0000
  C   C26       1.0  0.47994999999999993  0.8906799999999999  0.4816099999999999  1.0000
  C   C27       1.0  0.99015  0.6108  0.55517  1.0000
  C   C28       1.0  0.86315  0.5963  0.58635  1.0000
  C   C29       1.0  0.8235299999999999  0.5657400000000001  0.66794  1.0000
  C   C30       1.0  0.5564400000000002  0.8658  0.5380899999999998  1.0000
  C   C31       1.0  0.08286000000000003  0.5905999999999999  0.60223  1.0000
  C   C32       1.0  0.5799  0.9703399999999998  0.55749  1.0000
  C   C33       1.0  0.46659999999999996  0.7707300000000001  0.464  1.0000
  C   C34       1.0  0.2245800000000001  0.58258  0.56349  1.0000
  C   C35       1.0  0.90906  0.55375  0.71573  1.0000
  C   C36       1.0  0.6909  0.5417399999999999  0.70426  1.0000
  C   C37       1.0  0.43784999999999996  0.95799  0.8146899999999999  1.0000
  C   C38       1.0  0.10925999999999997  0.52031  0.0182  1.0000
  C   C39       1.0  0.39012999999999987  0.01018999999999998  0.9444200000000001  1.0000
  C   C40       1.0  0.4040199999999999  0.13751999999999998  0.91307  1.0000
  C   C41       1.0  0.43389  0.17727000000000004  0.83146  1.0000
  C   C42       1.0  0.13396000000000002  0.44368  0.9616399999999999  1.0000
  C   C43       1.0  0.4103900000000002  0.91703  0.89748  1.0000
  C   C44       1.0  0.029549999999999937  0.41999  0.94244  1.0000
  C   C45       1.0  0.22907999999999998  0.53371  0.03593  1.0000
  C   C46       1.0  0.41816999999999976  0.7752200000000001  0.93635  1.0000
  C   C47       1.0  0.44623  0.09115999999999999  0.78375  1.0000
  C   C48       1.0  0.45663  0.31079  0.79554  1.0000
  N   N1        1.0  0.8783799999999998  0.4548  0.26419  1.0000
  N   N2        1.0  0.34547999999999995  0.06596  0.38367  1.0000
  N   N3        1.0  0.5444299999999999  0.12231  0.23606  1.0000
  N   N4        1.0  0.9343299999999999  0.65493  0.1164  1.0000
  N   N5        1.0  0.12161999999999999  0.5451900000000001  0.73581  1.0000
  N   N6        1.0  0.6545199999999999  0.9340399999999999  0.61633  1.0000
  N   N7        1.0  0.45557000000000003  0.8776899999999999  0.76394  1.0000
  N   N8        1.0  0.06567999999999996  0.34506000000000003  0.88359  1.0000
  O   O1        1.0  0.34451999999999994  0.47858  0.22230999999999998  1.0000
  O   O2        1.0  0.4834299999999999  0.35324000000000005  0.49678999999999995  1.0000
  O   O3        1.0  0.68496  0.45516999999999996  0.3932199999999999  1.0000
  O   O4        1.0  0.38106  0.4562899999999999  0.34137  1.0000
  O   O5        1.0  0.74437  0.39381999999999995  0.51073  1.0000
  O   O6        1.0  0.5896499999999999  0.21257000000000004  0.59286  1.0000
  O   O7        1.0  0.5255199999999999  0.6512  0.27768  1.0000
  O   O8        1.0  0.6468399999999997  0.51656  0.00303  1.0000
  O   O9        1.0  0.54447  0.31564  0.1068  1.0000
  O   O10       1.0  0.5444299999999997  0.61834  0.15835  1.0000
  O   O11       1.0  0.60575  0.25542  0.98942  1.0000
  O   O12       1.0  0.7879399999999999  0.40993000000000007  0.90715  1.0000
  O   O13       1.0  0.65545  0.5215000000000001  0.77768  1.0000
  O   O14       1.0  0.51658  0.6467499999999999  0.50321  1.0000
  O   O15       1.0  0.31505000000000005  0.54484  0.60678  1.0000
  O   O16       1.0  0.61895  0.5437  0.65864  1.0000
  O   O17       1.0  0.2556300000000001  0.60617  0.48927  1.0000
  O   O18       1.0  0.4103499999999997  0.78742  0.40715  1.0000
  O   O19       1.0  0.4744999999999999  0.34879  0.72231  1.0000
  O   O20       1.0  0.35316  0.4834399999999998  0.9969700000000001  1.0000
  O   O21       1.0  0.45553000000000005  0.6843599999999999  0.8932  1.0000
  O   O22       1.0  0.45556999999999986  0.38165000000000004  0.84165  1.0000
  O   O23       1.0  0.39424999999999993  0.74458  0.01058  1.0000
  O   O24       1.0  0.21205999999999997  0.59006  0.09285  1.0000
