data_image0
_chemical_formula_structural       Zn6H18C54O24
_chemical_formula_sum              "Zn6 H18 C54 O24"
_cell_length_a       15.51934
_cell_length_b       15.51942
_cell_length_c       15.519389999999998
_cell_angle_alpha    76.29195
_cell_angle_beta     76.29889
_cell_angle_gamma    76.29891

_space_group_name_H-M_alt    "P 1"
_space_group_IT_number       1

loop_
  _space_group_symop_operation_xyz
  'x, y, z'

loop_
  _atom_site_type_symbol
  _atom_site_label
  _atom_site_symmetry_multiplicity
  _atom_site_fract_x
  _atom_site_fract_y
  _atom_site_fract_z
  _atom_site_occupancy
  Zn  Zn1       1.0  0.4895999999999999  0.92397  0.4896  1.0000
  Zn  Zn2       1.0  0.92397  0.4895999999999999  0.4896  1.0000
  Zn  Zn3       1.0  0.48960000000000004  0.48960000000000004  0.9239699999999997  1.0000
  Zn  Zn4       1.0  0.07603  0.5104  0.5104  1.0000
  Zn  Zn5       1.0  0.5104  0.07603000000000001  0.5104  1.0000
  Zn  Zn6       1.0  0.5104  0.5104  0.07603  1.0000
  H   H1        1.0  0.79797  0.023450000000000002  0.49315999999999993  1.0000
  H   H2        1.0  0.023450000000000058  0.49316  0.7979699999999997  1.0000
  H   H3        1.0  0.49316  0.79796  0.023459999999999995  1.0000
  H   H4        1.0  0.9765500000000001  0.20202999999999996  0.50684  1.0000
  H   H5        1.0  0.5068400000000002  0.97654  0.20203999999999994  1.0000
  H   H6        1.0  0.20203000000000007  0.50684  0.9765499999999998  1.0000
  H   H7        1.0  0.20202999999999996  0.9765500000000001  0.50684  1.0000
  H   H8        1.0  0.9765500000000001  0.50684  0.20203  1.0000
  H   H9        1.0  0.5068400000000002  0.20203999999999997  0.97654  1.0000
  H   H10       1.0  0.023450000000000016  0.79797  0.49315999999999993  1.0000
  H   H11       1.0  0.49315999999999993  0.02346000000000002  0.79796  1.0000
  H   H12       1.0  0.79797  0.49316  0.02345  1.0000
  H   H13       1.0  0.7616100000000003  0.76161  0.47729  1.0000
  H   H14       1.0  0.76161  0.4772799999999999  0.76161  1.0000
  H   H15       1.0  0.4772799999999999  0.76162  0.76162  1.0000
  H   H16       1.0  0.23839000000000002  0.23839  0.52272  1.0000
  H   H17       1.0  0.52271  0.23838000000000004  0.23838  1.0000
  H   H18       1.0  0.23839000000000002  0.52271  0.23838999999999994  1.0000
  C   C1        1.0  0.67199  0.93355  0.48482999999999987  1.0000
  C   C2        1.0  0.7702199999999999  0.89659  0.4846  1.0000
  C   C3        1.0  0.82627  0.95288  0.4901999999999999  1.0000
  C   C4        1.0  0.9335499999999998  0.48483000000000004  0.67199  1.0000
  C   C5        1.0  0.89659  0.4846  0.77022  1.0000
  C   C6        1.0  0.9528800000000001  0.4902000000000001  0.82627  1.0000
  C   C7        1.0  0.4848300000000001  0.67198  0.9335499999999998  1.0000
  C   C8        1.0  0.48460000000000003  0.7702200000000001  0.8965999999999997  1.0000
  C   C9        1.0  0.4902000000000001  0.82627  0.9528799999999997  1.0000
  C   C10       1.0  0.06645000000000001  0.32801  0.51517  1.0000
  C   C11       1.0  0.10341000000000002  0.22977999999999998  0.5154  1.0000
  C   C12       1.0  0.04711999999999999  0.17373000000000002  0.5098  1.0000
  C   C13       1.0  0.51517  0.06645  0.32802  1.0000
  C   C14       1.0  0.5154  0.10340000000000002  0.22977999999999996  1.0000
  C   C15       1.0  0.5098000000000003  0.04712000000000001  0.17372999999999994  1.0000
  C   C16       1.0  0.3280100000000002  0.51517  0.06644999999999997  1.0000
  C   C17       1.0  0.22978000000000007  0.5153999999999997  0.10340999999999997  1.0000
  C   C18       1.0  0.17373000000000002  0.5098  0.04712  1.0000
  C   C19       1.0  0.3280100000000002  0.06645000000000001  0.51517  1.0000
  C   C20       1.0  0.22977999999999998  0.10341  0.5154  1.0000
  C   C21       1.0  0.17373000000000002  0.04711999999999999  0.5098  1.0000
  C   C22       1.0  0.06645000000000002  0.51517  0.3280099999999999  1.0000
  C   C23       1.0  0.10341000000000003  0.5154  0.22977999999999996  1.0000
  C   C24       1.0  0.047119999999999974  0.5098000000000001  0.17372999999999994  1.0000
  C   C25       1.0  0.5151699999999999  0.32802  0.06644999999999997  1.0000
  C   C26       1.0  0.5154  0.22978000000000004  0.10339999999999998  1.0000
  C   C27       1.0  0.5098  0.17373  0.04712  1.0000
  C   C28       1.0  0.93355  0.67199  0.48482999999999987  1.0000
  C   C29       1.0  0.89659  0.77022  0.4846  1.0000
  C   C30       1.0  0.9528800000000001  0.82627  0.4901999999999999  1.0000
  C   C31       1.0  0.48483000000000015  0.9335500000000001  0.6719799999999998  1.0000
  C   C32       1.0  0.48460000000000003  0.8966  0.77022  1.0000
  C   C33       1.0  0.4902  0.95288  0.82627  1.0000
  C   C34       1.0  0.6719800000000001  0.48483000000000004  0.9335499999999998  1.0000
  C   C35       1.0  0.7702200000000005  0.4846  0.89659  1.0000
  C   C36       1.0  0.8262700000000001  0.4902000000000001  0.9528799999999997  1.0000
  C   C37       1.0  0.91847  0.91847  0.49255  1.0000
  C   C38       1.0  0.97545  0.9754499999999999  0.49779  1.0000
  C   C39       1.0  0.8053100000000003  0.80531  0.48132  1.0000
  C   C40       1.0  0.9184700000000005  0.49255  0.91847  1.0000
  C   C41       1.0  0.97545  0.49779  0.9754499999999998  1.0000
  C   C42       1.0  0.8053100000000003  0.48132  0.80531  1.0000
  C   C43       1.0  0.49255  0.91847  0.91847  1.0000
  C   C44       1.0  0.49779000000000007  0.97545  0.9754499999999998  1.0000
  C   C45       1.0  0.4813099999999999  0.8053099999999999  0.80531  1.0000
  C   C46       1.0  0.08153  0.08153  0.50745  1.0000
  C   C47       1.0  0.024549999999999985  0.02455  0.50221  1.0000
  C   C48       1.0  0.1946900000000001  0.19469000000000003  0.5186799999999999  1.0000
  C   C49       1.0  0.50745  0.08153  0.08153  1.0000
  C   C50       1.0  0.50221  0.024550000000000002  0.024549999999999992  1.0000
  C   C51       1.0  0.51868  0.19469  0.19469  1.0000
  C   C52       1.0  0.08153  0.50745  0.08153  1.0000
  C   C53       1.0  0.024549999999999992  0.50221  0.024549999999999992  1.0000
  C   C54       1.0  0.1946900000000001  0.51868  0.19469  1.0000
  O   O1        1.0  0.64274  0.01596000000000001  0.49404  1.0000
  O   O2        1.0  0.62444  0.87981  0.47684  1.0000
  O   O3        1.0  0.01595999999999997  0.49403  0.64274  1.0000
  O   O4        1.0  0.8798100000000004  0.47683999999999993  0.62445  1.0000
  O   O5        1.0  0.49404  0.64273  0.01597  1.0000
  O   O6        1.0  0.47684000000000015  0.62445  0.8798199999999998  1.0000
  O   O7        1.0  0.9840299999999997  0.3572600000000001  0.50597  1.0000
  O   O8        1.0  0.12018000000000001  0.37555  0.52316  1.0000
  O   O9        1.0  0.50596  0.98403  0.35726999999999987  1.0000
  O   O10       1.0  0.5231600000000001  0.12017999999999998  0.37555  1.0000
  O   O11       1.0  0.3572600000000002  0.50596  0.9840399999999998  1.0000
  O   O12       1.0  0.37555  0.52316  0.12017999999999997  1.0000
  O   O13       1.0  0.3572600000000001  0.98404  0.5059599999999999  1.0000
  O   O14       1.0  0.37555  0.12018000000000001  0.52316  1.0000
  O   O15       1.0  0.9840299999999998  0.50597  0.35726  1.0000
  O   O16       1.0  0.12018  0.52316  0.37555  1.0000
  O   O17       1.0  0.5059600000000001  0.3572700000000001  0.9840299999999997  1.0000
  O   O18       1.0  0.52316  0.37555  0.12017999999999997  1.0000
  O   O19       1.0  0.015960000000000044  0.64274  0.4940299999999999  1.0000
  O   O20       1.0  0.8798100000000001  0.62445  0.47684  1.0000
  O   O21       1.0  0.49404  0.015970000000000012  0.64273  1.0000
  O   O22       1.0  0.47684000000000004  0.87982  0.62445  1.0000
  O   O23       1.0  0.64274  0.49404  0.01596  1.0000
  O   O24       1.0  0.62444  0.47684000000000004  0.87981  1.0000
