data_image0
_chemical_formula_structural       Cu4H20C60N4O24
_chemical_formula_sum              "Cu4 H20 C60 N4 O24"
_cell_length_a       10.72392
_cell_length_b       15.277
_cell_length_c       20.5122
_cell_angle_alpha    111.81759000000001
_cell_angle_beta     104.81159
_cell_angle_gamma    90.09199

_symmetry_space_group_name_H-M    'P 1'
_symmetry_Int_Tables_number       1

loop_
  _symmetry_equiv_pos_as_xyz
  'x,y,z'

loop_
  _atom_site_type_symbol
  _atom_site_label
  _atom_site_symmetry_multiplicity
  _atom_site_fract_x
  _atom_site_fract_y
  _atom_site_fract_z
  _atom_site_occupancy
  Cu  Cu1       1.0  0.60466  0.5239  0.04792  1.0000
  Cu  Cu2       1.0  0.05781999999999999  0.9766200000000003  0.9528  1.0000
  Cu  Cu3       1.0  0.9421799999999999  0.02338  0.0472  1.0000
  Cu  Cu4       1.0  0.39533999999999997  0.4761100000000001  0.95208  1.0000
  H   H1        1.0  0.4871699999999999  0.4687400000000001  0.22029  1.0000
  H   H2        1.0  0.2336  0.6141300000000002  0.43181  1.0000
  H   H3        1.0  0.7687399999999998  0.03044999999999999  0.78097  1.0000
  H   H4        1.0  0.30357  0.88599  0.56996  1.0000
  H   H5        1.0  0.23176  0.24963000000000002  0.21963999999999997  1.0000
  H   H6        1.0  0.6960699999999999  0.31634  0.4299  1.0000
  H   H7        1.0  0.51316  0.24827000000000005  0.77975  1.0000
  H   H8        1.0  0.7665  0.18249999999999997  0.56832  1.0000
  H   H9        1.0  0.51283  0.53127  0.77972  1.0000
  H   H10       1.0  0.76639  0.3858700000000001  0.5682  1.0000
  H   H11       1.0  0.23126  0.9695500000000002  0.21903000000000003  1.0000
  H   H12       1.0  0.69643  0.11400999999999997  0.43004  1.0000
  H   H13       1.0  0.76824  0.75037  0.78037  1.0000
  H   H14       1.0  0.3039299999999999  0.68366  0.57011  1.0000
  H   H15       1.0  0.48682999999999976  0.75173  0.22026  1.0000
  H   H16       1.0  0.2335  0.8175000000000002  0.43168  1.0000
  H   H17       1.0  0.25955  0.2584000000000001  0.01612  1.0000
  H   H18       1.0  0.7397500000000001  0.24241999999999994  0.9840899999999999  1.0000
  H   H19       1.0  0.74045  0.7416000000000003  0.98389  1.0000
  H   H20       1.0  0.26024  0.7575800000000003  0.01592  1.0000
  C   C1        1.0  0.4271  0.4184600000000001  0.07377  1.0000
  C   C2        1.0  0.37633  0.3697200000000001  0.11413999999999999  1.0000
  C   C3        1.0  0.41643  0.4064500000000001  0.19066  1.0000
  C   C4        1.0  0.33286  0.47582000000000013  0.34231  1.0000
  C   C5        1.0  0.37599  0.51577  0.42335  1.0000
  C   C6        1.0  0.31339  0.5884500000000003  0.46222  1.0000
  C   C7        1.0  0.8506200000000002  0.08210000000000002  0.9278700000000001  1.0000
  C   C8        1.0  0.7608399999999998  0.13019  0.88667  1.0000
  C   C9        1.0  0.7266  0.09268999999999998  0.81009  1.0000
  C   C10       1.0  0.49279999999999996  0.022779999999999974  0.65832  1.0000
  C   C11       1.0  0.45433  0.98341  0.57727  1.0000
  C   C12       1.0  0.3523  0.9115500000000002  0.53895  1.0000
  C   C13       1.0  0.14952  0.15403  0.07281  1.0000
  C   C14       1.0  0.23907  0.24358000000000005  0.11369  1.0000
  C   C15       1.0  0.2735  0.28276  0.19027  1.0000
  C   C16       1.0  0.50757  0.365  0.34168  1.0000
  C   C17       1.0  0.5457999999999998  0.40653000000000006  0.42275  1.0000
  C   C18       1.0  0.6475899999999999  0.37287000000000015  0.46102000000000004  1.0000
  C   C19       1.0  0.5742  0.34524  0.926  1.0000
  C   C20       1.0  0.6241  0.25569  0.88582  1.0000
  C   C21       1.0  0.58394  0.21565000000000006  0.80929  1.0000
  C   C22       1.0  0.66691  0.13382  0.65765  1.0000
  C   C23       1.0  0.62399  0.09242  0.57664  1.0000
  C   C24       1.0  0.6866999999999999  0.12635  0.53779  1.0000
  C   C25       1.0  0.5728899999999999  0.58154  0.9262399999999998  1.0000
  C   C26       1.0  0.6236699999999997  0.6302900000000002  0.8858699999999999  1.0000
  C   C27       1.0  0.58357  0.59355  0.80935  1.0000
  C   C28       1.0  0.6671399999999998  0.5241800000000002  0.6577  1.0000
  C   C29       1.0  0.62401  0.48424  0.57665  1.0000
  C   C30       1.0  0.6866099999999999  0.41155000000000014  0.53778  1.0000
  C   C31       1.0  0.14936999999999998  0.9179000000000003  0.07213  1.0000
  C   C32       1.0  0.23915  0.8698100000000002  0.11333  1.0000
  C   C33       1.0  0.2734  0.9073100000000002  0.18992  1.0000
  C   C34       1.0  0.50719  0.9772200000000002  0.34168  1.0000
  C   C35       1.0  0.5456699999999999  0.01659000000000001  0.42274  1.0000
  C   C36       1.0  0.6477  0.08845000000000001  0.46105000000000007  1.0000
  C   C37       1.0  0.8504699999999998  0.8459700000000002  0.9271900000000001  1.0000
  C   C38       1.0  0.76093  0.7564200000000001  0.8863099999999999  1.0000
  C   C39       1.0  0.7264999999999999  0.7172400000000002  0.80974  1.0000
  C   C40       1.0  0.4924199999999999  0.6350000000000002  0.65832  1.0000
  C   C41       1.0  0.4542  0.59347  0.57725  1.0000
  C   C42       1.0  0.35240999999999995  0.62713  0.53898  1.0000
  C   C43       1.0  0.42579000000000006  0.65476  0.07401  1.0000
  C   C44       1.0  0.3758999999999999  0.7443100000000002  0.11419000000000001  1.0000
  C   C45       1.0  0.41606  0.7843500000000002  0.19071  1.0000
  C   C46       1.0  0.33309  0.86619  0.34235  1.0000
  C   C47       1.0  0.37601  0.9075800000000003  0.42336  1.0000
  C   C48       1.0  0.3133  0.8736500000000003  0.46221  1.0000
  C   C49       1.0  0.28889  0.28766000000000014  0.07552  1.0000
  C   C50       1.0  0.3630300000000001  0.36325  0.22783000000000003  1.0000
  C   C51       1.0  0.48012999999999995  0.48029999999999995  0.46099999999999997  1.0000
  C   C52       1.0  0.7109699999999999  0.21232000000000006  0.92467  1.0000
  C   C53       1.0  0.6370499999999999  0.1352  0.77224  1.0000
  C   C54       1.0  0.51991  0.019159999999999944  0.539  1.0000
  C   C55       1.0  0.7111099999999998  0.7123400000000001  0.9244799999999999  1.0000
  C   C56       1.0  0.63696  0.6367500000000003  0.77218  1.0000
  C   C57       1.0  0.51986  0.51971  0.539  1.0000
  C   C58       1.0  0.28903  0.7876800000000002  0.07533  1.0000
  C   C59       1.0  0.36294  0.8648  0.22777  1.0000
  C   C60       1.0  0.4800799999999999  0.9808400000000002  0.46101  1.0000
  N   N1        1.0  0.40209999999999996  0.40244  0.30687  1.0000
  N   N2        1.0  0.59827  0.09526999999999994  0.69317  1.0000
  N   N3        1.0  0.5979  0.5975600000000002  0.69313  1.0000
  N   N4        1.0  0.4017299999999999  0.90473  0.30684  1.0000
  O   O1        1.0  0.54193  0.46169  0.1037  1.0000
  O   O2        1.0  0.35058999999999996  0.41308000000000006  0.01292  1.0000
  O   O3        1.0  0.24323  0.50346  0.30691  1.0000
  O   O4        1.0  0.9378099999999998  0.04008999999999992  0.8990399999999998  1.0000
  O   O5        1.0  0.83215  0.08679999999999996  0.9881999999999999  1.0000
  O   O6        1.0  0.43805  0.9956800000000001  0.69421  1.0000
  O   O7        1.0  0.06236000000000001  0.14076000000000005  0.10169  1.0000
  O   O8        1.0  0.16835  0.09812  0.0127  1.0000
  O   O9        1.0  0.56235  0.3022800000000001  0.30584  1.0000
  O   O10       1.0  0.46023  0.35945000000000005  0.8958800000000001  1.0000
  O   O11       1.0  0.65047  0.40034000000000003  0.98701  1.0000
  O   O12       1.0  0.75591  0.19757000000000005  0.69284  1.0000
  O   O13       1.0  0.4580699999999999  0.53831  0.8963099999999999  1.0000
  O   O14       1.0  0.6494100000000002  0.5869200000000003  0.9870800000000001  1.0000
  O   O15       1.0  0.75677  0.4965400000000001  0.6931  1.0000
  O   O16       1.0  0.06217999999999999  0.95992  0.10097  1.0000
  O   O17       1.0  0.16785  0.9132  0.0118  1.0000
  O   O18       1.0  0.56195  0.004329999999999992  0.30579  1.0000
  O   O19       1.0  0.9376399999999998  0.85924  0.89831  1.0000
  O   O20       1.0  0.8316399999999999  0.90188  0.98731  1.0000
  O   O21       1.0  0.4376399999999999  0.69772  0.69417  1.0000
  O   O22       1.0  0.53977  0.6405500000000002  0.10413  1.0000
  O   O23       1.0  0.34953  0.5996600000000002  0.013  1.0000
  O   O24       1.0  0.24409  0.80243  0.30716  1.0000
