data_image0
_chemical_formula_structural       In4H16C48S8O32
_chemical_formula_sum              "In4 H16 C48 S8 O32"
_cell_length_a       13.6192
_cell_length_b       13.61464
_cell_length_c       16.03712
_cell_angle_alpha    90.0
_cell_angle_beta     90.03539
_cell_angle_gamma    90.0

_symmetry_space_group_name_H-M    'P 1'
_symmetry_Int_Tables_number       1

loop_
  _symmetry_equiv_pos_as_xyz
  'x,y,z'

loop_
  _atom_site_type_symbol
  _atom_site_label
  _atom_site_symmetry_multiplicity
  _atom_site_fract_x
  _atom_site_fract_y
  _atom_site_fract_z
  _atom_site_occupancy
  In  In1       1.0  0.42226000000000014  0.99992  0.25011  1.0000
  In  In2       1.0  0.57774  0.99992  0.7498900000000002  1.0000
  In  In3       1.0  0.0  0.42235  0.5  1.0000
  In  In4       1.0  0.0  0.57785  0.0  1.0000
  H   H1        1.0  0.15289  0.24593000000000007  0.32883  1.0000
  H   H2        1.0  0.05311  0.3919700000000001  0.26286  1.0000
  H   H3        1.0  0.8469700000000001  0.75402  0.82874  1.0000
  H   H4        1.0  0.9469400000000002  0.60803  0.76294  1.0000
  H   H5        1.0  0.75378  0.15235000000000004  0.57908  1.0000
  H   H6        1.0  0.6077500000000002  0.05304000000000001  0.51287  1.0000
  H   H7        1.0  0.24577  0.84672  0.07850000000000003  1.0000
  H   H8        1.0  0.39183  0.9467900000000002  0.01297  1.0000
  H   H9        1.0  0.8471100000000003  0.24593000000000007  0.67117  1.0000
  H   H10       1.0  0.94689  0.3919700000000001  0.73714  1.0000
  H   H11       1.0  0.15303  0.75402  0.17125  1.0000
  H   H12       1.0  0.05306000000000001  0.60803  0.23706  1.0000
  H   H13       1.0  0.24622000000000002  0.15235000000000004  0.4209200000000001  1.0000
  H   H14       1.0  0.3922500000000001  0.05304000000000001  0.48713  1.0000
  H   H15       1.0  0.75423  0.84672  0.92149  1.0000
  H   H16       1.0  0.60817  0.9467900000000002  0.9870300000000002  1.0000
  C   C1        1.0  0.22923000000000004  0.23155000000000006  0.20873  1.0000
  C   C2        1.0  0.16177  0.27149  0.26507  1.0000
  C   C3        1.0  0.10879  0.34922000000000003  0.23041  1.0000
  C   C4        1.0  0.13683  0.36828  0.14742  1.0000
  C   C5        1.0  0.29571  0.14781000000000002  0.22214  1.0000
  C   C6        1.0  0.09337000000000002  0.4441500000000001  0.09314  1.0000
  C   C7        1.0  0.77081  0.76833  0.7085400000000002  1.0000
  C   C8        1.0  0.83821  0.7284200000000001  0.765  1.0000
  C   C9        1.0  0.89118  0.65066  0.7304400000000002  1.0000
  C   C10       1.0  0.86309  0.6316000000000002  0.64742  1.0000
  C   C11       1.0  0.7044  0.85214  0.72169  1.0000
  C   C12       1.0  0.9066700000000001  0.55584  0.59319  1.0000
  C   C13       1.0  0.7685600000000001  0.22911  0.45899  1.0000
  C   C14       1.0  0.7284400000000002  0.16154000000000004  0.51526  1.0000
  C   C15       1.0  0.65072  0.10867  0.4805200000000001  1.0000
  C   C16       1.0  0.63179  0.13676  0.39752  1.0000
  C   C17       1.0  0.8522  0.29575  0.47257  1.0000
  C   C18       1.0  0.55597  0.09338000000000003  0.3431900000000001  1.0000
  C   C19       1.0  0.23167  0.77073  0.9582800000000002  1.0000
  C   C20       1.0  0.27149  0.8380900000000001  0.01481  1.0000
  C   C21       1.0  0.34927  0.89109  0.98034  1.0000
  C   C22       1.0  0.3684  0.8630900000000002  0.89732  1.0000
  C   C23       1.0  0.14785  0.7043600000000001  0.97132  1.0000
  C   C24       1.0  0.44423  0.90667  0.8431500000000002  1.0000
  C   C25       1.0  0.7707700000000002  0.23155000000000006  0.79127  1.0000
  C   C26       1.0  0.83823  0.27149  0.73493  1.0000
  C   C27       1.0  0.89121  0.34922000000000003  0.76958  1.0000
  C   C28       1.0  0.86317  0.36828  0.85258  1.0000
  C   C29       1.0  0.7042900000000001  0.14781000000000002  0.77786  1.0000
  C   C30       1.0  0.9066300000000003  0.4441500000000001  0.90686  1.0000
  C   C31       1.0  0.22919  0.76833  0.29146  1.0000
  C   C32       1.0  0.16179000000000002  0.7284200000000001  0.23499  1.0000
  C   C33       1.0  0.10882000000000003  0.65066  0.26956  1.0000
  C   C34       1.0  0.13691  0.6316000000000002  0.3525800000000001  1.0000
  C   C35       1.0  0.2956  0.85214  0.27831  1.0000
  C   C36       1.0  0.09333  0.55584  0.4068  1.0000
  C   C37       1.0  0.23144  0.22911  0.5410100000000002  1.0000
  C   C38       1.0  0.27156  0.16154000000000004  0.48474  1.0000
  C   C39       1.0  0.34928  0.10867  0.51948  1.0000
  C   C40       1.0  0.36821  0.13676  0.60248  1.0000
  C   C41       1.0  0.1478  0.29575  0.52743  1.0000
  C   C42       1.0  0.44403  0.09338000000000003  0.65681  1.0000
  C   C43       1.0  0.76833  0.77073  0.04171  1.0000
  C   C44       1.0  0.72851  0.8380900000000001  0.98519  1.0000
  C   C45       1.0  0.65073  0.89109  0.01966  1.0000
  C   C46       1.0  0.6316  0.8630900000000002  0.10268  1.0000
  C   C47       1.0  0.85215  0.7043600000000001  0.02868  1.0000
  C   C48       1.0  0.55577  0.90667  0.15684  1.0000
  S   S1        1.0  0.22798  0.29077  0.11267  1.0000
  S   S2        1.0  0.77199  0.70908  0.61252  1.0000
  S   S3        1.0  0.7094300000000001  0.22789  0.3628500000000001  1.0000
  S   S4        1.0  0.29096  0.7719900000000002  0.8623300000000003  1.0000
  S   S5        1.0  0.7720200000000003  0.29077  0.88733  1.0000
  S   S6        1.0  0.22801  0.70908  0.38748  1.0000
  S   S7        1.0  0.29057  0.22789  0.63715  1.0000
  S   S8        1.0  0.7090400000000001  0.7719900000000002  0.13767  1.0000
  O   O1        1.0  0.30453  0.11075000000000003  0.29547  1.0000
  O   O2        1.0  0.34366  0.11387  0.16049000000000005  1.0000
  O   O3        1.0  0.02869  0.50093  0.12521  1.0000
  O   O4        1.0  0.11881  0.45175  0.01683  1.0000
  O   O5        1.0  0.69526  0.88895  0.7950900000000002  1.0000
  O   O6        1.0  0.65689  0.88617  0.65974  1.0000
  O   O7        1.0  0.97138  0.49914  0.62529  1.0000
  O   O8        1.0  0.88124  0.54827  0.51686  1.0000
  O   O9        1.0  0.88939  0.30429  0.54581  1.0000
  O   O10       1.0  0.8859600000000002  0.34424  0.4111100000000001  1.0000
  O   O11       1.0  0.49919000000000013  0.02862  0.37522  1.0000
  O   O12       1.0  0.54833  0.11888  0.2669  1.0000
  O   O13       1.0  0.11109000000000002  0.6951700000000002  0.04477  1.0000
  O   O14       1.0  0.11378  0.65699  0.90935  1.0000
  O   O15       1.0  0.50094  0.97135  0.87527  1.0000
  O   O16       1.0  0.45182  0.8812200000000002  0.7668300000000002  1.0000
  O   O17       1.0  0.6954700000000003  0.11075000000000003  0.70453  1.0000
  O   O18       1.0  0.65634  0.11387  0.8395  1.0000
  O   O19       1.0  0.9713100000000001  0.50093  0.87479  1.0000
  O   O20       1.0  0.8811900000000003  0.45175  0.9831600000000003  1.0000
  O   O21       1.0  0.30474  0.88895  0.20491  1.0000
  O   O22       1.0  0.34311  0.88617  0.34025  1.0000
  O   O23       1.0  0.028620000000000003  0.49914  0.3747000000000001  1.0000
  O   O24       1.0  0.11876000000000002  0.54827  0.48314  1.0000
  O   O25       1.0  0.11061000000000001  0.30429  0.45419  1.0000
  O   O26       1.0  0.11404000000000003  0.34424  0.58889  1.0000
  O   O27       1.0  0.50081  0.02862  0.62478  1.0000
  O   O28       1.0  0.4516700000000001  0.11888  0.7331  1.0000
  O   O29       1.0  0.8889100000000001  0.6951700000000002  0.95523  1.0000
  O   O30       1.0  0.88622  0.65699  0.09064  1.0000
  O   O31       1.0  0.49906  0.97135  0.12473  1.0000
  O   O32       1.0  0.54818  0.8812200000000002  0.23317  1.0000
