data_image0
_chemical_formula_structural       Zn4H28C60O24
_chemical_formula_sum              "Zn4 H28 C60 O24"
_cell_length_a       7.24048
_cell_length_b       13.76294
_cell_length_c       17.10311
_cell_angle_alpha    90.06330999999999
_cell_angle_beta     90.17244
_cell_angle_gamma    96.41524

_space_group_name_H-M_alt    "P 1"
_space_group_IT_number       1

loop_
  _space_group_symop_operation_xyz
  'x, y, z'

loop_
  _atom_site_type_symbol
  _atom_site_label
  _atom_site_symmetry_multiplicity
  _atom_site_fract_x
  _atom_site_fract_y
  _atom_site_fract_z
  _atom_site_occupancy
  Zn  Zn1       1.0  0.85832  0.8635899999999997  0.02518  1.0000
  Zn  Zn2       1.0  0.63311  0.14068  0.52767  1.0000
  Zn  Zn3       1.0  0.13409999999999997  0.13571999999999998  0.9744300000000001  1.0000
  Zn  Zn4       1.0  0.36653  0.85961  0.47244  1.0000
  H   H1        1.0  0.79237  0.01075  0.24694  1.0000
  H   H2        1.0  0.85647  0.23996  0.07553  1.0000
  H   H3        1.0  0.8094100000000001  0.3093699999999999  0.32215  1.0000
  H   H4        1.0  0.66063  0.4262  0.27143  1.0000
  H   H5        1.0  0.64299  0.5979499999999999  0.23081  1.0000
  H   H6        1.0  0.025369999999999983  0.5631299999999999  0.04458  1.0000
  H   H7        1.0  0.024779999999999996  0.38642  0.07739  1.0000
  H   H8        1.0  0.6774200000000001  0.9897499999999998  0.74628  1.0000
  H   H9        1.0  0.65616  0.7609  0.57402  1.0000
  H   H10       1.0  0.69182  0.69352  0.82185  1.0000
  H   H11       1.0  0.84304  0.5729  0.77064  1.0000
  H   H12       1.0  0.85389  0.40104  0.72843  1.0000
  H   H13       1.0  0.46467  0.4407  0.54473  1.0000
  H   H14       1.0  0.47531000000000007  0.61796  0.57837  1.0000
  H   H15       1.0  0.20721999999999996  0.9890799999999997  0.75222  1.0000
  H   H16       1.0  0.14228  0.76051  0.92406  1.0000
  H   H17       1.0  0.19126999999999997  0.6902700000000002  0.6776  1.0000
  H   H18       1.0  0.34016  0.5738  0.72889  1.0000
  H   H19       1.0  0.35727  0.40197  0.76906  1.0000
  H   H20       1.0  0.97503  0.43662  0.9554900000000001  1.0000
  H   H21       1.0  0.97553  0.61319  0.92288  1.0000
  H   H22       1.0  0.32075  0.01022  0.25366  1.0000
  H   H23       1.0  0.34515000000000007  0.23911  0.42594  1.0000
  H   H24       1.0  0.30736  0.30642  0.17812  1.0000
  H   H25       1.0  0.15695  0.42662  0.22939  1.0000
  H   H26       1.0  0.14675  0.59864  0.27166  1.0000
  H   H27       1.0  0.53595  0.55907  0.45525  1.0000
  H   H28       1.0  0.52508  0.38155999999999995  0.42175  1.0000
  C   C1        1.0  0.80078  0.15830999999999995  0.29284  1.0000
  C   C2        1.0  0.80538  0.08839  0.23285  1.0000
  C   C3        1.0  0.8271000000000001  0.11937  0.15467  1.0000
  C   C4        1.0  0.8424400000000001  0.21842  0.13669  1.0000
  C   C5        1.0  0.83249  0.28915  0.19608  1.0000
  C   C6        1.0  0.81312  0.25727  0.27444  1.0000
  C   C7        1.0  0.8370300000000002  0.39244  0.1756  1.0000
  C   C8        1.0  0.73739  0.45500999999999997  0.22066  1.0000
  C   C9        1.0  0.72867  0.55129  0.19896  1.0000
  C   C10       1.0  0.8294  0.58972  0.13382  1.0000
  C   C11       1.0  0.94073  0.53038  0.09193  1.0000
  C   C12       1.0  0.94086  0.43245  0.11091  1.0000
  C   C13       1.0  0.78546  0.12535  0.3768  1.0000
  C   C14       1.0  0.84118  0.04743  0.08947  1.0000
  C   C15       1.0  0.8026  0.6898  0.10571  1.0000
  C   C16       1.0  0.68878  0.8438399999999998  0.79183  1.0000
  C   C17       1.0  0.67555  0.9125899999999998  0.7318  1.0000
  C   C18       1.0  0.66458  0.8818699999999998  0.65331  1.0000
  C   C19       1.0  0.6618800000000001  0.78312  0.63524  1.0000
  C   C20       1.0  0.67339  0.71309  0.69514  1.0000
  C   C21       1.0  0.68822  0.74528  0.77388  1.0000
  C   C22       1.0  0.6659600000000001  0.60948  0.67529  1.0000
  C   C23       1.0  0.76461  0.54539  0.71964  1.0000
  C   C24       1.0  0.76925  0.4488799999999999  0.69712  1.0000
  C   C25       1.0  0.66409  0.4113799999999999  0.63248  1.0000
  C   C26       1.0  0.55336  0.4722999999999999  0.59157  1.0000
  C   C27       1.0  0.55822  0.57038  0.61099  1.0000
  C   C28       1.0  0.72145  0.8797899999999997  0.87446  1.0000
  C   C29       1.0  0.6527  0.95429  0.5884  1.0000
  C   C30       1.0  0.6808  0.31036  0.60373  1.0000
  C   C31       1.0  0.19931000000000001  0.84127  0.70668  1.0000
  C   C32       1.0  0.19437999999999997  0.9114599999999998  0.76643  1.0000
  C   C33       1.0  0.17204  0.88072  0.84457  1.0000
  C   C34       1.0  0.15702  0.78173  0.86287  1.0000
  C   C35       1.0  0.1673999999999999  0.7106999999999998  0.80372  1.0000
  C   C36       1.0  0.18717999999999996  0.7423799999999998  0.7253  1.0000
  C   C37       1.0  0.16298  0.60744  0.82446  1.0000
  C   C38       1.0  0.2629499999999999  0.54487  0.77952  1.0000
  C   C39       1.0  0.2717399999999999  0.4485099999999999  0.8011  1.0000
  C   C40       1.0  0.171  0.40987  0.86619  1.0000
  C   C41       1.0  0.05989999999999998  0.4693199999999999  0.90817  1.0000
  C   C42       1.0  0.05939000000000002  0.56727  0.88922  1.0000
  C   C43       1.0  0.21461  0.87428  0.6228  1.0000
  C   C44       1.0  0.15691999999999998  0.9526799999999999  0.90969  1.0000
  C   C45       1.0  0.19704  0.30961  0.89418  1.0000
  C   C46       1.0  0.30951  0.15614  0.20815  1.0000
  C   C47       1.0  0.32306000000000007  0.08737999999999999  0.26818  1.0000
  C   C48       1.0  0.33521  0.11807999999999998  0.34666  1.0000
  C   C49       1.0  0.33890999999999993  0.21685  0.36475  1.0000
  C   C50       1.0  0.32714  0.28685  0.30488  1.0000
  C   C51       1.0  0.311  0.25472  0.22613  1.0000
  C   C52       1.0  0.3347200000000001  0.39032  0.32474  1.0000
  C   C53       1.0  0.23593  0.4541999999999999  0.28024  1.0000
  C   C54       1.0  0.23158  0.55069  0.30269  1.0000
  C   C55       1.0  0.33663  0.58823  0.36731  1.0000
  C   C56       1.0  0.44763  0.52742  0.40833  1.0000
  C   C57       1.0  0.44259000000000004  0.42929999999999996  0.38905  1.0000
  C   C58       1.0  0.27598  0.12012  0.12541  1.0000
  C   C59       1.0  0.34702  0.04571  0.41158  1.0000
  C   C60       1.0  0.3171  0.6888  0.39647  1.0000
  O   O1        1.0  0.74166  0.18996  0.42713  1.0000
  O   O2        1.0  0.80496  0.9568999999999999  0.1065  1.0000
  O   O3        1.0  0.8868  0.08055  0.02229  1.0000
  O   O4        1.0  0.93544  0.73872  0.06713  1.0000
  O   O5        1.0  0.64789  0.7191199999999999  0.11861000000000001  1.0000
  O   O6        1.0  0.81454  0.04  0.3926  1.0000
  O   O7        1.0  0.72337  0.8142899999999997  0.9287  1.0000
  O   O8        1.0  0.68477  0.04478  0.60689  1.0000
  O   O9        1.0  0.61232  0.92333  0.51997  1.0000
  O   O10       1.0  0.53824  0.26206  0.57077  1.0000
  O   O11       1.0  0.83625  0.27884999999999993  0.60975  1.0000
  O   O12       1.0  0.75678  0.9698599999999999  0.88453  1.0000
  O   O13       1.0  0.25751  0.8096899999999998  0.57232  1.0000
  O   O14       1.0  0.19423  0.04328  0.89304  1.0000
  O   O15       1.0  0.10989000000000003  0.91914  0.97659  1.0000
  O   O16       1.0  0.06372  0.2614  0.93289  1.0000
  O   O17       1.0  0.35145  0.28  0.88125  1.0000
  O   O18       1.0  0.18694000000000002  0.95994  0.60729  1.0000
  O   O19       1.0  0.2685  0.18558  0.0715  1.0000
  O   O20       1.0  0.31502  0.9551799999999998  0.39313  1.0000
  O   O21       1.0  0.38736  0.07676999999999998  0.47998  1.0000
  O   O22       1.0  0.45896  0.73805  0.42909  1.0000
  O   O23       1.0  0.16021  0.71899  0.39162  1.0000
  O   O24       1.0  0.24552  0.029869999999999994  0.11528  1.0000
