data_image0
_chemical_formula_structural       Pr2H54C66O12
_chemical_formula_sum              "Pr2 H54 C66 O12"
_cell_length_a       9.50202
_cell_length_b       9.97991
_cell_length_c       18.07707
_cell_angle_alpha    89.96909000000001
_cell_angle_beta     95.24686999999999
_cell_angle_gamma    113.23084

_symmetry_space_group_name_H-M    'P 1'
_symmetry_Int_Tables_number       1

loop_
  _symmetry_equiv_pos_as_xyz
  'x,y,z'

loop_
  _atom_site_type_symbol
  _atom_site_label
  _atom_site_symmetry_multiplicity
  _atom_site_fract_x
  _atom_site_fract_y
  _atom_site_fract_z
  _atom_site_occupancy
  Pr  Pr1       1.0  0.011170000000000013  0.29371  0.99438  1.0000
  Pr  Pr2       1.0  0.9892599999999999  0.70967  0.00382  1.0000
  H   H1        1.0  0.66586  0.27306  0.65797  1.0000
  H   H2        1.0  0.5735500000000001  0.55744  0.8593200000000002  1.0000
  H   H3        1.0  0.75596  0.2519600000000001  0.7893900000000003  1.0000
  H   H4        1.0  0.98709  0.78562  0.19991000000000006  1.0000
  H   H5        1.0  0.76267  0.49859999999999993  0.3738  1.0000
  H   H6        1.0  0.8959099999999999  0.15089  0.31513  1.0000
  H   H7        1.0  0.93197  0.24294  0.18761000000000005  1.0000
  H   H8        1.0  0.27458  0.24455  0.35102  1.0000
  H   H9        1.0  0.8010399999999999  0.59189  0.24604  1.0000
  H   H10       1.0  0.23838000000000006  0.8958500000000001  0.44  1.0000
  H   H11       1.0  0.13343999999999995  0.99442  0.46693  1.0000
  H   H12       1.0  0.40880000000000005  0.45441  0.5996000000000001  1.0000
  H   H13       1.0  0.5977  0.55778  0.5872400000000001  1.0000
  H   H14       1.0  0.16921  0.07714  0.56701  1.0000
  H   H15       1.0  0.16347  0.24096  0.53287  1.0000
  H   H16       1.0  0.27040999999999993  0.2407  0.6187500000000002  1.0000
  H   H17       1.0  0.40095  0.95469  0.35439  1.0000
  H   H18       1.0  0.59427  0.9889500000000001  0.38445  1.0000
  H   H19       1.0  0.55052  0.10282000000000001  0.31968  1.0000
  H   H20       1.0  0.060770000000000005  0.77539  0.33472000000000013  1.0000
  H   H21       1.0  0.19150000000000003  0.25397000000000003  0.21773000000000006  1.0000
  H   H22       1.0  0.90039  0.32677  0.46912  1.0000
  H   H23       1.0  0.80316  0.15076999999999996  0.4299400000000001  1.0000
  H   H24       1.0  0.48202  0.57693  0.72827  1.0000
  H   H25       1.0  0.79721  0.55426  0.5803400000000001  1.0000
  H   H26       1.0  0.8698999999999999  0.53208  0.49652000000000013  1.0000
  H   H27       1.0  0.88734  0.43223  0.57506  1.0000
  H   H28       1.0  0.33007999999999993  0.72667  0.34007  1.0000
  H   H29       1.0  0.42941  0.44416000000000005  0.14026  1.0000
  H   H30       1.0  0.24174999999999996  0.74645  0.20818  1.0000
  H   H31       1.0  0.01478000000000004  0.21462  0.7993600000000002  1.0000
  H   H32       1.0  0.23923000000000003  0.50265  0.6258800000000001  1.0000
  H   H33       1.0  0.10278999999999998  0.8476  0.68535  1.0000
  H   H34       1.0  0.06671999999999995  0.7544  0.81249  1.0000
  H   H35       1.0  0.72437  0.75603  0.64853  1.0000
  H   H36       1.0  0.20243000000000003  0.40882  0.7536  1.0000
  H   H37       1.0  0.76123  0.10502  0.5597200000000002  1.0000
  H   H38       1.0  0.86579  0.006400000000000007  0.5324600000000002  1.0000
  H   H39       1.0  0.58953  0.54658  0.39964000000000005  1.0000
  H   H40       1.0  0.39997999999999995  0.44416000000000005  0.41163  1.0000
  H   H41       1.0  0.8303  0.92363  0.4323900000000001  1.0000
  H   H42       1.0  0.83521  0.7597299999999999  0.46674  1.0000
  H   H43       1.0  0.7290099999999999  0.7600500000000001  0.3806700000000001  1.0000
  H   H44       1.0  0.59886  0.04552000000000002  0.6455900000000002  1.0000
  H   H45       1.0  0.4056600000000001  0.011980000000000017  0.6155400000000002  1.0000
  H   H46       1.0  0.44889  0.8972699999999999  0.6799800000000001  1.0000
  H   H47       1.0  0.93968  0.22492000000000004  0.66464  1.0000
  H   H48       1.0  0.80673  0.74621  0.7817300000000001  1.0000
  H   H49       1.0  0.09881999999999998  0.67361  0.5311400000000001  1.0000
  H   H50       1.0  0.19595  0.84965  0.57054  1.0000
  H   H51       1.0  0.52012  0.42618  0.27169  1.0000
  H   H52       1.0  0.20112000000000002  0.44723000000000007  0.41908  1.0000
  H   H53       1.0  0.12928  0.46957  0.50313  1.0000
  H   H54       1.0  0.11117  0.56934  0.42465  1.0000
  C   C1        1.0  0.04261  0.027010000000000003  0.11890000000000002  1.0000
  C   C2        1.0  0.17346  0.00976  0.3526  1.0000
  C   C3        1.0  0.64515  0.33493  0.70207  1.0000
  C   C4        1.0  0.6723  0.4047  0.8327300000000002  1.0000
  C   C5        1.0  0.08463  0.0204  0.20016  1.0000
  C   C6        1.0  0.37642  0.12337000000000001  0.46353  1.0000
  C   C7        1.0  0.89312  0.48002999999999996  0.13301000000000002  1.0000
  C   C8        1.0  0.59289  0.49486  0.8149600000000002  1.0000
  C   C9        1.0  0.6954799999999999  0.32264  0.77567  1.0000
  C   C10       1.0  0.04776999999999994  0.8855899999999999  0.23384  1.0000
  C   C11       1.0  0.8014899999999999  0.44359999999999994  0.33325  1.0000
  C   C12       1.0  0.87464  0.24752  0.30034  1.0000
  C   C13       1.0  0.8686699999999999  0.42317  0.20893000000000003  1.0000
  C   C14       1.0  0.65394  0.25178  0.46044000000000007  1.0000
  C   C15       1.0  0.89516  0.2986  0.22873  1.0000
  C   C16       1.0  0.2084  0.14377  0.31863  1.0000
  C   C17       1.0  0.82613  0.31826  0.35336  1.0000
  C   C18       1.0  0.6577100000000001  0.35248  0.5160400000000002  1.0000
  C   C19       1.0  0.82258  0.49608  0.26197  1.0000
  C   C20       1.0  0.22647  0.0006699999999999968  0.43351  1.0000
  C   C21       1.0  0.52183  0.44843  0.60324  1.0000
  C   C22       1.0  0.56915  0.42718  0.68352  1.0000
  C   C23       1.0  0.5206000000000001  0.33707000000000004  0.5460900000000002  1.0000
  C   C24       1.0  0.23926000000000003  0.19366  0.5618600000000002  1.0000
  C   C25       1.0  0.51323  0.14034  0.43243  1.0000
  C   C26       1.0  0.5137100000000001  0.0412  0.36979  1.0000
  C   C27       1.0  0.08981999999999996  0.8809299999999999  0.30938  1.0000
  C   C28       1.0  0.16324000000000002  0.14943  0.24355000000000002  1.0000
  C   C29       1.0  0.74414  0.4062  0.90977  1.0000
  C   C30       1.0  0.80117  0.26005  0.4306  1.0000
  C   C31       1.0  0.54158  0.50523  0.74133  1.0000
  C   C32       1.0  0.38111  0.21861  0.52236  1.0000
  C   C33       1.0  0.8095900000000001  0.47385000000000005  0.54329  1.0000
  C   C34       1.0  0.95757  0.9739099999999999  0.88049  1.0000
  C   C35       1.0  0.82624  0.99076  0.64687  1.0000
  C   C36       1.0  0.35278  0.66537  0.2963500000000001  1.0000
  C   C37       1.0  0.32889  0.59579  0.16577000000000003  1.0000
  C   C38       1.0  0.91518  0.97991  0.7993000000000002  1.0000
  C   C39       1.0  0.62281  0.8777399999999999  0.53586  1.0000
  C   C40       1.0  0.10954  0.51818  0.86691  1.0000
  C   C41       1.0  0.40921  0.5067  0.18433000000000002  1.0000
  C   C42       1.0  0.30352  0.67712  0.22245  1.0000
  C   C43       1.0  0.95306  0.11472999999999998  0.76552  1.0000
  C   C44       1.0  0.19991  0.5568599999999999  0.66656  1.0000
  C   C45       1.0  0.12473999999999998  0.75123  0.69993  1.0000
  C   C46       1.0  0.13262000000000002  0.57566  0.79107  1.0000
  C   C47       1.0  0.34525999999999996  0.74935  0.53917  1.0000
  C   C48       1.0  0.10446  0.69951  0.77144  1.0000
  C   C49       1.0  0.79091  0.85673  0.68087  1.0000
  C   C50       1.0  0.17397  0.68167  0.6466900000000001  1.0000
  C   C51       1.0  0.34119  0.64907  0.48327000000000003  1.0000
  C   C52       1.0  0.17961000000000005  0.50405  0.7378200000000003  1.0000
  C   C53       1.0  0.7729399999999998  7.999999999999745e-05  0.56601  1.0000
  C   C54       1.0  0.47679999999999995  0.55329  0.3959  1.0000
  C   C55       1.0  0.43007  0.57447  0.31555  1.0000
  C   C56       1.0  0.47817999999999994  0.66462  0.45305  1.0000
  C   C57       1.0  0.75983  0.80722  0.4375300000000001  1.0000
  C   C58       1.0  0.48611999999999994  0.86063  0.5671300000000001  1.0000
  C   C59       1.0  0.4859399999999999  0.95935  0.63003  1.0000
  C   C60       1.0  0.9106  0.11946000000000001  0.69005  1.0000
  C   C61       1.0  0.83588  0.85091  0.75597  1.0000
  C   C62       1.0  0.25782  0.59281  0.08826000000000003  1.0000
  C   C63       1.0  0.19825  0.74049  0.56951  1.0000
  C   C64       1.0  0.45967  0.49696999999999997  0.25816  1.0000
  C   C65       1.0  0.61787  0.78279  0.47685  1.0000
  C   C66       1.0  0.18914  0.52772  0.45622  1.0000
  O   O1        1.0  0.92921  0.40743  0.08501  1.0000
  O   O2        1.0  0.015209999999999975  0.91456  0.07712  1.0000
  O   O3        1.0  0.035939999999999986  0.14559  0.09573  1.0000
  O   O4        1.0  0.7913399999999999  0.30498  0.92611  1.0000
  O   O5        1.0  0.88185  0.60052  0.11862000000000002  1.0000
  O   O6        1.0  0.76145  0.51223  0.95453  1.0000
  O   O7        1.0  0.06934999999999987  0.5871199999999999  0.91505  1.0000
  O   O8        1.0  0.98912  0.08678  0.92224  1.0000
  O   O9        1.0  0.96009  0.85362  0.90396  1.0000
  O   O10       1.0  0.20947  0.69267  0.07058  1.0000
  O   O11       1.0  0.12556000000000006  0.39964  0.8813100000000003  1.0000
  O   O12       1.0  0.24256  0.48582000000000003  0.04453000000000001  1.0000
