data_image0
_chemical_formula_structural       Lu4H24C56N8O24
_chemical_formula_sum              "Lu4 H24 C56 N8 O24"
_cell_length_a       8.28913
_cell_length_b       11.18744
_cell_length_c       21.87912
_cell_angle_alpha    96.06535
_cell_angle_beta     90.02378
_cell_angle_gamma    111.90031

_space_group_name_H-M_alt    "P 1"
_space_group_IT_number       1

loop_
  _space_group_symop_operation_xyz
  'x, y, z'

loop_
  _atom_site_type_symbol
  _atom_site_label
  _atom_site_symmetry_multiplicity
  _atom_site_fract_x
  _atom_site_fract_y
  _atom_site_fract_z
  _atom_site_occupancy
  Lu  Lu1       1.0  0.23716000000000004  0.51015  0.76938  1.0000
  Lu  Lu2       1.0  0.72777  0.49101  0.73065  1.0000
  Lu  Lu3       1.0  0.76289  0.4898700000000001  0.23063000000000003  1.0000
  Lu  Lu4       1.0  0.2722000000000001  0.5089700000000003  0.26935  1.0000
  H   H1        1.0  0.16907  0.82556  0.9186500000000001  1.0000
  H   H2        1.0  0.35171  0.55041  0.59031  1.0000
  H   H3        1.0  0.16572  0.3016  0.41986  1.0000
  H   H4        1.0  0.75368  0.96809  0.92453  1.0000
  H   H5        1.0  0.85666  0.25401000000000007  0.45038000000000006  1.0000
  H   H6        1.0  0.6298  0.83591  0.82411  1.0000
  H   H7        1.0  0.34370000000000006  0.1746  0.58184  1.0000
  H   H8        1.0  0.80152  0.45182  0.9094  1.0000
  H   H9        1.0  0.8649599999999998  0.69732  0.08091  1.0000
  H   H10       1.0  0.78491  0.03145  0.57523  1.0000
  H   H11       1.0  0.6039  0.74551  0.05088000000000001  1.0000
  H   H12       1.0  0.79238  0.16456  0.67512  1.0000
  H   H13       1.0  0.83098  0.17446  0.08136  1.0000
  H   H14       1.0  0.64828  0.4495700000000001  0.40969  1.0000
  H   H15       1.0  0.8342800000000002  0.69839  0.58015  1.0000
  H   H16       1.0  0.24624000000000001  0.03187  0.07546  1.0000
  H   H17       1.0  0.14330999999999994  0.74599  0.54962  1.0000
  H   H18       1.0  0.37021  0.16406  0.17587  1.0000
  H   H19       1.0  0.65633  0.8254  0.41816  1.0000
  H   H20       1.0  0.19853000000000007  0.54817  0.09061  1.0000
  H   H21       1.0  0.13500000000000006  0.3026700000000001  0.9190900000000001  1.0000
  H   H22       1.0  0.21504999999999996  0.96852  0.42476  1.0000
  H   H23       1.0  0.39605000000000007  0.25447  0.94909  1.0000
  H   H24       1.0  0.2076200000000001  0.8354400000000001  0.32487  1.0000
  C   C1        1.0  0.06527999999999998  0.6618  0.81832  1.0000
  C   C2        1.0  0.96859  0.90407  0.9282300000000001  1.0000
  C   C3        1.0  0.05076000000000001  0.82754  0.89791  1.0000
  C   C4        1.0  0.054450000000000005  0.52138  0.64148  1.0000
  C   C5        1.0  0.24131000000000002  0.48925  0.5600700000000001  1.0000
  C   C6        1.0  0.1343  0.34592  0.46253  1.0000
  C   C7        1.0  0.97825  0.74795  0.8429200000000001  1.0000
  C   C8        1.0  0.07547  0.4662  0.57809  1.0000
  C   C9        1.0  0.2754600000000001  0.4356900000000001  0.50156  1.0000
  C   C10       1.0  0.81547  0.90701  0.9008900000000001  1.0000
  C   C11       1.0  0.92461  0.3821600000000001  0.53607  1.0000
  C   C12       1.0  0.96763  0.3213  0.47880000000000006  1.0000
  C   C13       1.0  0.74661  0.83331  0.84561  1.0000
  C   C14       1.0  0.8226900000000003  0.74987  0.81536  1.0000
  C   C15       1.0  0.40297  0.33892  0.68182  1.0000
  C   C16       1.0  0.06413  0.09573000000000002  0.57182  1.0000
  C   C17       1.0  0.22302  0.17251  0.60222  1.0000
  C   C18       1.0  0.53183  0.48120000000000007  0.8590000000000001  1.0000
  C   C19       1.0  0.7524400000000002  0.51232  0.9399600000000001  1.0000
  C   C20       1.0  0.78915  0.65378  0.03809  1.0000
  C   C21       1.0  0.22983  0.25245  0.65694  1.0000
  C   C22       1.0  0.60951  0.53548  0.9223100000000001  1.0000
  C   C23       1.0  0.8402900000000001  0.56469  0.9986400000000001  1.0000
  C   C24       1.0  0.9079  0.09302  0.59892  1.0000
  C   C25       1.0  0.54304  0.61864  0.96466  1.0000
  C   C26       1.0  0.64712  0.67863  0.02211  1.0000
  C   C27       1.0  0.91235  0.16717  0.65402  1.0000
  C   C28       1.0  0.07242  0.25061  0.68436  1.0000
  C   C29       1.0  0.9348  0.33823  0.18166  1.0000
  C   C30       1.0  0.031390000000000015  0.09593  0.07177  1.0000
  C   C31       1.0  0.94929  0.17248  0.10209  1.0000
  C   C32       1.0  0.9455300000000001  0.47861  0.35852  1.0000
  C   C33       1.0  0.7586899999999999  0.51074  0.43992  1.0000
  C   C34       1.0  0.86569  0.65408  0.53747  1.0000
  C   C35       1.0  0.021850000000000005  0.25208  0.15706  1.0000
  C   C36       1.0  0.9245300000000003  0.53381  0.42191  1.0000
  C   C37       1.0  0.72455  0.5643  0.49844  1.0000
  C   C38       1.0  0.18448  0.09296  0.09909  1.0000
  C   C39       1.0  0.07539  0.6178600000000001  0.46393  1.0000
  C   C40       1.0  0.03234999999999994  0.6786999999999999  0.5212  1.0000
  C   C41       1.0  0.25343  0.16665  0.15436  1.0000
  C   C42       1.0  0.17739  0.25013  0.18461  1.0000
  C   C43       1.0  0.59704  0.66107  0.31819  1.0000
  C   C44       1.0  0.93588  0.9042600000000001  0.42818  1.0000
  C   C45       1.0  0.777  0.82749  0.39779000000000003  1.0000
  C   C46       1.0  0.46813  0.51869  0.141  1.0000
  C   C47       1.0  0.24758  0.48767  0.06004  1.0000
  C   C48       1.0  0.2108200000000001  0.3462000000000001  0.9619100000000002  1.0000
  C   C49       1.0  0.77018  0.74756  0.34308  1.0000
  C   C50       1.0  0.39047  0.46446000000000004  0.07768  1.0000
  C   C51       1.0  0.15972  0.43531  0.00135  1.0000
  C   C52       1.0  0.09209000000000007  0.9069600000000001  0.40108  1.0000
  C   C53       1.0  0.4569500000000001  0.38131  0.03532  1.0000
  C   C54       1.0  0.35285  0.32134  0.97787  1.0000
  C   C55       1.0  0.08767000000000005  0.8328300000000001  0.34598  1.0000
  C   C56       1.0  0.92758  0.7494100000000001  0.31564  1.0000
  N   N1        1.0  0.04543999999999991  0.972  0.9851900000000001  1.0000
  N   N2        1.0  0.43754  0.45925000000000005  0.48099  1.0000
  N   N3        1.0  0.07327000000000003  0.027290000000000002  0.51512  1.0000
  N   N4        1.0  0.97854  0.54059  0.0191  1.0000
  N   N5        1.0  0.9545400000000003  0.028000000000000004  0.0148  1.0000
  N   N6        1.0  0.5624600000000001  0.5407300000000002  0.51901  1.0000
  N   N7        1.0  0.9267600000000003  0.9727100000000001  0.48488  1.0000
  N   N8        1.0  0.02148000000000003  0.45942000000000005  0.9809  1.0000
  O   O1        1.0  0.18827999999999995  0.56957  0.67844  1.0000
  O   O2        1.0  0.74755  0.67935  0.7629400000000001  1.0000
  O   O3        1.0  0.97602  0.54683  0.78811  1.0000
  O   O4        1.0  0.22796000000000002  0.6913999999999999  0.82669  1.0000
  O   O5        1.0  0.90318  0.51613  0.6562  1.0000
  O   O6        1.0  0.76982  0.3636599999999999  0.54598  1.0000
  O   O7        1.0  0.6183100000000001  0.43544000000000016  0.8215100000000001  1.0000
  O   O8        1.0  0.06975  0.32120000000000004  0.7368800000000001  1.0000
  O   O9        1.0  0.42868000000000006  0.45380000000000004  0.71187  1.0000
  O   O10       1.0  0.53603  0.30937  0.67384  1.0000
  O   O11       1.0  0.38391000000000014  0.48436  0.84506  1.0000
  O   O12       1.0  0.40680000000000005  0.6369600000000001  0.95454  1.0000
  O   O13       1.0  0.81169  0.43043000000000003  0.32157  1.0000
  O   O14       1.0  0.25261  0.32064  0.23701000000000003  1.0000
  O   O15       1.0  0.02401000000000001  0.45319  0.2119  1.0000
  O   O16       1.0  0.77214  0.30862  0.17328  1.0000
  O   O17       1.0  0.09677000000000008  0.4838100000000001  0.34377  1.0000
  O   O18       1.0  0.23018  0.63634  0.45402  1.0000
  O   O19       1.0  0.38173  0.56455  0.17848  1.0000
  O   O20       1.0  0.9302600000000001  0.67885  0.26313  1.0000
  O   O21       1.0  0.5713600000000002  0.54621  0.28814  1.0000
  O   O22       1.0  0.46398000000000006  0.69062  0.32618  1.0000
  O   O23       1.0  0.61598  0.51545  0.15494  1.0000
  O   O24       1.0  0.59319  0.36301  0.04544  1.0000
