data_image0
_chemical_formula_structural       Zn4H40C40S4N16O8
_chemical_formula_sum              "Zn4 H40 C40 S4 N16 O8"
_cell_length_a       10.40295
_cell_length_b       13.00175
_cell_length_c       12.481060000000001
_cell_angle_alpha    92.39798
_cell_angle_beta     89.89165
_cell_angle_gamma    89.84911

_space_group_name_H-M_alt    "P 1"
_space_group_IT_number       1

loop_
  _space_group_symop_operation_xyz
  'x, y, z'

loop_
  _atom_site_type_symbol
  _atom_site_label
  _atom_site_symmetry_multiplicity
  _atom_site_fract_x
  _atom_site_fract_y
  _atom_site_fract_z
  _atom_site_occupancy
  Zn  Zn1       1.0  0.76297  0.25128  0.10338  1.0000
  Zn  Zn2       1.0  0.2631399999999999  0.25056  0.39469  1.0000
  Zn  Zn3       1.0  0.23703  0.74871  0.8966199999999998  1.0000
  Zn  Zn4       1.0  0.73687  0.74944  0.6053199999999999  1.0000
  H   H1        1.0  0.60465  0.40494  0.9646499999999998  1.0000
  H   H2        1.0  0.04105  0.36528  0.13929  1.0000
  H   H3        1.0  0.59821  0.043209999999999985  0.07796999999999998  1.0000
  H   H4        1.0  0.96181  0.8063299999999999  0.9754999999999998  1.0000
  H   H5        1.0  0.88571  0.04868  0.30929  1.0000
  H   H6        1.0  0.05646  0.060249999999999984  0.3401799999999999  1.0000
  H   H7        1.0  0.0026700000000000005  0.08223999999999998  0.20552999999999993  1.0000
  H   H8        1.0  0.8193500000000001  0.16787  0.46090999999999993  1.0000
  H   H9        1.0  0.84897  0.30703  0.47099  1.0000
  H   H10       1.0  0.9705600000000001  0.21690999999999996  0.51293  1.0000
  H   H11       1.0  0.10478999999999998  0.09787999999999998  0.53518  1.0000
  H   H12       1.0  0.54237  0.13401  0.36039  1.0000
  H   H13       1.0  0.09889  0.46004999999999996  0.42007  1.0000
  H   H14       1.0  0.46252  0.6938999999999999  0.5250399999999998  1.0000
  H   H15       1.0  0.38266999999999995  0.4502999999999999  0.18902999999999995  1.0000
  H   H16       1.0  0.55409  0.44045  0.15915999999999997  1.0000
  H   H17       1.0  0.4990400000000001  0.41800999999999994  0.29344999999999993  1.0000
  H   H18       1.0  0.32184  0.3317  0.03653  1.0000
  H   H19       1.0  0.35194  0.19271  0.027219999999999998  1.0000
  H   H20       1.0  0.47417999999999993  0.2825  0.9858299999999998  1.0000
  H   H21       1.0  0.39535  0.59505  0.03534  1.0000
  H   H22       1.0  0.95895  0.63472  0.86071  1.0000
  H   H23       1.0  0.40180000000000005  0.9567799999999999  0.9220199999999997  1.0000
  H   H24       1.0  0.0382  0.19366  0.024489999999999994  1.0000
  H   H25       1.0  0.1143  0.9513099999999998  0.6907099999999998  1.0000
  H   H26       1.0  0.94355  0.93976  0.6598299999999999  1.0000
  H   H27       1.0  0.99733  0.91778  0.7944699999999998  1.0000
  H   H28       1.0  0.18062  0.83212  0.5391  1.0000
  H   H29       1.0  0.15101  0.6929699999999999  0.52902  1.0000
  H   H30       1.0  0.0294  0.78308  0.4870799999999999  1.0000
  H   H31       1.0  0.89521  0.9021099999999999  0.46482  1.0000
  H   H32       1.0  0.45763  0.86598  0.6396099999999999  1.0000
  H   H33       1.0  0.90112  0.53996  0.57993  1.0000
  H   H34       1.0  0.53748  0.3061  0.47496  1.0000
  H   H35       1.0  0.61735  0.54971  0.8109699999999997  1.0000
  H   H36       1.0  0.44592  0.55955  0.8408399999999998  1.0000
  H   H37       1.0  0.50098  0.58199  0.70655  1.0000
  H   H38       1.0  0.67815  0.66829  0.9634699999999998  1.0000
  H   H39       1.0  0.64805  0.80728  0.9728  1.0000
  H   H40       1.0  0.52581  0.71748  0.014169999999999997  1.0000
  C   C1        1.0  0.70356  0.43003  0.9745699999999999  1.0000
  C   C2        1.0  0.90292  0.43522999999999995  0.0314  1.0000
  C   C3        1.0  0.022710000000000004  0.4213299999999999  0.0789  1.0000
  C   C4        1.0  0.11944000000000002  0.48772999999999994  0.04569  1.0000
  C   C5        1.0  0.6981  0.03063  0.0558  1.0000
  C   C6        1.0  0.8774  0.9577099999999998  0.01058  1.0000
  C   C7        1.0  0.9779699999999999  0.88898  0.9852399999999998  1.0000
  C   C8        1.0  0.90079  0.06618  0.02498999999999999  1.0000
  C   C9        1.0  0.9769799999999998  0.08791  0.29113999999999995  1.0000
  C   C10       1.0  0.8920500000000001  0.22901  0.45634  1.0000
  C   C11       1.0  0.20371  0.07233  0.52523  1.0000
  C   C12       1.0  0.40337000000000006  0.06568999999999998  0.46861  1.0000
  C   C13       1.0  0.52354  0.07832999999999998  0.4210399999999999  1.0000
  C   C14       1.0  0.61983  0.011189999999999995  0.4542799999999999  1.0000
  C   C15       1.0  0.19860000000000003  0.47167  0.44275  1.0000
  C   C16       1.0  0.37779  0.54313  0.48914  1.0000
  C   C17       1.0  0.47831  0.61114  0.5152  1.0000
  C   C18       1.0  0.40075  0.43454  0.47429  1.0000
  C   C19       1.0  0.4746099999999999  0.41205  0.20771  1.0000
  C   C20       1.0  0.39483  0.27054  0.04182  1.0000
  C   C21       1.0  0.29645  0.56996  0.025429999999999994  1.0000
  C   C22       1.0  0.09708999999999998  0.56476  0.9686  1.0000
  C   C23       1.0  0.9772999999999998  0.57867  0.9211  1.0000
  C   C24       1.0  0.8805699999999999  0.51227  0.95431  1.0000
  C   C25       1.0  0.30191  0.9693699999999998  0.9441999999999998  1.0000
  C   C26       1.0  0.12260000000000001  0.04228  0.9894099999999999  1.0000
  C   C27       1.0  0.02204  0.11101  0.01475  1.0000
  C   C28       1.0  0.09921  0.93381  0.9749999999999998  1.0000
  C   C29       1.0  0.023030000000000002  0.9120899999999998  0.70886  1.0000
  C   C30       1.0  0.10791999999999999  0.77098  0.5436699999999999  1.0000
  C   C31       1.0  0.7962900000000002  0.92766  0.47477  1.0000
  C   C32       1.0  0.59663  0.9343099999999999  0.53139  1.0000
  C   C33       1.0  0.47646  0.92167  0.57896  1.0000
  C   C34       1.0  0.38017  0.9888  0.54572  1.0000
  C   C35       1.0  0.8013999999999999  0.52833  0.55725  1.0000
  C   C36       1.0  0.62221  0.45688  0.51085  1.0000
  C   C37       1.0  0.52169  0.38886  0.4847999999999999  1.0000
  C   C38       1.0  0.59925  0.5654699999999999  0.5257099999999999  1.0000
  C   C39       1.0  0.52541  0.58795  0.79229  1.0000
  C   C40       1.0  0.60516  0.72945  0.95819  1.0000
  S   S1        1.0  0.95473  0.21959  0.3253499999999999  1.0000
  S   S2        1.0  0.45501  0.28035  0.17361  1.0000
  S   S3        1.0  0.04526  0.78041  0.6746699999999999  1.0000
  S   S4        1.0  0.545  0.71965  0.82639  1.0000
  N   N1        1.0  0.7860099999999999  0.3835  0.04341  1.0000
  N   N2        1.0  0.78368  0.11095  0.05469999999999999  1.0000
  N   N3        1.0  0.74771  0.93853  0.02905  1.0000
  N   N4        1.0  0.24682000000000004  0.49311  0.07896  1.0000
  N   N5        1.0  0.28685  0.11853  0.45655  1.0000
  N   N6        1.0  0.28379  0.39072  0.4438  1.0000
  N   N7        1.0  0.24842999999999998  0.56326  0.47025  1.0000
  N   N8        1.0  0.74747  0.00492  0.42115  1.0000
  N   N9        1.0  0.21400000000000002  0.61649  0.95659  1.0000
  N   N10       1.0  0.21633  0.88904  0.9453  1.0000
  N   N11       1.0  0.25229  0.061459999999999994  0.9709499999999998  1.0000
  N   N12       1.0  0.75319  0.50688  0.9210499999999998  1.0000
  N   N13       1.0  0.71316  0.8814699999999999  0.54346  1.0000
  N   N14       1.0  0.71622  0.60929  0.5561999999999999  1.0000
  N   N15       1.0  0.75158  0.43675  0.5297399999999999  1.0000
  N   N16       1.0  0.25253000000000003  0.9950699999999998  0.5788499999999999  1.0000
  O   O1        1.0  0.85794  0.26502  0.25433  1.0000
  O   O2        1.0  0.08221  0.27122  0.32253  1.0000
  O   O3        1.0  0.35724  0.23471  0.24343  1.0000
  O   O4        1.0  0.58296  0.22919999999999996  0.17885999999999994  1.0000
  O   O5        1.0  0.14206  0.73499  0.74568  1.0000
  O   O6        1.0  0.91776  0.7287899999999998  0.6775  1.0000
  O   O7        1.0  0.64276  0.76529  0.75657  1.0000
  O   O8        1.0  0.41704  0.77081  0.82114  1.0000
