data_image0
_chemical_formula_structural       Cd10H24C72O48
_chemical_formula_sum              "Cd10 H24 C72 O48"
_cell_length_a       10.2464
_cell_length_b       20.66211
_cell_length_c       20.61546
_cell_angle_alpha    88.86835
_cell_angle_beta     76.91634
_cell_angle_gamma    88.00465

_space_group_name_H-M_alt    "P 1"
_space_group_IT_number       1

loop_
  _space_group_symop_operation_xyz
  'x, y, z'

loop_
  _atom_site_type_symbol
  _atom_site_label
  _atom_site_symmetry_multiplicity
  _atom_site_fract_x
  _atom_site_fract_y
  _atom_site_fract_z
  _atom_site_occupancy
  Cd  Cd1       1.0  0.0023300000000000274  0.35794  0.32486999999999994  1.0000
  Cd  Cd2       1.0  0.45807  0.7701900000000002  0.04469  1.0000
  Cd  Cd3       1.0  0.12929  0.8306600000000001  0.14097  1.0000
  Cd  Cd4       1.0  0.3608400000000001  0.9921200000000002  0.5020699999999999  1.0000
  Cd  Cd5       1.0  0.7278100000000001  0.45966000000000007  0.27299  1.0000
  Cd  Cd6       1.0  0.9977900000000002  0.64193  0.67416  1.0000
  Cd  Cd7       1.0  0.54223  0.22981  0.95531  1.0000
  Cd  Cd8       1.0  0.87078  0.16922  0.85946  1.0000
  Cd  Cd9       1.0  0.63947  0.007770000000000001  0.49801999999999996  1.0000
  Cd  Cd10      1.0  0.27307  0.54069  0.72716  1.0000
  H   H1        1.0  0.68579  0.20749  0.41073  1.0000
  H   H2        1.0  0.27029  0.18403  0.4089  1.0000
  H   H3        1.0  0.4557399999999999  0.36661  0.34923  1.0000
  H   H4        1.0  0.17478  0.31793  0.11705  1.0000
  H   H5        1.0  0.054469999999999935  0.21500000000000002  0.9611  1.0000
  H   H6        1.0  0.7583  0.31705000000000005  0.11008  1.0000
  H   H7        1.0  0.03390999999999999  0.6235000000000002  0.21422  1.0000
  H   H8        1.0  0.46313000000000004  0.6245600000000001  0.18755  1.0000
  H   H9        1.0  0.24114000000000002  0.46859  0.29761  1.0000
  H   H10       1.0  0.66369  0.8577900000000003  0.12473999999999999  1.0000
  H   H11       1.0  0.7575200000000001  0.9184100000000001  0.30734  1.0000
  H   H12       1.0  0.3457900000000001  0.91454  0.29119  1.0000
  H   H13       1.0  0.31428  0.7927700000000001  0.58973  1.0000
  H   H14       1.0  0.73062  0.8151700000000001  0.59049  1.0000
  H   H15       1.0  0.54398  0.63288  0.65005  1.0000
  H   H16       1.0  0.8253700000000002  0.68227  0.88332  1.0000
  H   H17       1.0  0.9454  0.78545  0.03915999999999999  1.0000
  H   H18       1.0  0.24173000000000006  0.6832  0.89045  1.0000
  H   H19       1.0  0.96854  0.37814000000000003  0.78587  1.0000
  H   H20       1.0  0.5400200000000001  0.37353  0.8121899999999999  1.0000
  H   H21       1.0  0.7565999999999999  0.53176  0.70323  1.0000
  H   H22       1.0  0.3368800000000001  0.14149  0.8756899999999999  1.0000
  H   H23       1.0  0.24196000000000004  0.08085  0.69324  1.0000
  H   H24       1.0  0.6540400000000001  0.08557000000000002  0.70864  1.0000
  C   C1        1.0  0.7058200000000001  0.3321  0.36419  1.0000
  C   C2        1.0  0.58324  0.29137  0.37917  1.0000
  C   C3        1.0  0.59153  0.22741000000000003  0.4021  1.0000
  C   C4        1.0  0.47827000000000003  0.18905  0.41385  1.0000
  C   C5        1.0  0.35765  0.21411  0.4007299999999999  1.0000
  C   C6        1.0  0.35026  0.27781  0.37673  1.0000
  C   C7        1.0  0.46238999999999997  0.31702  0.36718  1.0000
  C   C8        1.0  0.48635000000000006  0.12126  0.44109  1.0000
  C   C9        1.0  0.22407  0.30445  0.3612  1.0000
  C   C10       1.0  0.9262400000000001  0.35888  0.18366  1.0000
  C   C11       1.0  0.96275  0.32097  0.12034  1.0000
  C   C12       1.0  0.09657999999999999  0.30301  0.09312999999999999  1.0000
  C   C13       1.0  0.12929  0.26603  0.03494  1.0000
  C   C14       1.0  0.02772  0.24449  0.00554  1.0000
  C   C15       1.0  0.8939400000000001  0.26243000000000005  0.03321  1.0000
  C   C16       1.0  0.8619099999999998  0.30189  0.08961  1.0000
  C   C17       1.0  0.27197  0.24987000000000004  0.00496  1.0000
  C   C18       1.0  0.7832800000000001  0.24084000000000005  0.00291  1.0000
  C   C19       1.0  0.9937299999999999  0.50919  0.28446  1.0000
  C   C20       1.0  0.12370000000000002  0.54248  0.25852  1.0000
  C   C21       1.0  0.12632  0.60115  0.22278  1.0000
  C   C22       1.0  0.24862000000000004  0.6311500000000001  0.19823999999999997  1.0000
  C   C23       1.0  0.3681499999999999  0.60168  0.20754  1.0000
  C   C24       1.0  0.36528  0.54307  0.24296  1.0000
  C   C25       1.0  0.24287999999999996  0.51366  0.26936  1.0000
  C   C26       1.0  0.25375  0.69534  0.16275  1.0000
  C   C27       1.0  0.49276999999999993  0.5129  0.25239  1.0000
  C   C28       1.0  0.39444  0.8713300000000002  0.16299  1.0000
  C   C29       1.0  0.49449000000000004  0.88641  0.20325  1.0000
  C   C30       1.0  0.63122  0.87592  0.17518  1.0000
  C   C31       1.0  0.72545  0.8868500000000002  0.21318000000000004  1.0000
  C   C32       1.0  0.68373  0.90957  0.27835  1.0000
  C   C33       1.0  0.54702  0.9198900000000002  0.3065  1.0000
  C   C34       1.0  0.45213999999999993  0.90767  0.26914  1.0000
  C   C35       1.0  0.86962  0.8723800000000003  0.18586999999999998  1.0000
  C   C36       1.0  0.50447  0.9436700000000001  0.37661999999999995  1.0000
  C   C37       1.0  0.29416  0.6679100000000001  0.63569  1.0000
  C   C38       1.0  0.4167000000000001  0.70858  0.62071  1.0000
  C   C39       1.0  0.4086099999999999  0.77263  0.59806  1.0000
  C   C40       1.0  0.5222199999999999  0.81076  0.58607  1.0000
  C   C41       1.0  0.6429299999999999  0.7853200000000002  0.59877  1.0000
  C   C42       1.0  0.65005  0.7215  0.62247  1.0000
  C   C43       1.0  0.53755  0.68256  0.6323099999999999  1.0000
  C   C44       1.0  0.51435  0.8786300000000001  0.55896  1.0000
  C   C45       1.0  0.7762399999999999  0.69431  0.63747  1.0000
  C   C46       1.0  0.07378  0.64227  0.8161  1.0000
  C   C47       1.0  0.037410000000000034  0.67954  0.87983  1.0000
  C   C48       1.0  0.9035600000000003  0.69725  0.9072099999999998  1.0000
  C   C49       1.0  0.8707199999999998  0.7340700000000002  0.9655  1.0000
  C   C50       1.0  0.9722  0.7557600000000001  0.99488  1.0000
  C   C51       1.0  0.10592999999999994  0.73775  0.96723  1.0000
  C   C52       1.0  0.13808999999999994  0.6984  0.91074  1.0000
  C   C53       1.0  0.72801  0.7501900000000002  0.9952799999999999  1.0000
  C   C54       1.0  0.2166999999999998  0.75926  0.99747  1.0000
  C   C55       1.0  0.005310000000000009  0.49225  0.71689  1.0000
  C   C56       1.0  0.8761199999999998  0.45839  0.74199  1.0000
  C   C57       1.0  0.8754  0.39966  0.77737  1.0000
  C   C58       1.0  0.7542000000000001  0.3687800000000001  0.80154  1.0000
  C   C59       1.0  0.63388  0.39742000000000005  0.79241  1.0000
  C   C60       1.0  0.63499  0.45624000000000003  0.7574  1.0000
  C   C61       1.0  0.75648  0.48657  0.7312  1.0000
  C   C62       1.0  0.75132  0.30436  0.83633  1.0000
  C   C63       1.0  0.5072200000000001  0.4858000000000001  0.7476799999999999  1.0000
  C   C64       1.0  0.6058  0.12871  0.83701  1.0000
  C   C65       1.0  0.5056500000000002  0.11342  0.79684  1.0000
  C   C66       1.0  0.36893000000000015  0.12346000000000001  0.8252  1.0000
  C   C67       1.0  0.27417000000000014  0.11217000000000002  0.7875399999999999  1.0000
  C   C68       1.0  0.31578000000000006  0.08981000000000001  0.72219  1.0000
  C   C69       1.0  0.45256  0.07995  0.69373  1.0000
  C   C70       1.0  0.54774  0.0923  0.7308899999999999  1.0000
  C   C71       1.0  0.12991000000000005  0.12616  0.8155799999999999  1.0000
  C   C72       1.0  0.49522000000000005  0.05629  0.62351  1.0000
  O   O1        1.0  0.14292  0.7236  0.15937  1.0000
  O   O2        1.0  0.81889  0.30162  0.3538  1.0000
  O   O3        1.0  0.6877499999999999  0.39331  0.36336  1.0000
  O   O4        1.0  0.37681  0.09075  0.45509  1.0000
  O   O5        1.0  0.60172  0.10074000000000001  0.44811999999999996  1.0000
  O   O6        1.0  0.11711000000000002  0.27218  0.37373  1.0000
  O   O7        1.0  0.22171  0.3609200000000001  0.33405  1.0000
  O   O8        1.0  0.01953  0.36658000000000013  0.21438  1.0000
  O   O9        1.0  0.8050700000000001  0.37971  0.20144  1.0000
  O   O10       1.0  0.67566  0.27579  0.01279  1.0000
  O   O11       1.0  0.7989900000000001  0.18785000000000002  0.97055  1.0000
  O   O12       1.0  0.3120800000000001  0.24034  0.94255  1.0000
  O   O13       1.0  0.35711000000000004  0.24664  0.04217  1.0000
  O   O14       1.0  0.9873100000000001  0.4673900000000001  0.33113  1.0000
  O   O15       1.0  0.89738  0.5257700000000001  0.25693  1.0000
  O   O16       1.0  0.37033  0.7174500000000001  0.13982  1.0000
  O   O17       1.0  0.60474  0.5354300000000001  0.22103  1.0000
  O   O18       1.0  0.49374  0.46443  0.29207  1.0000
  O   O19       1.0  0.4358699999999999  0.8639800000000001  0.10045999999999998  1.0000
  O   O20       1.0  0.27266  0.86705  0.19505  1.0000
  O   O21       1.0  0.37845999999999996  0.9481900000000001  0.40255  1.0000
  O   O22       1.0  0.59751  0.9577800000000001  0.40568  1.0000
  O   O23       1.0  0.9566700000000002  0.88916  0.21739  1.0000
  O   O24       1.0  0.90861  0.84122  0.13116  1.0000
  O   O25       1.0  0.86325  0.27606  0.83764  1.0000
  O   O26       1.0  0.18117  0.69841  0.64602  1.0000
  O   O27       1.0  0.31224000000000013  0.60669  0.6366099999999999  1.0000
  O   O28       1.0  0.6237800000000002  0.90918  0.5450199999999998  1.0000
  O   O29       1.0  0.3990799999999999  0.8992100000000001  0.55188  1.0000
  O   O30       1.0  0.8824  0.7272500000000002  0.62659  1.0000
  O   O31       1.0  0.7792000000000001  0.63691  0.66255  1.0000
  O   O32       1.0  0.98049  0.63636  0.785  1.0000
  O   O33       1.0  0.19433000000000003  0.6205  0.79861  1.0000
  O   O34       1.0  0.32426000000000005  0.72424  0.98747  1.0000
  O   O35       1.0  0.20103  0.8123600000000001  0.02962  1.0000
  O   O36       1.0  0.68771  0.75971  0.05766999999999999  1.0000
  O   O37       1.0  0.64307  0.7534300000000002  0.9579299999999998  1.0000
  O   O38       1.0  0.013130000000000017  0.53264  0.6689  1.0000
  O   O39       1.0  0.09925000000000005  0.4773800000000001  0.74654  1.0000
  O   O40       1.0  0.63545  0.2821700000000001  0.8604599999999999  1.0000
  O   O41       1.0  0.39517  0.46419  0.7797799999999999  1.0000
  O   O42       1.0  0.5064000000000001  0.53329  0.70684  1.0000
  O   O43       1.0  0.56419  0.13612000000000002  0.89955  1.0000
  O   O44       1.0  0.72751  0.13303  0.80496  1.0000
  O   O45       1.0  0.6212100000000003  0.051840000000000004  0.59757  1.0000
  O   O46       1.0  0.40227  0.04223  0.59439  1.0000
  O   O47       1.0  0.04146000000000003  0.10751000000000001  0.78576  1.0000
  O   O48       1.0  0.09202999999999999  0.15893  0.8693  1.0000
