data_image0
_chemical_formula_structural       Cu6H42C74N6O24
_chemical_formula_sum              "Cu6 H42 C74 N6 O24"
_cell_length_a       9.90009
_cell_length_b       15.74709
_cell_length_c       21.547579999999996
_cell_angle_alpha    98.02268
_cell_angle_beta     93.77331
_cell_angle_gamma    106.28943

_symmetry_space_group_name_H-M    'P 1'
_symmetry_Int_Tables_number       1

loop_
  _symmetry_equiv_pos_as_xyz
  'x,y,z'

loop_
  _atom_site_type_symbol
  _atom_site_label
  _atom_site_symmetry_multiplicity
  _atom_site_fract_x
  _atom_site_fract_y
  _atom_site_fract_z
  _atom_site_occupancy
  Cu  Cu1       1.0  0.37516  0.29919  0.54172  1.0000
  Cu  Cu2       1.0  0.051989999999999925  0.40868  0.6323  1.0000
  Cu  Cu3       1.0  0.9206199999999999  0.57113  0.7998499999999998  1.0000
  Cu  Cu4       1.0  0.624  0.70087  0.45771  1.0000
  Cu  Cu5       1.0  0.94805  0.59141  0.3676  1.0000
  Cu  Cu6       1.0  0.0802  0.42946  0.19969999999999996  1.0000
  H   H1        1.0  0.8997  0.5728400000000002  0.57443  1.0000
  H   H2        1.0  0.167  0.20887000000000006  0.43659  1.0000
  H   H3        1.0  0.92543  0.10128000000000002  0.42044000000000004  1.0000
  H   H4        1.0  0.9690599999999999  0.08700000000000002  0.61969  1.0000
  H   H5        1.0  0.21217999999999995  0.19437  0.62665  1.0000
  H   H6        1.0  0.7559200000000001  0.99114  0.557  1.0000
  H   H7        1.0  0.7268799999999997  0.01841999999999998  0.41862999999999995  1.0000
  H   H8        1.0  0.52363  0.94754  0.35477  1.0000
  H   H9        1.0  0.2897500000000001  0.8304500000000002  0.32858  1.0000
  H   H10       1.0  0.32658000000000004  0.7590000000000002  0.51285  1.0000
  H   H11       1.0  0.55977  0.8745400000000001  0.53959  1.0000
  H   H12       1.0  0.048500000000000015  0.36017  0.75591  1.0000
  H   H13       1.0  0.21915000000000007  0.3801100000000001  0.84956  1.0000
  H   H14       1.0  0.54133  0.5371  0.75037  1.0000
  H   H15       1.0  0.3572  0.51274  0.66146  1.0000
  H   H16       1.0  0.6121399999999999  0.51709  0.8530999999999999  1.0000
  H   H17       1.0  0.397  0.38331  0.9158999999999999  1.0000
  H   H18       1.0  0.49372999999999995  0.32963  0.99985  1.0000
  H   H19       1.0  0.68605  0.34351  0.0849  1.0000
  H   H20       1.0  0.93678  0.58251  0.02652  1.0000
  H   H21       1.0  0.75021  0.56681  0.93923  1.0000
  H   H22       1.0  0.09951000000000004  0.4270500000000001  0.42527  1.0000
  H   H23       1.0  0.8327  0.79086  0.56328  1.0000
  H   H24       1.0  0.07421000000000022  0.8985400000000004  0.57958  1.0000
  H   H25       1.0  0.031089999999999826  0.91303  0.38038  1.0000
  H   H26       1.0  0.7880399999999999  0.80565  0.37326  1.0000
  H   H27       1.0  0.24397  0.008829999999999989  0.44306999999999996  1.0000
  H   H28       1.0  0.27334000000000014  0.98156  0.58143  1.0000
  H   H29       1.0  0.47635  0.05267000000000002  0.64528  1.0000
  H   H30       1.0  0.7102699999999998  0.16971999999999998  0.67139  1.0000
  H   H31       1.0  0.67328  0.24106  0.48711  1.0000
  H   H32       1.0  0.44016999999999995  0.12552  0.46038999999999997  1.0000
  H   H33       1.0  0.9515699999999999  0.63994  0.24395  1.0000
  H   H34       1.0  0.78076  0.61988  0.15032  1.0000
  H   H35       1.0  0.45882  0.46306  0.24967  1.0000
  H   H36       1.0  0.64305  0.48743000000000003  0.3385  1.0000
  H   H37       1.0  0.38783  0.48297  0.1469  1.0000
  H   H38       1.0  0.60309  0.6166900000000002  0.0841  1.0000
  H   H39       1.0  0.50671  0.6704800000000002  0.00026  1.0000
  H   H40       1.0  0.31449  0.6568  0.91513  1.0000
  H   H41       1.0  0.06353000000000002  0.41776  0.97327  1.0000
  H   H42       1.0  0.24973999999999996  0.43334  0.06071  1.0000
  C   C1        1.0  0.54879  0.35510000000000014  0.65575  1.0000
  C   C2        1.0  0.61821  0.41506999999999994  0.61054  1.0000
  C   C3        1.0  0.7455699999999997  0.48476  0.62062  1.0000
  C   C4        1.0  0.8314399999999998  0.51361  0.68398  1.0000
  C   C5        1.0  0.7975300000000001  0.52159  0.56826  1.0000
  C   C6        1.0  0.72303  0.49142  0.50773  1.0000
  C   C7        1.0  0.7832500000000002  0.5344200000000002  0.45326999999999995  1.0000
  C   C8        1.0  0.59432  0.4235200000000001  0.50126  1.0000
  C   C9        1.0  0.49242  0.37945  0.4427  1.0000
  C   C10       1.0  0.11821999999999999  0.17858  0.47515  1.0000
  C   C11       1.0  0.9833799999999998  0.11904000000000002  0.46729000000000004  1.0000
  C   C12       1.0  0.9242399999999998  0.08246  0.51902  1.0000
  C   C13       1.0  0.008970000000000002  0.11092999999999999  0.5775  1.0000
  C   C14       1.0  0.14385  0.17058  0.58228  1.0000
  C   C15       1.0  0.7851899999999999  0.01723000000000001  0.51397  1.0000
  C   C16       1.0  0.69529  0.9884600000000002  0.46011  1.0000
  C   C17       1.0  0.5580400000000001  0.9208500000000002  0.44920999999999994  1.0000
  C   C18       1.0  0.4793700000000001  0.9071900000000003  0.38977  1.0000
  C   C19       1.0  0.3486499999999999  0.8424900000000001  0.37496  1.0000
  C   C20       1.0  0.29296  0.7891100000000002  0.4194899999999999  1.0000
  C   C21       1.0  0.3700500000000001  0.8016000000000002  0.47895  1.0000
  C   C22       1.0  0.5007699999999999  0.86659  0.49366  1.0000
  C   C23       1.0  0.15644  0.71797  0.4018900000000001  1.0000
  C   C24       1.0  0.15928  0.39736  0.75653  1.0000
  C   C25       1.0  0.25648  0.40885000000000005  0.80858  1.0000
  C   C26       1.0  0.39904999999999985  0.45866  0.80812  1.0000
  C   C27       1.0  0.4334100000000001  0.49766000000000005  0.75406  1.0000
  C   C28       1.0  0.33113999999999993  0.48341  0.70348  1.0000
  C   C29       1.0  0.5098199999999999  0.47206  0.85933  1.0000
  C   C30       1.0  0.49732  0.43178  0.9111499999999999  1.0000
  C   C31       1.0  0.6090899999999999  0.44546  0.9621599999999999  1.0000
  C   C32       1.0  0.59178  0.38424  0.00504  1.0000
  C   C33       1.0  0.6983500000000001  0.3918600000000001  0.05273  1.0000
  C   C34       1.0  0.8239499999999998  0.46299  0.06022999999999999  1.0000
  C   C35       1.0  0.83994  0.52682  0.01957  1.0000
  C   C36       1.0  0.73494  0.51765  0.97093  1.0000
  C   C37       1.0  0.9395999999999999  0.47144  0.11057999999999998  1.0000
  C   C38       1.0  0.45072  0.64523  0.34393  1.0000
  C   C39       1.0  0.38079  0.5851800000000003  0.38901  1.0000
  C   C40       1.0  0.25336  0.51551  0.37905  1.0000
  C   C41       1.0  0.16779000000000002  0.48647000000000007  0.31569  1.0000
  C   C42       1.0  0.20152999999999993  0.47848  0.43139000000000005  1.0000
  C   C43       1.0  0.27623  0.50858  0.49188  1.0000
  C   C44       1.0  0.21652999999999997  0.46555  0.54646  1.0000
  C   C45       1.0  0.40491  0.5764600000000002  0.49816999999999995  1.0000
  C   C46       1.0  0.50738  0.62027  0.55643  1.0000
  C   C47       1.0  0.88152  0.8212100000000001  0.52476  1.0000
  C   C48       1.0  0.01640000000000005  0.8807700000000003  0.53271  1.0000
  C   C49       1.0  0.07572000000000015  0.9174200000000002  0.48103  1.0000
  C   C50       1.0  0.99109  0.8889899999999998  0.42251999999999995  1.0000
  C   C51       1.0  0.8561999999999999  0.82936  0.41767000000000004  1.0000
  C   C52       1.0  0.2147399999999999  0.98269  0.48608  1.0000
  C   C53       1.0  0.30473  0.011510000000000001  0.53992  1.0000
  C   C54       1.0  0.4419299999999999  0.07918  0.55079  1.0000
  C   C55       1.0  0.52058  0.09294000000000001  0.61024  1.0000
  C   C56       1.0  0.6513099999999997  0.15764  0.62503  1.0000
  C   C57       1.0  0.7070199999999998  0.21095000000000003  0.58046  1.0000
  C   C58       1.0  0.6298499999999999  0.19846000000000005  0.52103  1.0000
  C   C59       1.0  0.49914  0.13345  0.50632  1.0000
  C   C60       1.0  0.8436799999999995  0.28199  0.59807  1.0000
  C   C61       1.0  0.8408099999999998  0.60272  0.24336000000000002  1.0000
  C   C62       1.0  0.74356  0.59115  0.19131999999999996  1.0000
  C   C63       1.0  0.60097  0.54139  0.19184000000000004  1.0000
  C   C64       1.0  0.56673  0.50243  0.24591999999999997  1.0000
  C   C65       1.0  0.6690599999999999  0.51674  0.29647  1.0000
  C   C66       1.0  0.49017  0.52797  0.14066  1.0000
  C   C67       1.0  0.50277  0.56821  0.08882  1.0000
  C   C68       1.0  0.39108  0.55465  0.03783  1.0000
  C   C69       1.0  0.40856999999999993  0.6159500000000001  0.99501  1.0000
  C   C70       1.0  0.30212000000000006  0.6084500000000002  0.94729  1.0000
  C   C71       1.0  0.17661000000000004  0.5373000000000002  0.93977  1.0000
  C   C72       1.0  0.16039000000000006  0.47343000000000013  0.9803700000000001  1.0000
  C   C73       1.0  0.26519  0.48253  0.02905  1.0000
  C   C74       1.0  0.06118999999999999  0.52837  0.88923  1.0000
  N   N1        1.0  0.55043  0.38957000000000014  0.55242  1.0000
  N   N2        1.0  0.19797999999999996  0.20321  0.53167  1.0000
  N   N3        1.0  0.19676999999999997  0.43263  0.70417  1.0000
  N   N4        1.0  0.44868999999999987  0.61051  0.44706000000000007  1.0000
  N   N5        1.0  0.80184  0.79667  0.4682  1.0000
  N   N6        1.0  0.80336  0.56757  0.29576  1.0000
  O   O1        1.0  0.6051999999999997  0.35864  0.70903  1.0000
  O   O2        1.0  0.42633000000000004  0.29713  0.63127  1.0000
  O   O3        1.0  0.9471899999999999  0.49576  0.69074  1.0000
  O   O4        1.0  0.7855300000000001  0.5574000000000002  0.72858  1.0000
  O   O5        1.0  0.7662599999999998  0.60888  0.44671  1.0000
  O   O6        1.0  0.8562699999999999  0.49533  0.41937  1.0000
  O   O7        1.0  0.50688  0.40795  0.39219999999999994  1.0000
  O   O8        1.0  0.3889399999999999  0.31009  0.451  1.0000
  O   O9        1.0  0.08056999999999993  0.71243  0.35001  1.0000
  O   O10       1.0  0.11274000000000009  0.65839  0.43699  1.0000
  O   O11       1.0  0.030619999999999984  0.54479  0.13153  1.0000
  O   O12       1.0  0.93968  0.3969000000000001  0.13143  1.0000
  O   O13       1.0  0.39513000000000015  0.6417800000000002  0.29058  1.0000
  O   O14       1.0  0.57297  0.7034400000000002  0.36865  1.0000
  O   O15       1.0  0.04964999999999998  0.50139  0.30929  1.0000
  O   O16       1.0  0.21691  0.44555  0.27073  1.0000
  O   O17       1.0  0.23337999999999998  0.39104  0.55298  1.0000
  O   O18       1.0  0.14408  0.50479  0.58061  1.0000
  O   O19       1.0  0.4932999999999999  0.59192  0.60693  1.0000
  O   O20       1.0  0.61117  0.68924  0.54772  1.0000
  O   O21       1.0  0.9195999999999999  0.2874000000000001  0.64989  1.0000
  O   O22       1.0  0.8873499999999999  0.34164  0.563  1.0000
  O   O23       1.0  0.97143  0.45466  0.86822  1.0000
  O   O24       1.0  0.06033000000000011  0.6028000000000002  0.86842  1.0000
