data_image0
_chemical_formula_structural       Cd2H44C48N8O4
_chemical_formula_sum              "Cd2 H44 C48 N8 O4"
_cell_length_a       11.07433
_cell_length_b       11.07201
_cell_length_c       12.44605
_cell_angle_alpha    70.63598
_cell_angle_beta     70.77512
_cell_angle_gamma    80.19435

_space_group_name_H-M_alt    "P 1"
_space_group_IT_number       1

loop_
  _space_group_symop_operation_xyz
  'x, y, z'

loop_
  _atom_site_type_symbol
  _atom_site_label
  _atom_site_symmetry_multiplicity
  _atom_site_fract_x
  _atom_site_fract_y
  _atom_site_fract_z
  _atom_site_occupancy
  Cd  Cd1       1.0  0.53671  0.46299000000000007  0.2502  1.0000
  Cd  Cd2       1.0  0.46330000000000005  0.5370199999999999  0.74979  1.0000
  H   H1        1.0  0.16558999999999993  0.6628800000000001  0.35363  1.0000
  H   H2        1.0  0.30562000000000006  0.54072  0.05312  1.0000
  H   H3        1.0  0.94188  0.6974100000000002  0.33685  1.0000
  H   H4        1.0  0.90101  0.64407  0.17187  1.0000
  H   H5        1.0  0.17862000000000003  0.5270400000000002  0.9419299999999999  1.0000
  H   H6        1.0  0.9194200000000001  0.67343  0.97444  1.0000
  H   H7        1.0  0.8556400000000001  0.70729  0.79706  1.0000
  H   H8        1.0  0.9059699999999999  0.6892500000000001  0.59963  1.0000
  H   H9        1.0  0.07086999999999997  0.6708200000000001  0.59243  1.0000
  H   H10       1.0  0.88485  0.87362  0.43845  1.0000
  H   H11       1.0  0.10251  0.8926800000000001  0.66075  1.0000
  H   H12       1.0  0.3368399999999999  0.83443  0.14632  1.0000
  H   H13       1.0  0.45942000000000005  0.6945100000000002  0.4471  1.0000
  H   H14       1.0  0.3027100000000001  0.05847999999999998  0.16223  1.0000
  H   H15       1.0  0.3558700000000001  0.09961  0.3272  1.0000
  H   H16       1.0  0.47254999999999997  0.82132  0.55823  1.0000
  H   H17       1.0  0.32680999999999993  0.08111000000000002  0.52544  1.0000
  H   H18       1.0  0.29241  0.14504  0.70286  1.0000
  H   H19       1.0  0.31068  0.09358999999999998  0.90068  1.0000
  H   H20       1.0  0.3286999999999999  0.92876  0.90764  1.0000
  H   H21       1.0  0.12658  0.11542  0.061130000000000004  1.0000
  H   H22       1.0  0.10687000000000003  0.89733  0.8397  1.0000
  H   H23       1.0  0.83442  0.3371199999999999  0.64636  1.0000
  H   H24       1.0  0.6943800000000002  0.45929  0.94688  1.0000
  H   H25       1.0  0.05812000000000001  0.30258999999999997  0.66315  1.0000
  H   H26       1.0  0.09898999999999998  0.35593  0.82813  1.0000
  H   H27       1.0  0.82139  0.47296  0.05806999999999999  1.0000
  H   H28       1.0  0.08059  0.32657  0.02556  1.0000
  H   H29       1.0  0.14436999999999997  0.29271  0.20294000000000004  1.0000
  H   H30       1.0  0.09402999999999999  0.31075  0.40037000000000006  1.0000
  H   H31       1.0  0.92914  0.32919  0.40757  1.0000
  H   H32       1.0  0.11515  0.12638  0.56155  1.0000
  H   H33       1.0  0.8975  0.10731999999999998  0.33925  1.0000
  H   H34       1.0  0.6631700000000001  0.16557  0.85368  1.0000
  H   H35       1.0  0.54058  0.30549  0.5529  1.0000
  H   H36       1.0  0.6973  0.94152  0.83776  1.0000
  H   H37       1.0  0.6441399999999999  0.9003899999999999  0.6728  1.0000
  H   H38       1.0  0.52745  0.17868  0.44176  1.0000
  H   H39       1.0  0.6731900000000002  0.91889  0.47456  1.0000
  H   H40       1.0  0.70759  0.85496  0.29714  1.0000
  H   H41       1.0  0.68932  0.90641  0.09931  1.0000
  H   H42       1.0  0.6713  0.07123999999999998  0.09236  1.0000
  H   H43       1.0  0.8734300000000002  0.88458  0.9388599999999999  1.0000
  H   H44       1.0  0.89314  0.10267000000000003  0.16029  1.0000
  C   C1        1.0  0.14412  0.64295  0.28197  1.0000
  C   C2        1.0  0.22199  0.57407  0.11552  1.0000
  C   C3        1.0  0.019899999999999994  0.6621  0.27204  1.0000
  C   C4        1.0  0.10046  0.58567  0.09934000000000001  1.0000
  C   C5        1.0  0.99764  0.63328  0.17947  1.0000
  C   C6        1.0  0.08504  0.53446  0.007790000000000001  1.0000
  C   C7        1.0  0.9827099999999999  0.59693  0.94268  1.0000
  C   C8        1.0  0.037410000000000034  0.6401000000000001  0.8082499999999999  1.0000
  C   C9        1.0  0.9795000000000001  0.72539  0.62036  1.0000
  C   C10       1.0  0.99129  0.8672  0.55739  1.0000
  C   C11       1.0  0.93541  0.9290599999999998  0.4657200000000001  1.0000
  C   C12       1.0  0.05672999999999999  0.9396000000000001  0.59092  1.0000
  C   C13       1.0  0.35693  0.85601  0.21785  1.0000
  C   C14       1.0  0.42583999999999994  0.77821  0.38457  1.0000
  C   C15       1.0  0.3378  0.9803800000000001  0.22744  1.0000
  C   C16       1.0  0.41392000000000007  0.89986  0.40063  1.0000
  C   C17       1.0  0.36647  0.0027699999999999995  0.32004  1.0000
  C   C18       1.0  0.46521  0.9151300000000001  0.4923100000000001  1.0000
  C   C19       1.0  0.40322  0.017460000000000017  0.55738  1.0000
  C   C20       1.0  0.35998999999999987  0.9628700000000001  0.69206  1.0000
  C   C21       1.0  0.27434  0.02046999999999999  0.87965  1.0000
  C   C22       1.0  0.13265000000000007  0.008870000000000025  0.9424899999999999  1.0000
  C   C23       1.0  0.07107  0.0648  0.03397  1.0000
  C   C24       1.0  0.06008999999999998  0.9432200000000001  0.9093199999999999  1.0000
  C   C25       1.0  0.8558899999999999  0.35705  0.71803  1.0000
  C   C26       1.0  0.77801  0.42593000000000003  0.88447  1.0000
  C   C27       1.0  0.9801  0.3379  0.72796  1.0000
  C   C28       1.0  0.8995499999999998  0.4143299999999999  0.9006600000000001  1.0000
  C   C29       1.0  0.0023599999999999828  0.36672  0.82053  1.0000
  C   C30       1.0  0.91497  0.46555  0.9922099999999999  1.0000
  C   C31       1.0  0.017300000000000006  0.40307  0.05730999999999999  1.0000
  C   C32       1.0  0.9626  0.3599  0.19175  1.0000
  C   C33       1.0  0.020509999999999994  0.27461  0.37964  1.0000
  C   C34       1.0  0.008719999999999999  0.13279999999999997  0.44261  1.0000
  C   C35       1.0  0.06459000000000002  0.07093999999999999  0.53428  1.0000
  C   C36       1.0  0.9432800000000001  0.06040000000000001  0.40908  1.0000
  C   C37       1.0  0.64308  0.14398999999999998  0.78214  1.0000
  C   C38       1.0  0.57417  0.22180000000000002  0.61542  1.0000
  C   C39       1.0  0.6622099999999999  0.019620000000000026  0.77255  1.0000
  C   C40       1.0  0.58608  0.10013999999999998  0.59937  1.0000
  C   C41       1.0  0.63353  0.99723  0.67995  1.0000
  C   C42       1.0  0.53479  0.08486999999999999  0.50769  1.0000
  C   C43       1.0  0.59679  0.98254  0.44262  1.0000
  C   C44       1.0  0.6400200000000001  0.03713  0.30793  1.0000
  C   C45       1.0  0.72566  0.97953  0.12034000000000002  1.0000
  C   C46       1.0  0.8673599999999999  0.99113  0.05750999999999999  1.0000
  C   C47       1.0  0.9289400000000001  0.9352  0.96603  1.0000
  C   C48       1.0  0.93992  0.05678  0.09067999999999998  1.0000
  N   N1        1.0  0.24490000000000006  0.60115  0.20405  1.0000
  N   N2        1.0  0.9484299999999999  0.6961500000000002  0.7491400000000001  1.0000
  N   N3        1.0  0.39893999999999996  0.7552000000000001  0.296  1.0000
  N   N4        1.0  0.30368  0.052010000000000015  0.75078  1.0000
  N   N5        1.0  0.7551100000000001  0.39886000000000005  0.79594  1.0000
  N   N6        1.0  0.051580000000000015  0.30385  0.25086  1.0000
  N   N7        1.0  0.60107  0.24480000000000005  0.70399  1.0000
  N   N8        1.0  0.69633  0.9479899999999999  0.24922  1.0000
  O   O1        1.0  0.15134999999999996  0.6189600000000002  0.75581  1.0000
  O   O2        1.0  0.38090999999999997  0.8489300000000001  0.74539  1.0000
  O   O3        1.0  0.84866  0.38104000000000005  0.24417999999999998  1.0000
  O   O4        1.0  0.6191000000000001  0.15107000000000004  0.2546  1.0000
