data_image0
_chemical_formula_structural       Zn4H48C64N8O16
_chemical_formula_sum              "Zn4 H48 C64 N8 O16"
_cell_length_a       12.33459
_cell_length_b       12.1711
_cell_length_c       13.91502
_cell_angle_alpha    90.01600999999998
_cell_angle_beta     89.97117
_cell_angle_gamma    90.00135

_space_group_name_H-M_alt    "P 1"
_space_group_IT_number       1

loop_
  _space_group_symop_operation_xyz
  'x, y, z'

loop_
  _atom_site_type_symbol
  _atom_site_label
  _atom_site_symmetry_multiplicity
  _atom_site_fract_x
  _atom_site_fract_y
  _atom_site_fract_z
  _atom_site_occupancy
  Zn  Zn1       1.0  0.8063399999999998  0.24901000000000006  0.9990100000000001  1.0000
  Zn  Zn2       1.0  0.30557  0.7506600000000001  0.49876  1.0000
  Zn  Zn3       1.0  0.6944299999999999  0.24934000000000006  0.50124  1.0000
  Zn  Zn4       1.0  0.19365  0.7509900000000002  0.00099  1.0000
  H   H1        1.0  0.42402  0.61179  0.16994  1.0000
  H   H2        1.0  0.32048  0.7208600000000001  0.28977  1.0000
  H   H3        1.0  0.52031  0.6237500000000001  0.513  1.0000
  H   H4        1.0  0.63468  0.5098200000000002  0.40263  1.0000
  H   H5        1.0  0.6642899999999999  0.42883  0.24891  1.0000
  H   H6        1.0  0.53432  0.5227400000000001  0.07812  1.0000
  H   H7        1.0  0.42338  0.8879000000000002  0.82943  1.0000
  H   H8        1.0  0.32018  0.77888  0.7095200000000002  1.0000
  H   H9        1.0  0.52052  0.87608  0.48661  1.0000
  H   H10       1.0  0.63446  0.9900700000000002  0.59698  1.0000
  H   H11       1.0  0.66413  0.07039  0.75124  1.0000
  H   H12       1.0  0.53364  0.9761900000000002  0.92167  1.0000
  H   H13       1.0  0.92311  0.11194  0.32948  1.0000
  H   H14       1.0  0.8202  0.22121000000000005  0.20952000000000004  1.0000
  H   H15       1.0  0.02065  0.12384000000000003  0.9867100000000001  1.0000
  H   H16       1.0  0.13455  0.00977  0.09719000000000003  1.0000
  H   H17       1.0  0.1642  0.92967  0.25108  1.0000
  H   H18       1.0  0.03357  0.02411  0.42154  1.0000
  H   H19       1.0  0.92376  0.3882100000000001  0.66972  1.0000
  H   H20       1.0  0.8205799999999999  0.27908  0.78961  1.0000
  H   H21       1.0  0.02053  0.37645  0.01265  1.0000
  H   H22       1.0  0.13476  0.4904100000000001  0.90223  1.0000
  H   H23       1.0  0.16417999999999996  0.57121  0.74852  1.0000
  H   H24       1.0  0.03446  0.47741  0.57752  1.0000
  H   H25       1.0  0.07689  0.8880600000000002  0.67052  1.0000
  H   H26       1.0  0.1798  0.77879  0.79048  1.0000
  H   H27       1.0  0.97935  0.8761600000000002  0.0133  1.0000
  H   H28       1.0  0.86545  0.9902300000000002  0.90281  1.0000
  H   H29       1.0  0.8358  0.07033  0.74892  1.0000
  H   H30       1.0  0.9664299999999998  0.9758900000000003  0.57846  1.0000
  H   H31       1.0  0.07624  0.61179  0.33028  1.0000
  H   H32       1.0  0.17942  0.72092  0.21039  1.0000
  H   H33       1.0  0.97946  0.62355  0.98735  1.0000
  H   H34       1.0  0.86524  0.50959  0.09777  1.0000
  H   H35       1.0  0.83581  0.4287800000000001  0.25148  1.0000
  H   H36       1.0  0.96554  0.5225900000000001  0.42248  1.0000
  H   H37       1.0  0.57598  0.3882000000000001  0.83006  1.0000
  H   H38       1.0  0.67952  0.27914000000000005  0.71024  1.0000
  H   H39       1.0  0.47969  0.37625  0.487  1.0000
  H   H40       1.0  0.36530999999999997  0.4901800000000001  0.59738  1.0000
  H   H41       1.0  0.3357  0.57117  0.75109  1.0000
  H   H42       1.0  0.46568  0.47726  0.92188  1.0000
  H   H43       1.0  0.57662  0.11210000000000002  0.17057  1.0000
  H   H44       1.0  0.67982  0.22112  0.29048  1.0000
  H   H45       1.0  0.47948  0.12392000000000002  0.51339  1.0000
  H   H46       1.0  0.3655399999999999  0.00993  0.40302  1.0000
  H   H47       1.0  0.33587  0.9296  0.24876000000000004  1.0000
  H   H48       1.0  0.46635999999999994  0.02381  0.07833  1.0000
  C   C1        1.0  0.44941  0.61181  0.24496  1.0000
  C   C2        1.0  0.39023  0.67213  0.31116000000000005  1.0000
  C   C3        1.0  0.5022  0.61859  0.4366  1.0000
  C   C4        1.0  0.56557  0.55574  0.37503  1.0000
  C   C5        1.0  0.53897  0.54973  0.27669  1.0000
  C   C6        1.0  0.60376  0.47993000000000013  0.21349000000000004  1.0000
  C   C7        1.0  0.59416  0.47415  0.11696  1.0000
  C   C8        1.0  0.66314  0.4015600000000001  0.05659  1.0000
  C   C9        1.0  0.44893  0.8879200000000003  0.75445  1.0000
  C   C10       1.0  0.38994  0.82759  0.68815  1.0000
  C   C11       1.0  0.50222  0.8812100000000003  0.56299  1.0000
  C   C12       1.0  0.56539  0.9441200000000002  0.6246200000000001  1.0000
  C   C13       1.0  0.53861  0.94996  0.72295  1.0000
  C   C14       1.0  0.60341  0.019310000000000004  0.78643  1.0000
  C   C15       1.0  0.59379  0.024670000000000004  0.8829900000000003  1.0000
  C   C16       1.0  0.6628899999999999  0.09727  0.9431  1.0000
  C   C17       1.0  0.9488599999999999  0.11204000000000003  0.25454  1.0000
  C   C18       1.0  0.88995  0.17240000000000003  0.18824000000000002  1.0000
  C   C19       1.0  0.00233  0.11871  0.06308  1.0000
  C   C20       1.0  0.06544  0.05581000000000001  0.12472  1.0000
  C   C21       1.0  0.03856  0.04995  0.22304  1.0000
  C   C22       1.0  0.10343  0.9806100000000002  0.28647  1.0000
  C   C23       1.0  0.09388999999999999  0.97574  0.38304  1.0000
  C   C24       1.0  0.16342  0.90431  0.4437200000000001  1.0000
  C   C25       1.0  0.94931  0.38825  0.7447  1.0000
  C   C26       1.0  0.89028  0.32789  0.8109800000000001  1.0000
  C   C27       1.0  0.0023499999999999997  0.3815600000000001  0.9362600000000002  1.0000
  C   C28       1.0  0.06562  0.44444  0.8746600000000002  1.0000
  C   C29       1.0  0.03893  0.45034  0.7763  1.0000
  C   C30       1.0  0.10368999999999999  0.52011  0.71301  1.0000
  C   C31       1.0  0.09433  0.52593  0.61647  1.0000
  C   C32       1.0  0.16347  0.59887  0.55653  1.0000
  C   C33       1.0  0.051139999999999984  0.8879600000000001  0.74546  1.0000
  C   C34       1.0  0.11004999999999998  0.82759  0.8117600000000001  1.0000
  C   C35       1.0  0.9976699999999998  0.88129  0.93692  1.0000
  C   C36       1.0  0.93456  0.9441900000000002  0.87528  1.0000
  C   C37       1.0  0.96144  0.95005  0.77696  1.0000
  C   C38       1.0  0.8965699999999999  0.01939  0.71353  1.0000
  C   C39       1.0  0.9061099999999999  0.024260000000000004  0.6169600000000001  1.0000
  C   C40       1.0  0.83658  0.09569000000000003  0.55628  1.0000
  C   C41       1.0  0.05068999999999999  0.6117500000000001  0.2553  1.0000
  C   C42       1.0  0.10972  0.6721100000000001  0.18902  1.0000
  C   C43       1.0  0.9976399999999999  0.61844  0.06374  1.0000
  C   C44       1.0  0.93438  0.55556  0.12534  1.0000
  C   C45       1.0  0.96106  0.5496500000000001  0.2237  1.0000
  C   C46       1.0  0.8963099999999999  0.4798900000000001  0.287  1.0000
  C   C47       1.0  0.90567  0.47407000000000005  0.38353  1.0000
  C   C48       1.0  0.83653  0.40113000000000004  0.44347  1.0000
  C   C49       1.0  0.55059  0.38819  0.7550400000000003  1.0000
  C   C50       1.0  0.60977  0.32787  0.68884  1.0000
  C   C51       1.0  0.4978  0.38141000000000014  0.56341  1.0000
  C   C52       1.0  0.4344299999999999  0.4442600000000001  0.62497  1.0000
  C   C53       1.0  0.46103  0.45026000000000005  0.72331  1.0000
  C   C54       1.0  0.39623  0.5200700000000001  0.78651  1.0000
  C   C55       1.0  0.40583  0.52585  0.88304  1.0000
  C   C56       1.0  0.33686  0.59844  0.94341  1.0000
  C   C57       1.0  0.55107  0.11208000000000003  0.24555  1.0000
  C   C58       1.0  0.61006  0.17241  0.31185  1.0000
  C   C59       1.0  0.49778  0.11879000000000002  0.43701  1.0000
  C   C60       1.0  0.43461  0.05588  0.37538  1.0000
  C   C61       1.0  0.46139  0.05004000000000001  0.27705  1.0000
  C   C62       1.0  0.39659  0.9806900000000001  0.21357  1.0000
  C   C63       1.0  0.40621  0.97532  0.11701  1.0000
  C   C64       1.0  0.33711  0.9027300000000003  0.056900000000000006  1.0000
  N   N1        1.0  0.41435999999999995  0.67486  0.4061  1.0000
  N   N2        1.0  0.41437  0.82481  0.59324  1.0000
  N   N3        1.0  0.91446  0.17513  0.09335  1.0000
  N   N4        1.0  0.9145499999999999  0.3251200000000001  0.90588  1.0000
  N   N5        1.0  0.08553  0.8248700000000002  0.90665  1.0000
  N   N6        1.0  0.08545  0.67488  0.09413  1.0000
  N   N7        1.0  0.58564  0.32514  0.5939  1.0000
  N   N8        1.0  0.58563  0.17518  0.40676  1.0000
  O   O1        1.0  0.64522  0.39446  0.96798  1.0000
  O   O2        1.0  0.7413499999999998  0.34813  0.09917000000000002  1.0000
  O   O3        1.0  0.64467  0.10567  0.03149  1.0000
  O   O4        1.0  0.74186  0.14968  0.9003  1.0000
  O   O5        1.0  0.14787  0.89996  0.53275  1.0000
  O   O6        1.0  0.24038  0.8493700000000002  0.40045  1.0000
  O   O7        1.0  0.14733  0.60514  0.46757  1.0000
  O   O8        1.0  0.24043999999999996  0.6536  0.59968  1.0000
  O   O9        1.0  0.8521299999999999  0.10004000000000003  0.46725  1.0000
  O   O10       1.0  0.7596199999999999  0.15063  0.59955  1.0000
  O   O11       1.0  0.85267  0.3948600000000001  0.53243  1.0000
  O   O12       1.0  0.7595599999999999  0.3464000000000001  0.40032  1.0000
  O   O13       1.0  0.35478  0.60554  0.03202  1.0000
  O   O14       1.0  0.25864  0.6518700000000001  0.9008300000000001  1.0000
  O   O15       1.0  0.35533  0.8943300000000002  0.96851  1.0000
  O   O16       1.0  0.25814  0.8503200000000002  0.0997  1.0000
