data_image0
_chemical_formula_structural       Nd2H38C68O16
_chemical_formula_sum              "Nd2 H38 C68 O16"
_cell_length_a       9.50187
_cell_length_b       12.218689999999999
_cell_length_c       15.919929999999999
_cell_angle_alpha    88.55518
_cell_angle_beta     74.62456
_cell_angle_gamma    69.95823

_symmetry_space_group_name_H-M    'P 1'
_symmetry_Int_Tables_number       1

loop_
  _symmetry_equiv_pos_as_xyz
  'x,y,z'

loop_
  _atom_site_type_symbol
  _atom_site_label
  _atom_site_symmetry_multiplicity
  _atom_site_fract_x
  _atom_site_fract_y
  _atom_site_fract_z
  _atom_site_occupancy
  Nd  Nd1       1.0  0.29459  0.97627  0.018999999999999993  1.0000
  Nd  Nd2       1.0  0.7054100000000001  0.023729999999999984  0.9809999999999998  1.0000
  H   H1        1.0  0.9961900000000004  0.8073399999999997  0.045229999999999985  1.0000
  H   H2        1.0  0.34237  0.2813  0.51653  1.0000
  H   H3        1.0  0.1650000000000001  0.7093499999999999  0.5179099999999999  1.0000
  H   H4        1.0  0.27652000000000004  0.7494399999999999  0.3835199999999999  1.0000
  H   H5        1.0  0.2161200000000001  0.8558399999999998  0.25537  1.0000
  H   H6        1.0  0.03274999999999998  0.601  0.19414999999999993  1.0000
  H   H7        1.0  0.08469000000000004  0.49779  0.3238799999999999  1.0000
  H   H8        1.0  0.4720700000000001  0.39525999999999994  0.27634  1.0000
  H   H9        1.0  0.5066099999999999  0.25586  0.15564  1.0000
  H   H10       1.0  0.14687000000000006  0.14497999999999997  0.3169299999999999  1.0000
  H   H11       1.0  0.12047000000000002  0.2789999999999999  0.441  1.0000
  H   H12       1.0  0.21786000000000005  0.24698999999999996  0.64855  1.0000
  H   H13       1.0  0.2708700000000001  0.13701999999999995  0.7763299999999997  1.0000
  H   H14       1.0  0.4900800000000002  0.36831  0.8349999999999997  1.0000
  H   H15       1.0  0.4323000000000002  0.48196999999999995  0.7092799999999998  1.0000
  H   H16       1.0  0.04776000000000006  0.55975  0.75684  1.0000
  H   H17       1.0  0.9846800000000001  0.69343  0.8868799999999998  1.0000
  H   H18       1.0  0.2756500000000001  0.8725399999999999  0.73865  1.0000
  H   H19       1.0  0.3304800000000004  0.74419  0.6060799999999997  1.0000
  H   H20       1.0  0.0038000000000001518  0.19266  0.9547699999999998  1.0000
  H   H21       1.0  0.6576200000000001  0.7187  0.48347  1.0000
  H   H22       1.0  0.83499  0.29065  0.48209  1.0000
  H   H23       1.0  0.7234799999999998  0.25055  0.6164799999999998  1.0000
  H   H24       1.0  0.7838700000000001  0.14416  0.7446299999999998  1.0000
  H   H25       1.0  0.9672400000000001  0.399  0.8058499999999997  1.0000
  H   H26       1.0  0.9153000000000002  0.50221  0.67612  1.0000
  H   H27       1.0  0.5279200000000001  0.6047399999999999  0.72366  1.0000
  H   H28       1.0  0.49338000000000015  0.7441399999999999  0.8443599999999998  1.0000
  H   H29       1.0  0.8531300000000003  0.85502  0.6830699999999997  1.0000
  H   H30       1.0  0.87952  0.7209999999999999  0.5589999999999998  1.0000
  H   H31       1.0  0.78213  0.7530099999999998  0.3514499999999999  1.0000
  H   H32       1.0  0.7291199999999999  0.8629799999999999  0.22367  1.0000
  H   H33       1.0  0.5099100000000003  0.63169  0.16498999999999994  1.0000
  H   H34       1.0  0.56769  0.51803  0.2907099999999999  1.0000
  H   H35       1.0  0.95224  0.44025  0.24315999999999993  1.0000
  H   H36       1.0  0.015310000000000011  0.30657  0.11310999999999997  1.0000
  H   H37       1.0  0.7243400000000002  0.12746  0.26134999999999997  1.0000
  H   H38       1.0  0.66951  0.25581  0.39392  1.0000
  C   C1        1.0  0.2250400000000001  0.5506199999999999  0.43973999999999996  1.0000
  C   C2        1.0  0.27204999999999996  0.42722  0.4413699999999999  1.0000
  C   C3        1.0  0.3002800000000001  0.37618  0.51775  1.0000
  C   C4        1.0  0.2824400000000001  0.4399299999999999  0.59435  1.0000
  C   C5        1.0  0.2319199999999999  0.5634999999999999  0.5937  1.0000
  C   C6        1.0  0.20796000000000003  0.61444  0.51636  1.0000
  C   C7        1.0  0.18698999999999996  0.61432  0.3634799999999999  1.0000
  C   C8        1.0  0.21916000000000005  0.718  0.3438499999999999  1.0000
  C   C9        1.0  0.18687000000000006  0.77778  0.2717  1.0000
  C   C10       1.0  0.12105000000000003  0.73495  0.21662999999999996  1.0000
  C   C11       1.0  0.08605000000000002  0.63285  0.23607999999999998  1.0000
  C   C12       1.0  0.11688  0.57451  0.30876  1.0000
  C   C13       1.0  0.08977000000000004  0.7978899999999999  0.13944  1.0000
  C   C14       1.0  0.29388  0.34663  0.3669199999999999  1.0000
  C   C15       1.0  0.40126  0.3402  0.28573  1.0000
  C   C16       1.0  0.4202100000000001  0.26253  0.21757999999999994  1.0000
  C   C17       1.0  0.3279800000000001  0.1921  0.22874999999999998  1.0000
  C   C18       1.0  0.22023999999999994  0.19798  0.30984  1.0000
  C   C19       1.0  0.20551999999999998  0.27287  0.37854  1.0000
  C   C20       1.0  0.33676  0.11363  0.15610999999999994  1.0000
  C   C21       1.0  0.3186400000000001  0.37431999999999993  0.6700799999999998  1.0000
  C   C22       1.0  0.2784900000000002  0.27374  0.68867  1.0000
  C   C23       1.0  0.3072900000000001  0.21197  0.7604499999999997  1.0000
  C   C24       1.0  0.38200000000000006  0.24650999999999998  0.8143399999999997  1.0000
  C   C25       1.0  0.4278800000000002  0.34376999999999996  0.7947499999999997  1.0000
  C   C26       1.0  0.39520999999999995  0.40724  0.72414  1.0000
  C   C27       1.0  0.41485000000000016  0.17686  0.8898199999999998  1.0000
  C   C28       1.0  0.19464999999999996  0.64207  0.67217  1.0000
  C   C29       1.0  0.09686999999999993  0.62865  0.7522  1.0000
  C   C30       1.0  0.06167000000000002  0.7029  0.8252899999999999  1.0000
  C   C31       1.0  0.12837000000000015  0.7898499999999998  0.82128  1.0000
  C   C32       1.0  0.22343000000000024  0.80555  0.7416399999999997  1.0000
  C   C33       1.0  0.25381  0.73363  0.66751  1.0000
  C   C34       1.0  0.10333000000000003  0.8585  0.90329  1.0000
  C   C35       1.0  0.7749500000000002  0.44938  0.5602599999999998  1.0000
  C   C36       1.0  0.7279400000000001  0.57278  0.55863  1.0000
  C   C37       1.0  0.69971  0.6238199999999999  0.4822399999999999  1.0000
  C   C38       1.0  0.71756  0.56007  0.40565  1.0000
  C   C39       1.0  0.7680700000000001  0.4365  0.4062899999999999  1.0000
  C   C40       1.0  0.79204  0.38556  0.48363  1.0000
  C   C41       1.0  0.8130099999999999  0.38568  0.6365199999999998  1.0000
  C   C42       1.0  0.78083  0.282  0.65615  1.0000
  C   C43       1.0  0.81312  0.22221999999999997  0.72829  1.0000
  C   C44       1.0  0.8789400000000004  0.26505  0.7833599999999997  1.0000
  C   C45       1.0  0.9139400000000001  0.36714  0.7639199999999998  1.0000
  C   C46       1.0  0.88311  0.42549  0.6912299999999998  1.0000
  C   C47       1.0  0.9102300000000001  0.20211  0.86056  1.0000
  C   C48       1.0  0.70611  0.65337  0.6330799999999999  1.0000
  C   C49       1.0  0.5987299999999999  0.6598  0.71427  1.0000
  C   C50       1.0  0.5797800000000001  0.7374699999999998  0.7824199999999998  1.0000
  C   C51       1.0  0.6720100000000002  0.8079  0.7712499999999998  1.0000
  C   C52       1.0  0.7797500000000005  0.8020199999999997  0.6901499999999998  1.0000
  C   C53       1.0  0.7944800000000001  0.7271299999999999  0.6214599999999998  1.0000
  C   C54       1.0  0.6632300000000001  0.88637  0.8438899999999999  1.0000
  C   C55       1.0  0.68136  0.62568  0.32992  1.0000
  C   C56       1.0  0.7215  0.72626  0.31133  1.0000
  C   C57       1.0  0.6927000000000003  0.7880299999999999  0.23953999999999995  1.0000
  C   C58       1.0  0.6179900000000003  0.75349  0.18565  1.0000
  C   C59       1.0  0.5721100000000001  0.65623  0.20525  1.0000
  C   C60       1.0  0.6047800000000001  0.59276  0.27586  1.0000
  C   C61       1.0  0.58514  0.82313  0.11017  1.0000
  C   C62       1.0  0.8053400000000002  0.35792  0.32783  1.0000
  C   C63       1.0  0.9031200000000003  0.3713499999999999  0.24778999999999995  1.0000
  C   C64       1.0  0.9383200000000002  0.2971  0.17469999999999994  1.0000
  C   C65       1.0  0.8716299999999998  0.21015  0.17871999999999993  1.0000
  C   C66       1.0  0.77656  0.19444999999999998  0.25834999999999997  1.0000
  C   C67       1.0  0.7461799999999998  0.26637  0.33249  1.0000
  C   C68       1.0  0.8966600000000001  0.1415  0.09669999999999997  1.0000
  O   O1        1.0  0.12592000000000006  0.88574  0.11864999999999998  1.0000
  O   O2        1.0  0.01853999999999999  0.75496  0.09481  1.0000
  O   O3        1.0  0.23295  0.06723  0.16629  1.0000
  O   O4        1.0  0.44462000000000007  0.09567  0.08343999999999997  1.0000
  O   O5        1.0  0.5355900000000002  0.17130999999999993  0.9127299999999998  1.0000
  O   O6        1.0  0.3196700000000001  0.12536  0.92518  1.0000
  O   O7        1.0  0.21389000000000014  0.8885999999999997  0.9127999999999997  1.0000
  O   O8        1.0  0.9728899999999999  0.87793  0.96236  1.0000
  O   O9        1.0  0.8740700000000001  0.11425999999999999  0.8813499999999997  1.0000
  O   O10       1.0  0.98145  0.24503  0.90519  1.0000
  O   O11       1.0  0.7670400000000002  0.9327699999999999  0.8336999999999998  1.0000
  O   O12       1.0  0.5553800000000002  0.9043299999999999  0.9165599999999998  1.0000
  O   O13       1.0  0.4644000000000001  0.82869  0.08727  1.0000
  O   O14       1.0  0.6803200000000001  0.8746399999999999  0.07480999999999997  1.0000
  O   O15       1.0  0.7861000000000004  0.11139999999999999  0.0872  1.0000
  O   O16       1.0  0.027100000000000023  0.12205999999999997  0.03762999999999998  1.0000
