data_image0
_chemical_formula_structural       Co4H24C48N4O20
_chemical_formula_sum              "Co4 H24 C48 N4 O20"
_cell_length_a       10.0536
_cell_length_b       18.4964
_cell_length_c       18.239719999999995
_cell_angle_alpha    91.22311
_cell_angle_beta     93.27995
_cell_angle_gamma    90.47016999999998

_space_group_name_H-M_alt    "P 1"
_space_group_IT_number       1

loop_
  _space_group_symop_operation_xyz
  'x, y, z'

loop_
  _atom_site_type_symbol
  _atom_site_label
  _atom_site_symmetry_multiplicity
  _atom_site_fract_x
  _atom_site_fract_y
  _atom_site_fract_z
  _atom_site_occupancy
  Co  Co1       1.0  0.5077299999999999  0.6973199999999999  0.62126  1.0000
  Co  Co2       1.0  0.31859  0.74532  0.51939  1.0000
  Co  Co3       1.0  0.49768  0.20075  0.37725  1.0000
  Co  Co4       1.0  0.6447499999999999  0.24752999999999997  0.46862000000000004  1.0000
  H   H1        1.0  0.6911099999999998  0.9962799999999999  0.78702  1.0000
  H   H2        1.0  0.84677  0.13763  0.09859  1.0000
  H   H3        1.0  0.03353999999999999  0.13574999999999998  0.79972  1.0000
  H   H4        1.0  0.13465  0.15857999999999994  0.92812  1.0000
  H   H5        1.0  0.77055  0.08304  0.015209999999999998  1.0000
  H   H6        1.0  0.67276  0.061399999999999996  0.89091  1.0000
  H   H7        1.0  0.59793  0.90381  0.70214  1.0000
  H   H8        1.0  0.45329  0.97  0.48730999999999997  1.0000
  H   H9        1.0  0.65111  0.12445  0.63767  1.0000
  H   H10       1.0  0.19311  0.16182  0.18199  1.0000
  H   H11       1.0  0.04187999999999999  0.2085  0.39439  1.0000
  H   H12       1.0  0.7686499999999999  0.16266  0.2086  1.0000
  H   H13       1.0  0.31351999999999997  0.50992  0.21321  1.0000
  H   H14       1.0  0.15911999999999998  0.64253  0.9026099999999999  1.0000
  H   H15       1.0  0.9775799999999998  0.64911  0.20336  1.0000
  H   H16       1.0  0.8750099999999998  0.66433  0.07559  1.0000
  H   H17       1.0  0.23931999999999998  0.59011  0.9872  1.0000
  H   H18       1.0  0.33782  0.5744799999999998  0.11125  1.0000
  H   H19       1.0  0.39326999999999995  0.41579  0.28758  1.0000
  H   H20       1.0  0.54018  0.4671  0.50881  1.0000
  H   H21       1.0  0.36219  0.6337099999999999  0.37441  1.0000
  H   H22       1.0  0.81022  0.6633699999999998  0.82389  1.0000
  H   H23       1.0  0.9515199999999999  0.70492  0.61009  1.0000
  H   H24       1.0  0.23322  0.66274  0.79019  1.0000
  C   C1        1.0  0.8488699999999999  0.09593  0.83723  1.0000
  C   C2        1.0  0.9787499999999999  0.12411  0.84789  1.0000
  C   C3        1.0  0.03405  0.13714  0.9184  1.0000
  C   C4        1.0  0.9601499999999995  0.12374  0.9798699999999999  1.0000
  C   C5        1.0  0.83044  0.0953  0.96909  1.0000
  C   C6        1.0  0.77496  0.08137999999999998  0.89823  1.0000
  C   C7        1.0  0.79457  0.08742  0.75967  1.0000
  C   C8        1.0  0.0283  0.1421  0.05334  1.0000
  C   C9        1.0  0.63209  0.01694  0.67874  1.0000
  C   C10       1.0  0.5841999999999998  0.94697  0.66282  1.0000
  C   C11       1.0  0.5182599999999999  0.93052  0.59446  1.0000
  C   C12       1.0  0.50193  0.98345  0.54067  1.0000
  C   C13       1.0  0.55169  0.0534  0.557  1.0000
  C   C14       1.0  0.6138799999999999  0.07019  0.62605  1.0000
  C   C15       1.0  0.47103999999999996  0.85449  0.58148  1.0000
  C   C16       1.0  0.54922  0.11285  0.50339  1.0000
  C   C17       1.0  0.9781299999999999  0.16025  0.18591  1.0000
  C   C18       1.0  0.10907999999999998  0.16824  0.21625  1.0000
  C   C19       1.0  0.13054  0.18478  0.29144  1.0000
  C   C20       1.0  0.02363  0.19486  0.33644  1.0000
  C   C21       1.0  0.8932999999999999  0.1872  0.30544  1.0000
  C   C22       1.0  0.8709499999999999  0.16895  0.23095  1.0000
  C   C23       1.0  0.26987  0.19171  0.32325  1.0000
  C   C24       1.0  0.7765099999999999  0.19923  0.34975  1.0000
  C   C25       1.0  0.16278999999999993  0.6095099999999998  0.16582  1.0000
  C   C26       1.0  0.03266  0.63596  0.15529  1.0000
  C   C27       1.0  0.9763199999999997  0.64494  0.08476999999999998  1.0000
  C   C28       1.0  0.04935999999999999  0.62965  0.02286  1.0000
  C   C29       1.0  0.17963999999999997  0.6035999999999998  0.03347  1.0000
  C   C30       1.0  0.23564  0.5932299999999999  0.10433  1.0000
  C   C31       1.0  0.21870999999999996  0.6030699999999999  0.24321999999999996  1.0000
  C   C32       1.0  0.97878  0.64284  0.9493799999999999  1.0000
  C   C33       1.0  0.36979999999999996  0.52782  0.32283  1.0000
  C   C34       1.0  0.41013  0.45609  0.33163  1.0000
  C   C35       1.0  0.4730099999999999  0.43462999999999996  0.39803  1.0000
  C   C36       1.0  0.49339  0.48396999999999996  0.45688999999999996  1.0000
  C   C37       1.0  0.45264999999999994  0.5556399999999998  0.44808  1.0000
  C   C38       1.0  0.39247  0.57808  0.38119  1.0000
  C   C39       1.0  0.5157  0.35851  0.40581  1.0000
  C   C40       1.0  0.47348  0.60736  0.51098  1.0000
  C   C41       1.0  0.024690000000000004  0.66138  0.81642  1.0000
  C   C42       1.0  0.89233  0.66915  0.78829  1.0000
  C   C43       1.0  0.8678  0.68438  0.71377  1.0000
  C   C44       1.0  0.9728399999999998  0.69278  0.6674999999999999  1.0000
  C   C45       1.0  0.10423999999999999  0.68495  0.6956  1.0000
  C   C46       1.0  0.13007  0.66878  0.7697  1.0000
  C   C47       1.0  0.7294799999999999  0.69161  0.6808899999999999  1.0000
  C   C48       1.0  0.21615  0.6947599999999998  0.64698  1.0000
  N   N1        1.0  0.6981199999999999  0.03353  0.74727  1.0000
  N   N2        1.0  0.94594  0.14318  0.11147  1.0000
  N   N3        1.0  0.30868  0.54725  0.25466  1.0000
  N   N4        1.0  0.05957999999999999  0.6463399999999999  0.8906200000000001  1.0000
  O   O1        1.0  0.8334199999999999  0.12663  0.71129  1.0000
  O   O2        1.0  0.14875  0.15592999999999999  0.05981999999999999  1.0000
  O   O3        1.0  0.50703  0.80822  0.62892  1.0000
  O   O4        1.0  0.3948199999999999  0.8402  0.52291  1.0000
  O   O5        1.0  0.50647  0.10542  0.43722  1.0000
  O   O6        1.0  0.5997699999999999  0.17413  0.52995  1.0000
  O   O7        1.0  0.3679699999999999  0.18528  0.28179  1.0000
  O   O8        1.0  0.29308000000000006  0.20352  0.39256  1.0000
  O   O9        1.0  0.7975799999999998  0.22885999999999998  0.41477  1.0000
  O   O10       1.0  0.6613099999999998  0.18157999999999994  0.32276  1.0000
  O   O11       1.0  0.18608999999999995  0.6444  0.29279  1.0000
  O   O12       1.0  0.8568799999999998  0.65091  0.9439200000000001  1.0000
  O   O13       1.0  0.4864199999999999  0.31234999999999996  0.35535  1.0000
  O   O14       1.0  0.5839599999999999  0.34308  0.4663399999999999  1.0000
  O   O15       1.0  0.51241  0.5884699999999998  0.57405  1.0000
  O   O16       1.0  0.45325999999999994  0.6770599999999999  0.49975  1.0000
  O   O17       1.0  0.6274299999999999  0.6908  0.71983  1.0000
  O   O18       1.0  0.7122999999999999  0.6980199999999998  0.61098  1.0000
  O   O19       1.0  0.18536999999999998  0.7197199999999999  0.58189  1.0000
  O   O20       1.0  0.33353999999999995  0.6798  0.6701299999999999  1.0000
