data_image0
_chemical_formula_structural       Ca4Cd4H32C64O32
_chemical_formula_sum              "Ca4 Cd4 H32 C64 O32"
_cell_length_a       7.04474
_cell_length_b       19.54638
_cell_length_c       19.493739999999995
_cell_angle_alpha    89.91086
_cell_angle_beta     90.00358
_cell_angle_gamma    89.97743

_space_group_name_H-M_alt    "P 1"
_space_group_IT_number       1

loop_
  _space_group_symop_operation_xyz
  'x, y, z'

loop_
  _atom_site_type_symbol
  _atom_site_label
  _atom_site_symmetry_multiplicity
  _atom_site_fract_x
  _atom_site_fract_y
  _atom_site_fract_z
  _atom_site_occupancy
  Ca  Ca1       1.0  0.12333000000000002  0.23468000000000003  0.3549  1.0000
  Ca  Ca2       1.0  0.6252900000000002  0.76471  0.64512  1.0000
  Ca  Ca3       1.0  0.12035000000000003  0.73514  0.14621  1.0000
  Ca  Ca4       1.0  0.62241  0.26453000000000004  0.8538699999999999  1.0000
  Cd  Cd1       1.0  0.6636  0.2465  0.3005  1.0000
  Cd  Cd2       1.0  0.16616  0.7538000000000001  0.69985  1.0000
  Cd  Cd3       1.0  0.66292  0.74642  0.19953  1.0000
  Cd  Cd4       1.0  0.16545000000000007  0.25365  0.80019  1.0000
  H   H1        1.0  0.22045  0.1119  0.23546  1.0000
  H   H2        1.0  0.3964200000000001  0.00821  0.1974  1.0000
  H   H3        1.0  0.22085000000000002  0.89997  0.17644  1.0000
  H   H4        1.0  0.69515  0.99908  0.22992  1.0000
  H   H5        1.0  0.00916  0.30005000000000004  0.2166  1.0000
  H   H6        1.0  0.77822  0.3241  0.12274  1.0000
  H   H7        1.0  0.8870000000000002  0.31845000000000007  0.00106  1.0000
  H   H8        1.0  0.4499000000000001  0.26576  0.06848  1.0000
  H   H9        1.0  0.7239300000000002  0.8884300000000002  0.76481  1.0000
  H   H10       1.0  0.8984100000000003  0.99246  0.80305  1.0000
  H   H11       1.0  0.7216000000000002  0.10043000000000002  0.82364  1.0000
  H   H12       1.0  0.19733000000000006  0.0005100000000000003  0.77  1.0000
  H   H13       1.0  0.5134  0.6999800000000003  0.78275  1.0000
  H   H14       1.0  0.27983000000000013  0.67596  0.87578  1.0000
  H   H15       1.0  0.38548000000000004  0.68171  0.9978499999999999  1.0000
  H   H16       1.0  0.9501  0.73438  0.93226  1.0000
  H   H17       1.0  0.22015000000000007  0.61147  0.26476  1.0000
  H   H18       1.0  0.39708  0.50775  0.30273  1.0000
  H   H19       1.0  0.22163000000000005  0.39925000000000005  0.32356  1.0000
  H   H20       1.0  0.6956800000000002  0.49806  0.26999  1.0000
  H   H21       1.0  0.009040000000000003  0.8002000000000002  0.28342  1.0000
  H   H22       1.0  0.77861  0.82414  0.37719  1.0000
  H   H23       1.0  0.88725  0.8183400000000002  0.49884  1.0000
  H   H24       1.0  0.45057  0.76624  0.43149999999999994  1.0000
  H   H25       1.0  0.7224000000000002  0.38881  0.73505  1.0000
  H   H26       1.0  0.8982300000000002  0.49265000000000003  0.69695  1.0000
  H   H27       1.0  0.7225700000000003  0.6010400000000001  0.67641  1.0000
  H   H28       1.0  0.19715000000000002  0.50176  0.73002  1.0000
  H   H29       1.0  0.51301  0.19984  0.71729  1.0000
  H   H30       1.0  0.27989  0.17589  0.62432  1.0000
  H   H31       1.0  0.3854200000000001  0.18179000000000006  0.50227  1.0000
  H   H32       1.0  0.9504100000000002  0.23388  0.5678  1.0000
  C   C1        1.0  0.84212  0.12286  0.26177  1.0000
  C   C2        1.0  0.8404700000000002  0.87825  0.18809  1.0000
  C   C3        1.0  0.9468600000000003  0.061810000000000004  0.23596  1.0000
  C   C4        1.0  0.14491000000000004  0.06429  0.22610000000000002  1.0000
  C   C5        1.0  0.24290000000000006  0.006380000000000001  0.20413  1.0000
  C   C6        1.0  0.14451  0.94588  0.19156  1.0000
  C   C7        1.0  0.9459300000000003  0.94331  0.19955  1.0000
  C   C8        1.0  0.8480900000000002  0.00134  0.22215  1.0000
  C   C9        1.0  0.3814700000000001  0.2674500000000001  0.20453  1.0000
  C   C10       1.0  0.23047000000000006  0.28445  0.95306  1.0000
  C   C11       1.0  0.24301000000000006  0.28171  0.14847  1.0000
  C   C12       1.0  0.05314  0.29779  0.1634  1.0000
  C   C13       1.0  0.92491  0.31179  0.11062  1.0000
  C   C14       1.0  0.9851600000000001  0.30796  0.04278  1.0000
  C   C15       1.0  0.17375000000000004  0.29097  0.026750000000000003  1.0000
  C   C16       1.0  0.3033100000000001  0.27876  0.07988  1.0000
  C   C17       1.0  0.3457900000000001  0.87716  0.73826  1.0000
  C   C18       1.0  0.34037  0.12166000000000002  0.81191  1.0000
  C   C19       1.0  0.4498900000000001  0.93824  0.76418  1.0000
  C   C20       1.0  0.64787  0.93597  0.77417  1.0000
  C   C21       1.0  0.74493  0.9940500000000001  0.79614  1.0000
  C   C22       1.0  0.64568  0.05446000000000001  0.8085  1.0000
  C   C23       1.0  0.44705  0.0568  0.8004  1.0000
  C   C24       1.0  0.35025  0.9985700000000001  0.77784  1.0000
  C   C25       1.0  0.8841200000000002  0.73247  0.79558  1.0000
  C   C26       1.0  0.72777  0.71522  0.04689  1.0000
  C   C27       1.0  0.74521  0.7183900000000002  0.85152  1.0000
  C   C28       1.0  0.55575  0.70229  0.83609  1.0000
  C   C29       1.0  0.4261000000000001  0.6883200000000002  0.88839  1.0000
  C   C30       1.0  0.4845500000000001  0.6922300000000001  0.95642  1.0000
  C   C31       1.0  0.6727000000000002  0.70921  0.97299  1.0000
  C   C32       1.0  0.8038100000000002  0.72142  0.9203099999999999  1.0000
  C   C33       1.0  0.8418100000000002  0.62245  0.2391  1.0000
  C   C34       1.0  0.84317  0.37729  0.31211  1.0000
  C   C35       1.0  0.9471000000000002  0.56124  0.26439  1.0000
  C   C36       1.0  0.14512000000000005  0.56374  0.27412  1.0000
  C   C37       1.0  0.24365  0.50583  0.2959  1.0000
  C   C38       1.0  0.14558  0.44525  0.30841  1.0000
  C   C39       1.0  0.9470700000000002  0.4426  0.30038  1.0000
  C   C40       1.0  0.8486  0.50056  0.27784  1.0000
  C   C41       1.0  0.3818000000000001  0.7674100000000001  0.29553  1.0000
  C   C42       1.0  0.23108  0.7851600000000002  0.54694  1.0000
  C   C43       1.0  0.24328000000000005  0.7816900000000002  0.3515  1.0000
  C   C44       1.0  0.05340000000000001  0.7977900000000001  0.33657  1.0000
  C   C45       1.0  0.92529  0.81184  0.38931  1.0000
  C   C46       1.0  0.98556  0.8080300000000002  0.45715000000000006  1.0000
  C   C47       1.0  0.17427  0.7912500000000001  0.47319  1.0000
  C   C48       1.0  0.30379000000000006  0.779  0.4201  1.0000
  C   C49       1.0  0.34477  0.37763  0.76095  1.0000
  C   C50       1.0  0.34138  0.62267  0.68803  1.0000
  C   C51       1.0  0.44914000000000004  0.43889000000000006  0.73547  1.0000
  C   C52       1.0  0.64708  0.43651000000000006  0.72566  1.0000
  C   C53       1.0  0.7448000000000002  0.49455  0.70387  1.0000
  C   C54       1.0  0.64614  0.55514  0.69154  1.0000
  C   C55       1.0  0.44751000000000013  0.55768  0.69968  1.0000
  C   C56       1.0  0.35005000000000003  0.49949  0.72214  1.0000
  C   C57       1.0  0.88417  0.23264000000000004  0.70439  1.0000
  C   C58       1.0  0.7281000000000002  0.21484  0.45319  1.0000
  C   C59       1.0  0.74512  0.21845  0.64856  1.0000
  C   C60       1.0  0.55568  0.2023  0.66399  1.0000
  C   C61       1.0  0.42617  0.18823  0.6117  1.0000
  C   C62       1.0  0.4846600000000001  0.19211  0.54368  1.0000
  C   C63       1.0  0.67292  0.20891  0.5271  1.0000
  C   C64       1.0  0.8039500000000002  0.22116  0.57977  1.0000
  O   O1        1.0  0.94379  0.17523  0.28147  1.0000
  O   O2        1.0  0.66417  0.12431  0.26395  1.0000
  O   O3        1.0  0.6643900000000003  0.87465  0.19811  1.0000
  O   O4        1.0  0.9388600000000002  0.8246  0.17037  1.0000
  O   O5        1.0  0.32308  0.2592400000000001  0.2673  1.0000
  O   O6        1.0  0.55603  0.26324000000000003  0.1902  1.0000
  O   O7        1.0  0.09388  0.27906  0.90946  1.0000
  O   O8        1.0  0.4063000000000001  0.28412  0.9376499999999999  1.0000
  O   O9        1.0  0.44804000000000005  0.8249500000000001  0.71849  1.0000
  O   O10       1.0  0.16779000000000005  0.8756100000000001  0.73608  1.0000
  O   O11       1.0  0.1642  0.12516000000000002  0.80182  1.0000
  O   O12       1.0  0.4383400000000001  0.17538  0.8297699999999999  1.0000
  O   O13       1.0  0.8264  0.7405000000000002  0.73269  1.0000
  O   O14       1.0  0.058560000000000015  0.73683  0.8101  1.0000
  O   O15       1.0  0.59045  0.7209700000000001  0.09025  1.0000
  O   O16       1.0  0.9033700000000002  0.7145200000000002  0.06261  1.0000
  O   O17       1.0  0.94275  0.67572  0.22077  1.0000
  O   O18       1.0  0.66407  0.62299  0.23603  1.0000
  O   O19       1.0  0.667  0.37307  0.30196  1.0000
  O   O20       1.0  0.94283  0.32407  0.33007  1.0000
  O   O21       1.0  0.32335  0.75799  0.23293  1.0000
  O   O22       1.0  0.5566700000000001  0.7643800000000001  0.3097  1.0000
  O   O23       1.0  0.09451000000000001  0.7777700000000001  0.59031  1.0000
  O   O24       1.0  0.40676  0.78719  0.56243  1.0000
  O   O25       1.0  0.44686  0.32479000000000013  0.77968  1.0000
  O   O26       1.0  0.16691000000000006  0.37678  0.76393  1.0000
  O   O27       1.0  0.16528  0.62643  0.69829  1.0000
  O   O28       1.0  0.4391200000000001  0.67638  0.66991  1.0000
  O   O29       1.0  0.82668  0.24197  0.76711  1.0000
  O   O30       1.0  0.05889000000000001  0.23567  0.69  1.0000
  O   O31       1.0  0.59081  0.22225000000000003  0.40999  1.0000
  O   O32       1.0  0.9035000000000002  0.21264000000000002  0.43744  1.0000
