data_image0
_chemical_formula_structural       Cu6H30C78O24
_chemical_formula_sum              "Cu6 H30 C78 O24"
_cell_length_a       18.96379
_cell_length_b       18.96654
_cell_length_c       21.17258
_cell_angle_alpha    63.39897
_cell_angle_beta     63.399519999999995
_cell_angle_gamma    59.91768

_symmetry_space_group_name_H-M    'P 1'
_symmetry_Int_Tables_number       1

loop_
  _symmetry_equiv_pos_as_xyz
  'x,y,z'

loop_
  _atom_site_type_symbol
  _atom_site_label
  _atom_site_symmetry_multiplicity
  _atom_site_fract_x
  _atom_site_fract_y
  _atom_site_fract_z
  _atom_site_occupancy
  Cu  Cu1       1.0  0.502  0.93979  0.05616  1.0000
  Cu  Cu2       1.0  0.50204  0.50204  0.05606  1.0000
  Cu  Cu3       1.0  0.9397900000000001  0.50201  0.056130000000000006  1.0000
  Cu  Cu4       1.0  0.49800000000000005  0.060209999999999986  0.94384  1.0000
  Cu  Cu5       1.0  0.06022000000000004  0.49798999999999993  0.94387  1.0000
  Cu  Cu6       1.0  0.49796  0.49795999999999996  0.94394  1.0000
  H   H1        1.0  0.46883000000000014  0.9768  0.8059900000000002  1.0000
  H   H2        1.0  0.49067000000000005  0.0846  0.56753  1.0000
  H   H3        1.0  0.74883  0.46876  0.80578  1.0000
  H   H4        1.0  0.85735  0.49069999999999997  0.56722  1.0000
  H   H5        1.0  0.9770199999999998  0.7487  0.8054500000000001  1.0000
  H   H6        1.0  0.08474000000000016  0.8571399999999999  0.56743  1.0000
  H   H7        1.0  0.25138  0.022929999999999996  0.19452  1.0000
  H   H8        1.0  0.14289999999999997  0.9151800000000001  0.4326100000000001  1.0000
  H   H9        1.0  0.023190000000000016  0.53116  0.1941  1.0000
  H   H10       1.0  0.9154299999999997  0.50934  0.4324300000000001  1.0000
  H   H11       1.0  0.53127  0.25116  0.19414  1.0000
  H   H12       1.0  0.5092900000000001  0.14261999999999994  0.4327700000000001  1.0000
  H   H13       1.0  0.53118  0.023199999999999985  0.19400000000000006  1.0000
  H   H14       1.0  0.5093300000000001  0.91539  0.43247  1.0000
  H   H15       1.0  0.25118  0.53124  0.19421  1.0000
  H   H16       1.0  0.14266  0.5093  0.4327800000000001  1.0000
  H   H17       1.0  0.02298000000000001  0.25128999999999996  0.19455  1.0000
  H   H18       1.0  0.9152599999999997  0.14286  0.43257  1.0000
  H   H19       1.0  0.7486200000000003  0.9770599999999999  0.8054800000000002  1.0000
  H   H20       1.0  0.8571000000000002  0.08481000000000001  0.56739  1.0000
  H   H21       1.0  0.9768100000000002  0.4688399999999999  0.80589  1.0000
  H   H22       1.0  0.08458000000000013  0.49065999999999993  0.56756  1.0000
  H   H23       1.0  0.4687399999999999  0.74884  0.80586  1.0000
  H   H24       1.0  0.49071000000000015  0.8573799999999997  0.56722  1.0000
  H   H25       1.0  0.47037000000000007  0.76416  0.0019400000000000003  1.0000
  H   H26       1.0  0.7641  0.4703599999999999  0.00187  1.0000
  H   H27       1.0  0.76394  0.76413  0.00148  1.0000
  H   H28       1.0  0.2360699999999998  0.23587000000000002  0.9985200000000001  1.0000
  H   H29       1.0  0.23590000000000008  0.5296399999999999  0.9981300000000001  1.0000
  H   H30       1.0  0.52964  0.23583999999999997  0.9980600000000001  1.0000
  C   C1        1.0  0.4737200000000001  0.92311  0.9450300000000001  1.0000
  C   C2        1.0  0.46810000000000024  0.87594  0.90786  1.0000
  C   C3        1.0  0.4678200000000001  0.9131599999999996  0.8340200000000002  1.0000
  C   C4        1.0  0.49472000000000005  0.0479  0.53778  1.0000
  C   C5        1.0  0.6584100000000002  0.4736  0.9450300000000001  1.0000
  C   C6        1.0  0.74838  0.468  0.9078500000000002  1.0000
  C   C7        1.0  0.78528  0.4677399999999999  0.8339900000000002  1.0000
  C   C8        1.0  0.9196999999999997  0.49475  0.5376200000000001  1.0000
  C   C9        1.0  0.9234299999999999  0.6583899999999999  0.9444200000000001  1.0000
  C   C10       1.0  0.8760600000000006  0.7484  0.90742  1.0000
  C   C11       1.0  0.9133200000000009  0.78528  0.83362  1.0000
  C   C12       1.0  0.0479899999999999  0.9195600000000002  0.5377  1.0000
  C   C13       1.0  0.34164000000000005  0.0765  0.0556  1.0000
  C   C14       1.0  0.25163  0.12387000000000001  0.09259000000000002  1.0000
  C   C15       1.0  0.21477000000000002  0.08663000000000001  0.16638  1.0000
  C   C16       1.0  0.08046000000000006  0.9519699999999999  0.46232  1.0000
  C   C17       1.0  0.07688000000000003  0.52625  0.055030000000000016  1.0000
  C   C18       1.0  0.12406000000000003  0.53188  0.0922  1.0000
  C   C19       1.0  0.08684  0.53217  0.16604  1.0000
  C   C20       1.0  0.9521000000000002  0.5052799999999997  0.46221  1.0000
  C   C21       1.0  0.52641  0.3415799999999999  0.05486000000000001  1.0000
  C   C22       1.0  0.53201  0.25161  0.09207000000000003  1.0000
  C   C23       1.0  0.53227  0.21471999999999997  0.16594000000000006  1.0000
  C   C24       1.0  0.5052499999999999  0.08027  0.46236  1.0000
  C   C25       1.0  0.52628  0.07688  0.05496  1.0000
  C   C26       1.0  0.5319000000000002  0.12406000000000002  0.09213000000000002  1.0000
  C   C27       1.0  0.5321800000000001  0.08683999999999999  0.16598000000000004  1.0000
  C   C28       1.0  0.5052800000000003  0.9521  0.4622200000000001  1.0000
  C   C29       1.0  0.34159000000000006  0.5264  0.05497  1.0000
  C   C30       1.0  0.25163  0.532  0.09215000000000001  1.0000
  C   C31       1.0  0.21473000000000003  0.53226  0.16601  1.0000
  C   C32       1.0  0.08030000000000012  0.5052399999999998  0.46237000000000006  1.0000
  C   C33       1.0  0.07658000000000005  0.3415999999999999  0.05557  1.0000
  C   C34       1.0  0.12394000000000001  0.25159  0.09257000000000001  1.0000
  C   C35       1.0  0.08668  0.21472000000000002  0.16637  1.0000
  C   C36       1.0  0.95201  0.08043  0.4623  1.0000
  C   C37       1.0  0.6583700000000001  0.9235  0.9444  1.0000
  C   C38       1.0  0.7483699999999998  0.8761300000000001  0.90741  1.0000
  C   C39       1.0  0.78523  0.91337  0.83362  1.0000
  C   C40       1.0  0.91954  0.04803000000000001  0.53768  1.0000
  C   C41       1.0  0.92312  0.47375  0.9449700000000001  1.0000
  C   C42       1.0  0.8759400000000002  0.46812  0.9078  1.0000
  C   C43       1.0  0.91316  0.46782999999999997  0.83396  1.0000
  C   C44       1.0  0.04789999999999997  0.4947199999999999  0.5377900000000001  1.0000
  C   C45       1.0  0.4735899999999999  0.65842  0.94514  1.0000
  C   C46       1.0  0.46799000000000024  0.7483799999999998  0.9079300000000002  1.0000
  C   C47       1.0  0.46773000000000015  0.78528  0.83406  1.0000
  C   C48       1.0  0.49474999999999997  0.9197299999999997  0.5376400000000002  1.0000
  C   C49       1.0  0.46834999999999993  0.7934200000000001  0.94511  1.0000
  C   C50       1.0  0.4683899999999999  0.8679900000000002  0.79584  1.0000
  C   C51       1.0  0.4729100000000001  0.9036399999999999  0.71991  1.0000
  C   C52       1.0  0.47979999999999995  0.9333  0.6538  1.0000
  C   C53       1.0  0.4895000000000002  0.9667700000000001  0.5770300000000002  1.0000
  C   C54       1.0  0.79341  0.46837  0.94504  1.0000
  C   C55       1.0  0.86799  0.46839  0.79579  1.0000
  C   C56       1.0  0.90364  0.4729  0.71987  1.0000
  C   C57       1.0  0.93328  0.4798  0.65377  1.0000
  C   C58       1.0  0.9667499999999999  0.48949999999999994  0.57701  1.0000
  C   C59       1.0  0.7934199999999999  0.7934899999999999  0.9446600000000003  1.0000
  C   C60       1.0  0.8680500000000002  0.86809  0.79552  1.0000
  C   C61       1.0  0.90372  0.90377  0.71969  1.0000
  C   C62       1.0  0.9332599999999999  0.93333  0.65363  1.0000
  C   C63       1.0  0.9667500000000009  0.9667999999999997  0.57693  1.0000
  C   C64       1.0  0.20658  0.2065  0.05533  1.0000
  C   C65       1.0  0.13195  0.13191  0.20447000000000004  1.0000
  C   C66       1.0  0.09627999999999995  0.09621999999999997  0.2803100000000001  1.0000
  C   C67       1.0  0.06674  0.06667000000000001  0.34637  1.0000
  C   C68       1.0  0.03324999999999999  0.03319999999999999  0.42306  1.0000
  C   C69       1.0  0.20659000000000005  0.53163  0.05496  1.0000
  C   C70       1.0  0.13201000000000015  0.53161  0.2042  1.0000
  C   C71       1.0  0.09635999999999996  0.5271  0.28013000000000005  1.0000
  C   C72       1.0  0.06672999999999994  0.5202  0.3462300000000001  1.0000
  C   C73       1.0  0.03325000000000002  0.5105  0.42299  1.0000
  C   C74       1.0  0.53165  0.20658  0.05488000000000001  1.0000
  C   C75       1.0  0.5316099999999999  0.13201  0.20415  1.0000
  C   C76       1.0  0.5271  0.09635  0.28009  1.0000
  C   C77       1.0  0.5202  0.06670000000000001  0.34619  1.0000
  C   C78       1.0  0.5105000000000001  0.03322999999999996  0.4229600000000001  1.0000
  O   O1        1.0  0.47492  0.99758  0.90685  1.0000
  O   O2        1.0  0.47888999999999987  0.88506  0.011160000000000003  1.0000
  O   O3        1.0  0.62088  0.47478  0.90687  1.0000
  O   O4        1.0  0.62513  0.4788599999999999  0.01114  1.0000
  O   O5        1.0  0.99807  0.6210399999999999  0.9062200000000001  1.0000
  O   O6        1.0  0.88531  0.62499  0.01041  1.0000
  O   O7        1.0  0.37898000000000004  0.0018799999999999889  0.09383000000000002  1.0000
  O   O8        1.0  0.3750300000000002  0.11460999999999999  0.98961  1.0000
  O   O9        1.0  0.0024099999999999426  0.52502  0.09322000000000003  1.0000
  O   O10       1.0  0.11492999999999988  0.5211  0.9889000000000001  1.0000
  O   O11       1.0  0.5252900000000004  0.37909999999999994  0.09298  1.0000
  O   O12       1.0  0.5211099999999999  0.37485999999999997  0.9887600000000002  1.0000
  O   O13       1.0  0.52508  0.0024099999999999946  0.09315  1.0000
  O   O14       1.0  0.52111  0.11493999999999988  0.9888300000000001  1.0000
  O   O15       1.0  0.37912  0.52522  0.09313  1.0000
  O   O16       1.0  0.37486999999999987  0.52114  0.9888600000000001  1.0000
  O   O17       1.0  0.0019299999999999602  0.3789600000000001  0.09378  1.0000
  O   O18       1.0  0.11469999999999987  0.37499999999999994  0.9895900000000002  1.0000
  O   O19       1.0  0.6210200000000001  0.9981199999999999  0.90617  1.0000
  O   O20       1.0  0.6249699999999999  0.88539  0.01038  1.0000
  O   O21       1.0  0.9975999999999998  0.47497999999999985  0.90677  1.0000
  O   O22       1.0  0.88507  0.4788999999999999  0.011100000000000004  1.0000
  O   O23       1.0  0.47471000000000013  0.6209  0.9070200000000002  1.0000
  O   O24       1.0  0.47888999999999987  0.62514  0.01124  1.0000
