data_image0
_chemical_formula_structural       Ag14H32C48N40
_chemical_formula_sum              "Ag14 H32 C48 N40"
_cell_length_a       10.57711
_cell_length_b       13.281309999999998
_cell_length_c       23.59804
_cell_angle_alpha    94.14838
_cell_angle_beta     102.50102000000001
_cell_angle_gamma    113.49826

_space_group_name_H-M_alt    "P 1"
_space_group_IT_number       1

loop_
  _space_group_symop_operation_xyz
  'x, y, z'

loop_
  _atom_site_type_symbol
  _atom_site_label
  _atom_site_symmetry_multiplicity
  _atom_site_fract_x
  _atom_site_fract_y
  _atom_site_fract_z
  _atom_site_occupancy
  Ag  Ag1       1.0  0.38426  0.94904  0.3464  1.0000
  Ag  Ag2       1.0  0.5333  0.386  0.1027  1.0000
  Ag  Ag3       1.0  0.73523  0.033889999999999997  0.84115  1.0000
  Ag  Ag4       1.0  0.8082  0.98232  0.38595  1.0000
  Ag  Ag5       1.0  0.060030000000000035  0.48296  0.8867100000000001  1.0000
  Ag  Ag6       1.0  0.6504799999999998  0.7188  0.81574  1.0000
  Ag  Ag7       1.0  0.38465  0.21849  0.31367  1.0000
  Ag  Ag8       1.0  0.63924  0.53392  0.33977  1.0000
  Ag  Ag9       1.0  0.03710999999999996  0.72784  0.8144799999999999  1.0000
  Ag  Ag10      1.0  0.006619999999999986  0.22774  0.31404  1.0000
  Ag  Ag11      1.0  0.4105  0.44763  0.84596  1.0000
  Ag  Ag12      1.0  0.19943000000000002  0.82866  0.53157  1.0000
  Ag  Ag13      1.0  0.66547  0.34017  0.02853  1.0000
  Ag  Ag14      1.0  0.45115  0.8762  0.60294  1.0000
  H   H1        1.0  0.14148000000000008  0.43288  0.7466900000000001  1.0000
  H   H2        1.0  0.3830599999999999  0.10385000000000001  0.7666099999999999  1.0000
  H   H3        1.0  0.8881599999999998  0.87467  0.47378  1.0000
  H   H4        1.0  0.7962299999999999  0.10969  0.73425  1.0000
  H   H5        1.0  0.96494  0.43635  0.31225  1.0000
  H   H6        1.0  0.96245  0.38258000000000003  0.97494  1.0000
  H   H7        1.0  0.8129899999999999  0.77304  0.35221  1.0000
  H   H8        1.0  0.8800499999999999  0.30833  0.71658  1.0000
  H   H9        1.0  0.64704  0.80926  0.21550000000000002  1.0000
  H   H10       1.0  0.9142499999999998  0.52182  0.41467  1.0000
  H   H11       1.0  0.51303  0.29385  0.22149999999999997  1.0000
  H   H12       1.0  0.54136  0.11029999999999997  0.70093  1.0000
  H   H13       1.0  0.7744499999999999  0.61193  0.20185  1.0000
  H   H14       1.0  0.54157  0.93421  0.24718  1.0000
  H   H15       1.0  0.2675  0.6879400000000001  0.3182  1.0000
  H   H16       1.0  0.18864  0.9557100000000001  0.63439  1.0000
  H   H17       1.0  0.28221  0.93448  0.8113400000000001  1.0000
  H   H18       1.0  0.8123299999999998  0.27307999999999993  0.8541899999999999  1.0000
  H   H19       1.0  0.82631  0.03553999999999998  0.62437  1.0000
  H   H20       1.0  0.51487  0.019700000000000023  0.9137200000000001  1.0000
  H   H21       1.0  0.23885  0.18643000000000004  0.81694  1.0000
  H   H22       1.0  0.98934  0.60668  0.26833  1.0000
  H   H23       1.0  0.17749  0.6475  0.44209  1.0000
  H   H24       1.0  0.5494199999999999  0.6104499999999999  0.23283999999999996  1.0000
  H   H25       1.0  0.16165  0.53022  0.18713  1.0000
  H   H26       1.0  0.4073900000000001  0.1456  0.94295  1.0000
  H   H27       1.0  0.3306  0.53084  0.12611  1.0000
  H   H28       1.0  0.05285000000000003  0.03360000000000001  0.68485  1.0000
  H   H29       1.0  0.9005499999999997  0.46021  0.13651  1.0000
  H   H30       1.0  0.26037000000000005  0.84462  0.42619  1.0000
  H   H31       1.0  0.50617  0.34351  0.92756  1.0000
  H   H32       1.0  0.51015  0.79492  0.7227299999999999  1.0000
  C   C1        1.0  0.97766  0.46136  0.11211999999999998  1.0000
  C   C2        1.0  0.5548700000000001  0.10567000000000001  0.90707  1.0000
  C   C3        1.0  0.4838899999999997  0.8636499999999999  0.7349299999999999  1.0000
  C   C4        1.0  0.3987899999999999  0.63405  0.27655  1.0000
  C   C5        1.0  0.72211  0.43271999999999994  0.8700599999999998  1.0000
  C   C6        1.0  0.8854399999999999  0.53565  0.25922  1.0000
  C   C7        1.0  0.14657000000000006  0.78898  0.41387  1.0000
  C   C8        1.0  0.72511  0.24919  0.8753  1.0000
  C   C9        1.0  0.39974000000000015  0.8542700000000001  0.77477  1.0000
  C   C10       1.0  0.013219999999999933  0.13332999999999998  0.7768399999999999  1.0000
  C   C11       1.0  0.49711999999999995  0.17668  0.92348  1.0000
  C   C12       1.0  0.09969000000000001  0.67778  0.422  1.0000
  C   C13       1.0  0.9722400000000001  0.020770000000000045  0.7889000000000002  1.0000
  C   C14       1.0  0.011590000000000007  0.41921  0.02155  1.0000
  C   C15       1.0  0.3392699999999999  0.52124  0.28835  1.0000
  C   C16       1.0  0.04106000000000021  0.82514  0.38586000000000004  1.0000
  C   C17       1.0  0.56269  0.77863  0.23783  1.0000
  C   C18       1.0  0.95416  0.60681  0.40652  1.0000
  C   C19       1.0  0.4996399999999999  0.03877999999999996  0.7223999999999999  1.0000
  C   C20       1.0  0.7657899999999999  0.53977  0.22263  1.0000
  C   C21       1.0  0.35505  0.9401800000000001  0.78429  1.0000
  C   C22       1.0  0.61928  0.36331  0.23395  1.0000
  C   C23       1.0  0.95574  0.27775  0.73854  1.0000
  C   C24       1.0  0.6703999999999998  0.32546  0.8886099999999999  1.0000
  C   C25       1.0  0.55662  0.28964  0.91758  1.0000
  C   C26       1.0  0.15719000000000005  0.21029000000000003  0.79356  1.0000
  C   C27       1.0  0.73204  0.35511  0.27462  1.0000
  C   C28       1.0  0.35496999999999995  0.75453  0.80118  1.0000
  C   C29       1.0  0.21621000000000015  0.5007200000000003  0.10607000000000001  1.0000
  C   C30       1.0  0.51066  0.66922  0.24817  1.0000
  C   C31       1.0  0.92315  0.91353  0.52014  1.0000
  C   C32       1.0  0.07890999999999992  0.9328999999999998  0.3680899999999999  1.0000
  C   C33       1.0  0.4093099999999999  0.03375999999999996  0.7582799999999998  1.0000
  C   C34       1.0  0.70255  0.25525  0.30084  1.0000
  C   C35       1.0  0.10151999999999996  0.34801999999999994  0.7552399999999999  1.0000
  C   C36       1.0  0.16022  0.46053  0.04505  1.0000
  C   C37       1.0  0.89683  0.7492500000000001  0.37325  1.0000
  C   C38       1.0  0.8718  0.44195000000000007  0.28506  1.0000
  C   C39       1.0  0.90866  0.16845999999999997  0.74906  1.0000
  C   C40       1.0  0.50445  0.8490800000000001  0.25534  1.0000
  C   C41       1.0  0.12316999999999993  0.50055  0.13981  1.0000
  C   C42       1.0  0.84211  0.95906  0.54357  1.0000
  C   C43       1.0  0.88853  0.002299999999999989  0.60434  1.0000
  C   C44       1.0  0.013670000000000022  0.001329999999999985  0.63776  1.0000
  C   C45       1.0  0.08945999999999998  0.95767  0.61018  1.0000
  C   C46       1.0  0.34914999999999996  0.7113000000000002  0.29413  1.0000
  C   C47       1.0  0.7111399999999999  0.95801  0.50698  1.0000
  C   C48       1.0  0.25236  0.45778  0.00767  1.0000
  N   N1        1.0  0.6420799999999999  0.49057000000000006  0.85632  1.0000
  N   N2        1.0  0.52997  0.95101  0.7070700000000001  1.0000
  N   N3        1.0  0.8528699999999999  0.64442  0.38417  1.0000
  N   N4        1.0  0.9960099999999998  0.99013  0.35874999999999996  1.0000
  N   N5        1.0  0.22195999999999996  0.45419  0.94852  1.0000
  N   N6        1.0  0.19554  0.08298  0.33672  1.0000
  N   N7        1.0  0.71591  0.11194  0.33621  1.0000
  N   N8        1.0  0.43124  0.6933  0.8121  1.0000
  N   N9        1.0  0.20345999999999997  0.99093  0.35436  1.0000
  N   N10       1.0  0.6780799999999999  0.95376  0.4477999999999999  1.0000
  N   N11       1.0  0.50244  0.95636  0.48158  1.0000
  N   N12       1.0  0.8530599999999999  0.49021000000000003  0.86048  1.0000
  N   N13       1.0  0.2330599999999998  0.6112  0.83679  1.0000
  N   N14       1.0  0.9224599999999998  0.4204899999999999  0.05391  1.0000
  N   N15       1.0  0.0719  0.08296  0.33909  1.0000
  N   N16       1.0  0.5461  0.95298  0.43355  1.0000
  N   N17       1.0  0.20234  0.3155899999999999  0.7833999999999999  1.0000
  N   N18       1.0  0.84532  0.8601600000000001  0.80765  1.0000
  N   N19       1.0  0.7249  0.58277  0.83862  1.0000
  N   N20       1.0  0.60357  0.95976  0.52842  1.0000
  N   N21       1.0  0.04424000000000003  0.9133499999999999  0.5523  1.0000
  N   N22       1.0  0.84642  0.96018  0.80094  1.0000
  N   N23       1.0  0.33685  0.451  0.93305  1.0000
  N   N24       1.0  0.4308299999999999  0.45237  0.98029  1.0000
  N   N25       1.0  0.32378000000000007  0.35985000000000006  0.30562  1.0000
  N   N26       1.0  0.63347  0.45047000000000004  0.20590999999999998  1.0000
  N   N27       1.0  0.8508499999999999  0.58297  0.84086  1.0000
  N   N28       1.0  0.04817999999999996  0.96008  0.78811  1.0000
  N   N29       1.0  0.19626  0.36129000000000006  0.29915  1.0000
  N   N30       1.0  0.20252  0.46065  0.28859  1.0000
  N   N31       1.0  0.7917299999999999  0.20561  0.31672  1.0000
  N   N32       1.0  0.6734299999999999  0.14351000000000003  0.8851400000000001  1.0000
  N   N33       1.0  0.35232999999999987  0.60511  0.83372  1.0000
  N   N34       1.0  0.57516  0.19313  0.3112  1.0000
  N   N35       1.0  0.96664  0.86115  0.79962  1.0000
  N   N36       1.0  0.23121  0.70428  0.81685  1.0000
  N   N37       1.0  0.58704  0.10497  0.33269  1.0000
  N   N38       1.0  0.38117  0.45669  0.027850000000000003  1.0000
  N   N39       1.0  0.41585999999999995  0.46005999999999997  0.2988  1.0000
  N   N40       1.0  0.39955999999999997  0.81668  0.2841  1.0000
