data_image0
_chemical_formula_structural       Cu4H48C44N4O16
_chemical_formula_sum              "Cu4 H48 C44 N4 O16"
_cell_length_a       9.17562
_cell_length_b       12.600950000000001
_cell_length_c       12.601090000000001
_cell_angle_alpha    66.41338
_cell_angle_beta     77.94993999999998
_cell_angle_gamma    77.94981

_symmetry_space_group_name_H-M    'P 1'
_symmetry_Int_Tables_number       1

loop_
  _symmetry_equiv_pos_as_xyz
  'x,y,z'

loop_
  _atom_site_type_symbol
  _atom_site_label
  _atom_site_symmetry_multiplicity
  _atom_site_fract_x
  _atom_site_fract_y
  _atom_site_fract_z
  _atom_site_occupancy
  Cu  Cu1       1.0  0.31485  0.22683  0.17489  1.0000
  Cu  Cu2       1.0  0.17049999999999996  0.23979000000000003  0.36976  1.0000
  Cu  Cu3       1.0  0.68514  0.82511  0.77317  1.0000
  Cu  Cu4       1.0  0.8294999999999997  0.6302400000000001  0.76021  1.0000
  H   H1        1.0  0.54868  0.049109999999999994  0.09779000000000002  1.0000
  H   H2        1.0  0.74489  0.043630000000000106  0.9309599999999999  1.0000
  H   H3        1.0  0.5983699999999998  0.4142599999999999  0.75804  1.0000
  H   H4        1.0  0.40450999999999987  0.40019  0.92985  1.0000
  H   H5        1.0  0.06921000000000001  0.05737000000000001  0.60876  1.0000
  H   H6        1.0  0.8746200000000001  0.04200999999999997  0.7794000000000001  1.0000
  H   H7        1.0  0.7644099999999999  0.42034  0.62769  1.0000
  H   H8        1.0  0.9565199999999999  0.41535999999999995  0.45935  1.0000
  H   H9        1.0  0.5111199999999998  0.46620000000000006  0.3339  1.0000
  H   H10       1.0  0.7059899999999998  0.39165000000000005  0.13866  1.0000
  H   H11       1.0  0.7396399999999996  0.50071  0.18193  1.0000
  H   H12       1.0  0.48040999999999995  0.61287  0.12761  1.0000
  H   H13       1.0  0.46487  0.50272  0.07728  1.0000
  H   H14       1.0  0.6261499999999998  0.27544  0.4695  1.0000
  H   H15       1.0  0.73838  0.2449  0.34886  1.0000
  H   H16       1.0  0.7686199999999997  0.36154000000000003  0.38089  1.0000
  H   H17       1.0  0.8202600000000001  0.14884  0.20159  1.0000
  H   H18       1.0  0.74711  0.96601  0.35404  1.0000
  H   H19       1.0  0.7902499999999999  0.060340000000000026  0.41179999999999994  1.0000
  H   H20       1.0  0.04304000000000004  0.9464  0.44147  1.0000
  H   H21       1.0  0.00286000000000003  0.84299  0.39293  1.0000
  H   H22       1.0  0.86848  0.965  0.15825  1.0000
  H   H23       1.0  0.9972899999999999  0.06372  0.06937  1.0000
  H   H24       1.0  0.055519999999999986  0.9390900000000001  0.18993  1.0000
  H   H25       1.0  0.45132  0.9022099999999997  0.9508900000000001  1.0000
  H   H26       1.0  0.2551199999999999  0.06904000000000002  0.95637  1.0000
  H   H27       1.0  0.40163000000000004  0.24196  0.58574  1.0000
  H   H28       1.0  0.5954899999999999  0.07015000000000002  0.59981  1.0000
  H   H29       1.0  0.9307899999999999  0.39124  0.94263  1.0000
  H   H30       1.0  0.12538000000000002  0.22059000000000006  0.95798  1.0000
  H   H31       1.0  0.23558000000000007  0.37231  0.57966  1.0000
  H   H32       1.0  0.043479999999999935  0.54065  0.58464  1.0000
  H   H33       1.0  0.48887  0.6661  0.5338  1.0000
  H   H34       1.0  0.294  0.86134  0.60835  1.0000
  H   H35       1.0  0.2603599999999999  0.81807  0.49929000000000007  1.0000
  H   H36       1.0  0.5195800000000002  0.87239  0.38713  1.0000
  H   H37       1.0  0.5351199999999998  0.9227199999999999  0.49728  1.0000
  H   H38       1.0  0.37383999999999984  0.53049  0.7245600000000001  1.0000
  H   H39       1.0  0.26160999999999984  0.65114  0.7551  1.0000
  H   H40       1.0  0.23136999999999988  0.61911  0.63846  1.0000
  H   H41       1.0  0.17973  0.79841  0.85116  1.0000
  H   H42       1.0  0.25287999999999994  0.6459600000000001  0.034  1.0000
  H   H43       1.0  0.20974999999999983  0.5882  0.93966  1.0000
  H   H44       1.0  0.9569599999999999  0.55853  0.053599999999999995  1.0000
  H   H45       1.0  0.9971300000000001  0.6070799999999998  0.15701  1.0000
  H   H46       1.0  0.13151  0.84176  0.03501  1.0000
  H   H47       1.0  0.002700000000000052  0.93063  0.93628  1.0000
  H   H48       1.0  0.94447  0.81007  0.06091  1.0000
  C   C1        1.0  0.56263  0.12716  0.0192  1.0000
  C   C2        1.0  0.6729999999999999  0.12557999999999991  0.9253699999999999  1.0000
  C   C3        1.0  0.6883800000000001  0.22863000000000006  0.8258  1.0000
  C   C4        1.0  0.5907299999999998  0.32972999999999997  0.8290600000000001  1.0000
  C   C5        1.0  0.48243  0.32343000000000005  0.92583  1.0000
  C   C6        1.0  0.9985699999999998  0.13538999999999998  0.6169  1.0000
  C   C7        1.0  0.89026  0.12846000000000002  0.7139199999999999  1.0000
  C   C8        1.0  0.80224  0.23118999999999998  0.72268  1.0000
  C   C9        1.0  0.8267  0.3365600000000001  0.62839  1.0000
  C   C10       1.0  0.9359399999999999  0.33523  0.53394  1.0000
  C   C11       1.0  0.44801  0.33313  0.29719  1.0000
  C   C12       1.0  0.5688399999999998  0.39948  0.29801  1.0000
  C   C13       1.0  0.65079  0.45858  0.17465  1.0000
  C   C14       1.0  0.54488  0.54868  0.09078  1.0000
  C   C15       1.0  0.62673  0.6144199999999997  0.97164  1.0000
  C   C16       1.0  0.68109  0.3149700000000001  0.37955999999999995  1.0000
  C   C17       1.0  0.035459999999999985  0.13761  0.24375000000000002  1.0000
  C   C18       1.0  0.9095  0.07720000000000002  0.23924999999999996  1.0000
  C   C19       1.0  0.83955  0.0036799999999999797  0.36268000000000006  1.0000
  C   C20       1.0  0.95159  0.90636  0.43422  1.0000
  C   C21       1.0  0.88196  0.84021  0.55811  1.0000
  C   C22       1.0  0.96088  0.007330000000000002  0.15947  1.0000
  C   C23       1.0  0.4373599999999999  0.9808  0.8728400000000001  1.0000
  C   C24       1.0  0.3270100000000001  0.07462000000000006  0.87442  1.0000
  C   C25       1.0  0.31161999999999995  0.1742  0.77137  1.0000
  C   C26       1.0  0.4092699999999999  0.17093000000000003  0.67027  1.0000
  C   C27       1.0  0.5175699999999998  0.07416000000000003  0.67657  1.0000
  C   C28       1.0  0.0014299999999999424  0.3830900000000001  0.86461  1.0000
  C   C29       1.0  0.10974000000000003  0.28608  0.87154  1.0000
  C   C30       1.0  0.19776  0.27732  0.76881  1.0000
  C   C31       1.0  0.1733  0.37161  0.66344  1.0000
  C   C32       1.0  0.06404999999999997  0.46606  0.66477  1.0000
  C   C33       1.0  0.5519799999999998  0.7028100000000002  0.66687  1.0000
  C   C34       1.0  0.4311499999999999  0.7019900000000002  0.60052  1.0000
  C   C35       1.0  0.34921  0.8253499999999998  0.54142  1.0000
  C   C36       1.0  0.45510999999999996  0.9092200000000001  0.45132  1.0000
  C   C37       1.0  0.37326  0.028349999999999983  0.38558  1.0000
  C   C38       1.0  0.31890999999999997  0.6204400000000002  0.68503  1.0000
  C   C39       1.0  0.9645299999999999  0.75625  0.86238  1.0000
  C   C40       1.0  0.09049999999999997  0.76075  0.9228  1.0000
  C   C41       1.0  0.16045000000000004  0.6373199999999998  0.99632  1.0000
  C   C42       1.0  0.04840000000000003  0.56578  0.09365  1.0000
  C   C43       1.0  0.11803000000000002  0.44189  0.15979  1.0000
  C   C44       1.0  0.03912000000000003  0.8405299999999999  0.99266  1.0000
  N   N1        1.0  0.46649999999999997  0.22373  0.01971  1.0000
  N   N2        1.0  0.022760000000000002  0.23712  0.52779  1.0000
  N   N3        1.0  0.53349  0.98029  0.77627  1.0000
  N   N4        1.0  0.97724  0.47220999999999996  0.76287  1.0000
  O   O1        1.0  0.47161  0.29051  0.21806999999999999  1.0000
  O   O2        1.0  0.33368  0.32389000000000007  0.37664999999999993  1.0000
  O   O3        1.0  0.6063399999999997  0.7261  0.93627  1.0000
  O   O4        1.0  0.70974  0.55372  0.91547  1.0000
  O   O5        1.0  0.13903  0.16349  0.15614  1.0000
  O   O6        1.0  0.02693000000000001  0.15810999999999997  0.33601  1.0000
  O   O7        1.0  0.78472  0.89952  0.6091  1.0000
  O   O8        1.0  0.92638  0.73051  0.60257  1.0000
  O   O9        1.0  0.5283799999999998  0.7819299999999999  0.7094900000000001  1.0000
  O   O10       1.0  0.66632  0.62335  0.67611  1.0000
  O   O11       1.0  0.39364999999999983  0.06373000000000001  0.2739  1.0000
  O   O12       1.0  0.29026  0.08453  0.44628000000000007  1.0000
  O   O13       1.0  0.8609699999999998  0.84386  0.83651  1.0000
  O   O14       1.0  0.9730699999999998  0.6639900000000001  0.84189  1.0000
  O   O15       1.0  0.21528  0.3909  0.10048  1.0000
  O   O16       1.0  0.07362000000000003  0.39743  0.26949  1.0000
