data_image0
_chemical_formula_structural       Cu4H24C24N32O16
_chemical_formula_sum              "Cu4 H24 C24 N32 O16"
_cell_length_a       4.31346
_cell_length_b       17.33602
_cell_length_c       17.34427
_cell_angle_alpha    88.98231
_cell_angle_beta     82.57375
_cell_angle_gamma    82.44103999999999

_space_group_name_H-M_alt    "P 1"
_space_group_IT_number       1

loop_
  _space_group_symop_operation_xyz
  'x, y, z'

loop_
  _atom_site_type_symbol
  _atom_site_label
  _atom_site_symmetry_multiplicity
  _atom_site_fract_x
  _atom_site_fract_y
  _atom_site_fract_z
  _atom_site_occupancy
  Cu  Cu1       1.0  0.5000000000000001  0.50001  0.5  1.0000
  Cu  Cu2       1.0  0.50001  0.0  0.0  1.0000
  Cu  Cu3       1.0  0.50001  0.5  0.0  1.0000
  Cu  Cu4       1.0  0.99997  1.0000000000000016e-05  0.49999  1.0000
  H   H1        1.0  0.95593  0.60572  0.27303999999999995  1.0000
  H   H2        1.0  0.16866999999999993  0.51374  0.29267  1.0000
  H   H3        1.0  0.44664  0.57719  0.1716  1.0000
  H   H4        1.0  0.84079  0.89477  0.22568  1.0000
  H   H5        1.0  0.9743800000000001  0.9868099999999999  0.20522  1.0000
  H   H6        1.0  0.1960799999999999  0.9246100000000003  0.32845  1.0000
  H   H7        1.0  0.07037999999999998  0.2727  0.89456  1.0000
  H   H8        1.0  0.18650999999999993  0.2921900000000001  0.98655  1.0000
  H   H9        1.0  0.5311700000000001  0.17223  0.92243  1.0000
  H   H10       1.0  0.23309000000000002  0.22479  0.60532  1.0000
  H   H11       1.0  0.46374  0.20490000000000005  0.51333  1.0000
  H   H12       1.0  0.61936  0.32859  0.57573  1.0000
  H   H13       1.0  0.04405999999999998  0.39429  0.72697  1.0000
  H   H14       1.0  0.83133  0.4862600000000001  0.7073299999999998  1.0000
  H   H15       1.0  0.5533699999999999  0.42282  0.82839  1.0000
  H   H16       1.0  0.15919  0.10523  0.77432  1.0000
  H   H17       1.0  0.025620000000000153  0.0132  0.7947799999999998  1.0000
  H   H18       1.0  0.8039300000000001  0.0754  0.67155  1.0000
  H   H19       1.0  0.9296200000000001  0.72731  0.10544  1.0000
  H   H20       1.0  0.81349  0.70781  0.01345  1.0000
  H   H21       1.0  0.4688300000000001  0.82777  0.07757  1.0000
  H   H22       1.0  0.7668899999999997  0.7752200000000002  0.39468  1.0000
  H   H23       1.0  0.5362400000000002  0.7951100000000001  0.48666999999999994  1.0000
  H   H24       1.0  0.3806200000000001  0.67142  0.42426999999999987  1.0000
  C   C1        1.0  0.6909600000000001  0.52585  0.34367  1.0000
  C   C2        1.0  0.9333399999999998  0.5433800000000002  0.2777399999999999  1.0000
  C   C3        1.0  0.6492399999999999  0.5337600000000002  0.15947999999999998  1.0000
  C   C4        1.0  0.5605499999999999  0.97425  0.15577  1.0000
  C   C5        1.0  0.7554899999999999  0.95702  0.22105  1.0000
  C   C6        1.0  0.3439499999999999  0.96724  0.34034  1.0000
  C   C7        1.0  0.7219199999999999  0.34394000000000013  0.97414  1.0000
  C   C8        1.0  0.98223  0.2776000000000001  0.95685  1.0000
  C   C9        1.0  0.6860800000000004  0.15979000000000004  0.96631  1.0000
  C   C10       1.0  0.03639000000000002  0.15574  0.52528  1.0000
  C   C11       1.0  0.21333999999999995  0.22066000000000002  0.54307  1.0000
  C   C12       1.0  0.8125400000000004  0.34046  0.5332999999999998  1.0000
  C   C13       1.0  0.3090400000000001  0.47416  0.6563199999999998  1.0000
  C   C14       1.0  0.06666000000000001  0.4566200000000001  0.72225  1.0000
  C   C15       1.0  0.3507600000000001  0.46625  0.84052  1.0000
  C   C16       1.0  0.43946000000000024  0.02576  0.84423  1.0000
  C   C17       1.0  0.24450000000000002  0.04299  0.77895  1.0000
  C   C18       1.0  0.65604  0.03277  0.65966  1.0000
  C   C19       1.0  0.27808  0.65607  0.02586  1.0000
  C   C20       1.0  0.017769999999999956  0.7224000000000002  0.04315  1.0000
  C   C21       1.0  0.31392999999999993  0.84021  0.03369  1.0000
  C   C22       1.0  0.9635999999999999  0.84427  0.47470999999999997  1.0000
  C   C23       1.0  0.78664  0.77936  0.4569199999999999  1.0000
  C   C24       1.0  0.18743999999999986  0.6595600000000003  0.46668999999999994  1.0000
  N   N1        1.0  0.8791100000000003  0.51398  0.20357  1.0000
  N   N2        1.0  0.09123  0.45605  0.16696  1.0000
  N   N3        1.0  0.9889000000000001  0.4435  0.10087  1.0000
  N   N4        1.0  0.71739  0.49053  0.09507  1.0000
  N   N5        1.0  0.59782  0.98661  0.29558999999999996  1.0000
  N   N6        1.0  0.7174800000000001  0.04329000000000001  0.33231  1.0000
  N   N7        1.0  0.5381500000000001  0.05548  0.39916999999999997  1.0000
  N   N8        1.0  0.3067  0.00948  0.40527  1.0000
  N   N9        1.0  0.8950599999999999  0.20360000000000006  0.98639  1.0000
  N   N10       1.0  0.043300000000000005  0.16694  0.04488  1.0000
  N   N11       1.0  0.92583  0.10114  0.05751  1.0000
  N   N12       1.0  0.70565  0.09548  0.00992  1.0000
  N   N13       1.0  0.0869600000000001  0.29556  0.5139699999999999  1.0000
  N   N14       1.0  0.26714999999999994  0.33248000000000005  0.45778  1.0000
  N   N15       1.0  0.10120000000000003  0.39965  0.44578  1.0000
  N   N16       1.0  0.8207200000000001  0.40569  0.49141  1.0000
  N   N17       1.0  0.12088999999999991  0.48602000000000006  0.79643  1.0000
  N   N18       1.0  0.9087800000000003  0.54395  0.8330399999999998  1.0000
  N   N19       1.0  0.011099999999999964  0.5565100000000001  0.89913  1.0000
  N   N20       1.0  0.28261000000000003  0.50948  0.9049299999999998  1.0000
  N   N21       1.0  0.40218000000000004  0.0134  0.70441  1.0000
  N   N22       1.0  0.2825  0.9567300000000001  0.66768  1.0000
  N   N23       1.0  0.46181999999999995  0.9445400000000002  0.60082  1.0000
  N   N24       1.0  0.6932700000000004  0.99054  0.59473  1.0000
  N   N25       1.0  0.10494999999999986  0.7964000000000002  0.0136  1.0000
  N   N26       1.0  0.95671  0.8330600000000001  0.9551199999999999  1.0000
  N   N27       1.0  0.07418000000000011  0.89886  0.94248  1.0000
  N   N28       1.0  0.29436000000000007  0.9045200000000002  0.99008  1.0000
  N   N29       1.0  0.9130199999999999  0.70445  0.48602999999999996  1.0000
  N   N30       1.0  0.7328400000000003  0.66754  0.54222  1.0000
  N   N31       1.0  0.8987899999999999  0.6003700000000001  0.55422  1.0000
  N   N32       1.0  0.17926999999999993  0.5943200000000002  0.50859  1.0000
  O   O1        1.0  0.72893  0.55402  0.4099499999999999  1.0000
  O   O2        1.0  0.48987999999999987  0.48373000000000005  0.33168  1.0000
  O   O3        1.0  0.69542  0.94589  0.0894  1.0000
  O   O4        1.0  0.30238  0.01652  0.16799  1.0000
  O   O5        1.0  0.7905299999999998  0.4101900000000001  0.94613  1.0000
  O   O6        1.0  0.47557000000000005  0.33203  0.015929999999999993  1.0000
  O   O7        1.0  0.13945000000000005  0.08928  0.55404  1.0000
  O   O8        1.0  0.82506  0.16823  0.48229000000000005  1.0000
  O   O9        1.0  0.2710599999999998  0.4459900000000001  0.59005  1.0000
  O   O10       1.0  0.5101200000000001  0.5162800000000002  0.66833  1.0000
  O   O11       1.0  0.30459  0.054120000000000015  0.9106  1.0000
  O   O12       1.0  0.6976199999999999  0.98348  0.832  1.0000
  O   O13       1.0  0.20946999999999993  0.58981  0.05387  1.0000
  O   O14       1.0  0.52443  0.66797  0.98408  1.0000
  O   O15       1.0  0.86053  0.91073  0.44596  1.0000
  O   O16       1.0  0.17494  0.83178  0.5177  1.0000
