data_image0
_chemical_formula_structural       Ag2H60C72N8O8
_chemical_formula_sum              "Ag2 H60 C72 N8 O8"
_cell_length_a       13.0269
_cell_length_b       13.5385
_cell_length_c       15.93463
_cell_angle_alpha    111.54447000000002
_cell_angle_beta     110.36039
_cell_angle_gamma    98.2013

_space_group_name_H-M_alt    "P 1"
_space_group_IT_number       1

loop_
  _space_group_symop_operation_xyz
  'x, y, z'

loop_
  _atom_site_type_symbol
  _atom_site_label
  _atom_site_symmetry_multiplicity
  _atom_site_fract_x
  _atom_site_fract_y
  _atom_site_fract_z
  _atom_site_occupancy
  Ag  Ag1       1.0  0.7202400000000002  0.47070000000000006  0.94119  1.0000
  Ag  Ag2       1.0  0.27976  0.52931  0.05881  1.0000
  H   H1        1.0  0.9352300000000002  0.47967  0.11848  1.0000
  H   H2        1.0  0.9941000000000002  0.39035000000000003  0.22999000000000003  1.0000
  H   H3        1.0  0.65442  0.14702  0.05396  1.0000
  H   H4        1.0  0.60785  0.24984000000000006  0.95189  1.0000
  H   H5        1.0  0.16531  0.37898  0.4371  1.0000
  H   H6        1.0  0.27740000000000004  0.31748  0.42968  1.0000
  H   H7        1.0  0.29098  0.41219  0.54934  1.0000
  H   H8        1.0  0.7983200000000003  0.39756  0.30875  1.0000
  H   H9        1.0  0.90981  0.50686  0.42428  1.0000
  H   H10       1.0  0.8273400000000001  0.38798  0.42393  1.0000
  H   H11       1.0  0.5094500000000001  0.5680099999999999  0.91489  1.0000
  H   H12       1.0  0.30137  0.5209199999999999  0.80828  1.0000
  H   H13       1.0  0.3189  0.21077  0.60949  1.0000
  H   H14       1.0  0.5271699999999999  0.27113999999999994  0.7252499999999998  1.0000
  H   H15       1.0  0.6836900000000001  0.63932  0.11962  1.0000
  H   H16       1.0  0.7361500000000002  0.84055  0.23096  1.0000
  H   H17       1.0  0.8995100000000001  0.90735  0.05472  1.0000
  H   H18       1.0  0.8441100000000002  0.70213  0.95258  1.0000
  H   H19       1.0  0.7718800000000002  0.0585  0.43716  1.0000
  H   H20       1.0  0.6519700000000002  0.11188999999999996  0.4298699999999999  1.0000
  H   H21       1.0  0.7583500000000001  0.13744  0.54954  1.0000
  H   H22       1.0  0.008040000000000028  0.9111900000000002  0.30826000000000003  1.0000
  H   H23       1.0  0.012200000000000034  0.9176100000000003  0.42378  1.0000
  H   H24       1.0  0.09512999999999999  0.035809999999999995  0.42361999999999994  1.0000
  H   H25       1.0  0.90621  0.34590000000000004  0.9152399999999999  1.0000
  H   H26       1.0  0.007489999999999891  0.28752000000000005  0.80823  1.0000
  H   H27       1.0  0.79038  0.39937  0.61074  1.0000
  H   H28       1.0  0.69786  0.45350999999999997  0.7266999999999999  1.0000
  H   H29       1.0  0.7895700000000002  0.03984999999999999  0.07986999999999998  1.0000
  H   H30       1.0  0.13556000000000004  0.38603000000000004  0.77127  1.0000
  H   H31       1.0  0.06477000000000004  0.52033  0.88152  1.0000
  H   H32       1.0  0.0059000000000000346  0.6096500000000001  0.77002  1.0000
  H   H33       1.0  0.34558000000000005  0.85298  0.94605  1.0000
  H   H34       1.0  0.3921500000000001  0.75016  0.04812  1.0000
  H   H35       1.0  0.83469  0.62103  0.5629  1.0000
  H   H36       1.0  0.72259  0.68253  0.57032  1.0000
  H   H37       1.0  0.70902  0.58781  0.45067  1.0000
  H   H38       1.0  0.20168000000000005  0.60244  0.69125  1.0000
  H   H39       1.0  0.09019  0.49315000000000003  0.57573  1.0000
  H   H40       1.0  0.17265999999999998  0.61202  0.57608  1.0000
  H   H41       1.0  0.49055000000000004  0.4319900000000001  0.08511  1.0000
  H   H42       1.0  0.69863  0.47908000000000006  0.19173  1.0000
  H   H43       1.0  0.6811  0.7892300000000001  0.39051  1.0000
  H   H44       1.0  0.47283000000000003  0.72886  0.27475  1.0000
  H   H45       1.0  0.3163100000000002  0.36068  0.88038  1.0000
  H   H46       1.0  0.26385000000000003  0.15946  0.76904  1.0000
  H   H47       1.0  0.10049  0.09265  0.94529  1.0000
  H   H48       1.0  0.15589  0.29787  0.04743  1.0000
  H   H49       1.0  0.22812  0.9415  0.56285  1.0000
  H   H50       1.0  0.34803000000000006  0.8881100000000001  0.57014  1.0000
  H   H51       1.0  0.24165  0.8625600000000001  0.45046  1.0000
  H   H52       1.0  0.9919600000000002  0.08882000000000007  0.69174  1.0000
  H   H53       1.0  0.9878  0.0824  0.57623  1.0000
  H   H54       1.0  0.9048700000000002  0.96419  0.57639  1.0000
  H   H55       1.0  0.09379  0.6541  0.08475999999999999  1.0000
  H   H56       1.0  0.9925000000000003  0.71248  0.19177  1.0000
  H   H57       1.0  0.20962  0.60063  0.38926  1.0000
  H   H58       1.0  0.3021400000000001  0.54649  0.27331  1.0000
  H   H59       1.0  0.21043  0.96015  0.92013  1.0000
  H   H60       1.0  0.8644399999999999  0.61397  0.22872999999999996  1.0000
  C   C1        1.0  0.87481  0.40639  0.10704  1.0000
  C   C2        1.0  0.90781  0.35557  0.1691  1.0000
  C   C3        1.0  0.8296200000000002  0.25867  0.1515  1.0000
  C   C4        1.0  0.7195400000000002  0.22035  0.07061  1.0000
  C   C5        1.0  0.69288  0.27753  0.01346  1.0000
  C   C6        1.0  0.85882  0.19740000000000002  0.21124  1.0000
  C   C7        1.0  0.9145  0.24977  0.31734  1.0000
  C   C8        1.0  0.11037000000000001  0.27228  0.53363  1.0000
  C   C9        1.0  0.23021999999999998  0.34639  0.47415  1.0000
  C   C10       1.0  0.8657300000000001  0.41672  0.38227  1.0000
  C   C11       1.0  0.46394000000000013  0.48923  0.84692  1.0000
  C   C12       1.0  0.34756  0.46235  0.78703  1.0000
  C   C13       1.0  0.28971000000000013  0.35903  0.6995  1.0000
  C   C14       1.0  0.3578400000000001  0.2905100000000001  0.67642  1.0000
  C   C15       1.0  0.4738199999999998  0.32389  0.74092  1.0000
  C   C16       1.0  0.16492000000000004  0.3249299999999999  0.6398799999999999  1.0000
  C   C17       1.0  0.7323800000000001  0.70116  0.10797  1.0000
  C   C18       1.0  0.7613  0.81419  0.16991  1.0000
  C   C19       1.0  0.82155  0.89345  0.15205  1.0000
  C   C20       1.0  0.8509300000000001  0.85065  0.07123  1.0000
  C   C21       1.0  0.82056  0.7362  0.014129999999999998  1.0000
  C   C22       1.0  0.8517100000000001  0.014579999999999989  0.21147  1.0000
  C   C23       1.0  0.90189  0.06868000000000003  0.31754  1.0000
  C   C24       1.0  0.9225300000000001  0.26223  0.53372  1.0000
  C   C25       1.0  0.74371  0.1279  0.4743  1.0000
  C   C26       1.0  0.014659999999999982  0.9658300000000002  0.38195999999999997  1.0000
  C   C27       1.0  0.88343  0.35707  0.84744  1.0000
  C   C28       1.0  0.93982  0.32461  0.78728  1.0000
  C   C29       1.0  0.90976  0.3407500000000001  0.69997  1.0000
  C   C30       1.0  0.81842  0.38607  0.67735  1.0000
  C   C31       1.0  0.7670400000000002  0.41658  0.74202  1.0000
  C   C32       1.0  0.9746  0.31560000000000005  0.64001  1.0000
  C   C33       1.0  0.8303400000000002  0.08091000000000001  0.16139  1.0000
  C   C34       1.0  0.9345  0.18553000000000006  0.36988000000000004  1.0000
  C   C35       1.0  0.9901800000000002  0.24112999999999998  0.48112999999999995  1.0000
  C   C36       1.0  0.09474000000000005  0.34526  0.68982  1.0000
  C   C37       1.0  0.1251900000000001  0.59361  0.89296  1.0000
  C   C38       1.0  0.09219000000000001  0.64443  0.8309  1.0000
  C   C39       1.0  0.17037  0.74134  0.8485  1.0000
  C   C40       1.0  0.28046000000000004  0.7796600000000002  0.92939  1.0000
  C   C41       1.0  0.30712000000000006  0.7224700000000001  0.9865400000000001  1.0000
  C   C42       1.0  0.14118000000000003  0.8026  0.78876  1.0000
  C   C43       1.0  0.08549999999999998  0.75023  0.68266  1.0000
  C   C44       1.0  0.8896300000000003  0.72772  0.46637  1.0000
  C   C45       1.0  0.76978  0.65362  0.52585  1.0000
  C   C46       1.0  0.13426999999999997  0.58329  0.6177399999999998  1.0000
  C   C47       1.0  0.53605  0.5107699999999997  0.15308  1.0000
  C   C48       1.0  0.6524400000000002  0.53765  0.21298  1.0000
  C   C49       1.0  0.71029  0.6409700000000003  0.3005  1.0000
  C   C50       1.0  0.6421600000000001  0.70949  0.32358  1.0000
  C   C51       1.0  0.52618  0.67611  0.25908  1.0000
  C   C52       1.0  0.8350800000000002  0.67507  0.36012999999999995  1.0000
  C   C53       1.0  0.2676100000000001  0.29885000000000006  0.89204  1.0000
  C   C54       1.0  0.2387000000000001  0.18582000000000007  0.8301  1.0000
  C   C55       1.0  0.17845000000000008  0.10655000000000003  0.84796  1.0000
  C   C56       1.0  0.14906000000000008  0.14936000000000002  0.92877  1.0000
  C   C57       1.0  0.17944  0.26381  0.98588  1.0000
  C   C58       1.0  0.14828  0.98542  0.78854  1.0000
  C   C59       1.0  0.09811000000000007  0.9313200000000001  0.6824700000000001  1.0000
  C   C60       1.0  0.07746999999999997  0.73778  0.4662899999999999  1.0000
  C   C61       1.0  0.2562900000000001  0.8720999999999998  0.5257  1.0000
  C   C62       1.0  0.9853400000000002  0.034170000000000054  0.61804  1.0000
  C   C63       1.0  0.11657000000000002  0.64293  0.15256  1.0000
  C   C64       1.0  0.06018000000000001  0.6754  0.21272  1.0000
  C   C65       1.0  0.09024000000000001  0.6592500000000001  0.30004  1.0000
  C   C66       1.0  0.18158  0.61393  0.32266  1.0000
  C   C67       1.0  0.23295000000000005  0.58342  0.25798  1.0000
  C   C68       1.0  0.02539999999999999  0.6844  0.35999  1.0000
  C   C69       1.0  0.16966000000000012  0.91909  0.83862  1.0000
  C   C70       1.0  0.06550000000000002  0.81448  0.63012  1.0000
  C   C71       1.0  0.009820000000000044  0.7588700000000002  0.51887  1.0000
  C   C72       1.0  0.90526  0.65474  0.31018  1.0000
  N   N1        1.0  0.7686900000000002  0.37017  0.03007  1.0000
  N   N2        1.0  0.52806  0.42145  0.82656  1.0000
  N   N3        1.0  0.76143  0.66023  0.03088  1.0000
  N   N4        1.0  0.79871  0.40424  0.82739  1.0000
  N   N5        1.0  0.23129999999999998  0.62983  0.96993  1.0000
  N   N6        1.0  0.4719400000000001  0.57855  0.17345  1.0000
  N   N7        1.0  0.23857  0.33977  0.96913  1.0000
  N   N8        1.0  0.20129000000000002  0.5957600000000002  0.17261  1.0000
  O   O1        1.0  0.95342  0.36514  0.37115  1.0000
  O   O2        1.0  0.17494000000000007  0.24969  0.47948  1.0000
  O   O3        1.0  0.9165900000000002  0.007389999999999976  0.37155  1.0000
  O   O4        1.0  0.80374  0.23028  0.4797  1.0000
  O   O5        1.0  0.046579999999999996  0.6348600000000001  0.62885  1.0000
  O   O6        1.0  0.8250600000000002  0.75031  0.52053  1.0000
  O   O7        1.0  0.08339999999999995  0.9926099999999999  0.62845  1.0000
  O   O8        1.0  0.19626000000000005  0.76972  0.5203  1.0000
