data_image0
_chemical_formula_structural       Zn4H44C76N4O16
_chemical_formula_sum              "Zn4 H44 C76 N4 O16"
_cell_length_a       8.23719
_cell_length_b       14.90047
_cell_length_c       14.98914
_cell_angle_alpha    89.99324
_cell_angle_beta     97.30563999999998
_cell_angle_gamma    89.9427

_space_group_name_H-M_alt    "P 1"
_space_group_IT_number       1

loop_
  _space_group_symop_operation_xyz
  'x, y, z'

loop_
  _atom_site_type_symbol
  _atom_site_label
  _atom_site_symmetry_multiplicity
  _atom_site_fract_x
  _atom_site_fract_y
  _atom_site_fract_z
  _atom_site_occupancy
  Zn  Zn1       1.0  0.9877499999999999  0.72983  0.74403  1.0000
  Zn  Zn2       1.0  0.51115  0.22977000000000006  0.25334  1.0000
  Zn  Zn3       1.0  0.012240000000000003  0.27017  0.25598  1.0000
  Zn  Zn4       1.0  0.48884  0.7702400000000003  0.7466699999999998  1.0000
  H   H1        1.0  0.10572000000000001  0.8758700000000003  0.63264  1.0000
  H   H2        1.0  0.0038499999999999897  0.12922  0.75276  1.0000
  H   H3        1.0  0.87153  0.8746700000000002  0.86025  1.0000
  H   H4        1.0  0.29947  0.95095  0.5834  1.0000
  H   H5        1.0  0.39438  0.027100000000000006  0.45167  1.0000
  H   H6        1.0  0.08166999999999999  0.25123  0.48527999999999993  1.0000
  H   H7        1.0  0.97244  0.17331  0.61139  1.0000
  H   H8        1.0  0.69072  0.95364  0.9160499999999998  1.0000
  H   H9        1.0  0.60619  0.027600000000000003  0.05155999999999999  1.0000
  H   H10       1.0  0.9383399999999998  0.24419000000000005  0.02395999999999999  1.0000
  H   H11       1.0  0.036929999999999984  0.16759  0.89416  1.0000
  H   H12       1.0  0.3943399999999999  0.37562  0.36619  1.0000
  H   H13       1.0  0.49639000000000005  0.6293  0.24666  1.0000
  H   H14       1.0  0.62844  0.37486000000000014  0.13872  1.0000
  H   H15       1.0  0.2015  0.45100000000000007  0.41629  1.0000
  H   H16       1.0  0.10691000000000002  0.52683  0.54802  1.0000
  H   H17       1.0  0.42013999999999996  0.7506400000000002  0.5147599999999999  1.0000
  H   H18       1.0  0.52862  0.67288  0.3884299999999999  1.0000
  H   H19       1.0  0.81006  0.4535400000000001  0.08362999999999997  1.0000
  H   H20       1.0  0.8948899999999997  0.52745  0.9480499999999997  1.0000
  H   H21       1.0  0.56379  0.74476  0.9757299999999998  1.0000
  H   H22       1.0  0.46441999999999994  0.66827  0.10528999999999997  1.0000
  H   H23       1.0  0.89427  0.12414000000000003  0.3673599999999999  1.0000
  H   H24       1.0  0.9961399999999999  0.8707800000000002  0.24725  1.0000
  H   H25       1.0  0.12845999999999994  0.12533  0.13975999999999997  1.0000
  H   H26       1.0  0.70053  0.04905000000000002  0.4165999999999999  1.0000
  H   H27       1.0  0.60561  0.97291  0.54833  1.0000
  H   H28       1.0  0.91832  0.7487700000000003  0.51473  1.0000
  H   H29       1.0  0.02755  0.8266900000000003  0.38861  1.0000
  H   H30       1.0  0.3092799999999999  0.04636  0.08395  1.0000
  H   H31       1.0  0.3938  0.9724000000000003  0.9484399999999997  1.0000
  H   H32       1.0  0.06165999999999999  0.7558100000000002  0.97605  1.0000
  H   H33       1.0  0.96306  0.83242  0.10583999999999998  1.0000
  H   H34       1.0  0.60565  0.6243800000000003  0.63381  1.0000
  H   H35       1.0  0.5035999999999998  0.37071  0.75334  1.0000
  H   H36       1.0  0.37155  0.6251400000000001  0.86128  1.0000
  H   H37       1.0  0.79849  0.549  0.5837199999999998  1.0000
  H   H38       1.0  0.89309  0.47317  0.45198  1.0000
  H   H39       1.0  0.57985  0.24937000000000006  0.48524  1.0000
  H   H40       1.0  0.47137  0.32712  0.61157  1.0000
  H   H41       1.0  0.18992999999999993  0.5464600000000002  0.91637  1.0000
  H   H42       1.0  0.1051  0.4725500000000001  0.05195  1.0000
  H   H43       1.0  0.43619999999999987  0.25524  0.024269999999999993  1.0000
  H   H44       1.0  0.5355799999999997  0.3317300000000001  0.8947099999999998  1.0000
  C   C1        1.0  0.055969999999999964  0.9160100000000002  0.6831199999999997  1.0000
  C   C2        1.0  0.062049999999999994  0.009880000000000003  0.68148  1.0000
  C   C3        1.0  0.9990799999999999  0.05622  0.7508899999999997  1.0000
  C   C4        1.0  0.9305899999999998  0.009250000000000001  0.8180499999999998  1.0000
  C   C5        1.0  0.92599  0.9154200000000002  0.8118999999999997  1.0000
  C   C6        1.0  0.12833  0.056500000000000015  0.60702  1.0000
  C   C7        1.0  0.2486  0.01596  0.56131  1.0000
  C   C8        1.0  0.30468  0.05901  0.4885699999999999  1.0000
  C   C9        1.0  0.24504  0.14407000000000003  0.4610399999999999  1.0000
  C   C10       1.0  0.12758  0.18545000000000006  0.50747  1.0000
  C   C11       1.0  0.06869999999999997  0.14184000000000005  0.57884  1.0000
  C   C12       1.0  0.2994099999999999  0.19089  0.38181  1.0000
  C   C13       1.0  0.8707999999999999  0.054980000000000015  0.8950899999999998  1.0000
  C   C14       1.0  0.7483799999999999  0.016280000000000006  0.9403399999999997  1.0000
  C   C15       1.0  0.69814  0.058180000000000016  0.01535  1.0000
  C   C16       1.0  0.76602  0.14066  0.04572  1.0000
  C   C17       1.0  0.88601  0.18028000000000005  0.9999499999999999  1.0000
  C   C18       1.0  0.9390799999999998  0.13754  0.9263699999999998  1.0000
  C   C19       1.0  0.7149300000000001  0.1869  0.12615  1.0000
  C   C20       1.0  0.4443099999999999  0.4159100000000001  0.31592  1.0000
  C   C21       1.0  0.43820999999999993  0.5098  0.31775  1.0000
  C   C22       1.0  0.50098  0.55629  0.24837  1.0000
  C   C23       1.0  0.5697  0.50942  0.18119999999999997  1.0000
  C   C24       1.0  0.57419  0.4156  0.18714  1.0000
  C   C25       1.0  0.3726199999999999  0.55628  0.3925499999999999  1.0000
  C   C26       1.0  0.25257  0.51585  0.4383599999999999  1.0000
  C   C27       1.0  0.19654999999999992  0.55881  0.5112099999999999  1.0000
  C   C28       1.0  0.25637999999999994  0.64373  0.5388899999999998  1.0000
  C   C29       1.0  0.37384  0.68498  0.49247  1.0000
  C   C30       1.0  0.43248  0.6414300000000001  0.4209699999999999  1.0000
  C   C31       1.0  0.20154  0.69062  0.61794  1.0000
  C   C32       1.0  0.63015  0.55524  0.10444999999999997  1.0000
  C   C33       1.0  0.7527299999999998  0.51633  0.059319999999999984  1.0000
  C   C34       1.0  0.8032199999999997  0.5582100000000002  0.98441  1.0000
  C   C35       1.0  0.73555  0.6407700000000002  0.95403  1.0000
  C   C36       1.0  0.61576  0.68074  0.99982  1.0000
  C   C37       1.0  0.56237  0.6380100000000002  0.07324999999999997  1.0000
  C   C38       1.0  0.7861999999999998  0.6867900000000002  0.87342  1.0000
  C   C39       1.0  0.94402  0.08399  0.31689  1.0000
  C   C40       1.0  0.93794  0.9901200000000002  0.31852  1.0000
  C   C41       1.0  0.0009099999999999948  0.9437800000000002  0.24911  1.0000
  C   C42       1.0  0.06940999999999999  0.99075  0.18194999999999997  1.0000
  C   C43       1.0  0.074  0.08458000000000003  0.1881  1.0000
  C   C44       1.0  0.8716599999999998  0.9435  0.39298  1.0000
  C   C45       1.0  0.75139  0.9840500000000002  0.43869  1.0000
  C   C46       1.0  0.69532  0.94099  0.51144  1.0000
  C   C47       1.0  0.7549499999999998  0.85593  0.5389599999999998  1.0000
  C   C48       1.0  0.8724099999999998  0.8145600000000002  0.49252999999999997  1.0000
  C   C49       1.0  0.9312899999999998  0.85817  0.42115999999999987  1.0000
  C   C50       1.0  0.70058  0.8091100000000002  0.6181899999999999  1.0000
  C   C51       1.0  0.12919  0.94503  0.10490999999999998  1.0000
  C   C52       1.0  0.25162  0.9837200000000003  0.05966  1.0000
  C   C53       1.0  0.3018599999999999  0.9418200000000002  0.9846499999999998  1.0000
  C   C54       1.0  0.2339699999999999  0.8593400000000002  0.9542799999999998  1.0000
  C   C55       1.0  0.11398  0.8197200000000002  4.999999999999999e-05  1.0000
  C   C56       1.0  0.060919999999999995  0.86247  0.07362999999999997  1.0000
  C   C57       1.0  0.28506  0.8131000000000003  0.87385  1.0000
  C   C58       1.0  0.55569  0.58409  0.68409  1.0000
  C   C59       1.0  0.5617799999999998  0.49020000000000014  0.6822499999999998  1.0000
  C   C60       1.0  0.49902  0.44372  0.75163  1.0000
  C   C61       1.0  0.43029  0.49058000000000007  0.8188099999999998  1.0000
  C   C62       1.0  0.4258  0.5844  0.8128599999999998  1.0000
  C   C63       1.0  0.62737  0.44372  0.6074499999999998  1.0000
  C   C64       1.0  0.74742  0.48415  0.56164  1.0000
  C   C65       1.0  0.8034499999999998  0.44119000000000014  0.48879  1.0000
  C   C66       1.0  0.74361  0.3562700000000001  0.46111  1.0000
  C   C67       1.0  0.62615  0.31502  0.50753  1.0000
  C   C68       1.0  0.56752  0.35857  0.57903  1.0000
  C   C69       1.0  0.7984599999999997  0.30938  0.38206  1.0000
  C   C70       1.0  0.36984  0.44476000000000004  0.8955499999999997  1.0000
  C   C71       1.0  0.24726000000000004  0.4836700000000001  0.9406799999999998  1.0000
  C   C72       1.0  0.19678  0.4417900000000001  0.015589999999999996  1.0000
  C   C73       1.0  0.26444  0.3592300000000001  0.04596999999999998  1.0000
  C   C74       1.0  0.3842299999999999  0.31926  0.00018  1.0000
  C   C75       1.0  0.43762999999999996  0.362  0.9267499999999997  1.0000
  C   C76       1.0  0.21378999999999995  0.3132100000000001  0.12659  1.0000
  N   N1        1.0  0.9888599999999999  0.8699100000000002  0.74654  1.0000
  N   N2        1.0  0.5115  0.36994  0.25242  1.0000
  N   N3        1.0  0.01113999999999999  0.13009  0.25345999999999996  1.0000
  N   N4        1.0  0.48849  0.6300600000000002  0.7475899999999998  1.0000
  O   O1        1.0  0.60036  0.15012000000000006  0.16460999999999995  1.0000
  O   O2        1.0  0.78459  0.25991  0.15181  1.0000
  O   O3        1.0  0.41419  0.15444000000000005  0.3438199999999999  1.0000
  O   O4        1.0  0.23023  0.2645  0.35664  1.0000
  O   O5        1.0  0.90202  0.6508000000000003  0.83538  1.0000
  O   O6        1.0  0.7146299999999999  0.75952  0.8475999999999998  1.0000
  O   O7        1.0  0.08646  0.6540400000000002  0.65568  1.0000
  O   O8        1.0  0.26992999999999984  0.7642300000000002  0.6432199999999998  1.0000
  O   O9        1.0  0.39963  0.8498800000000002  0.8353999999999998  1.0000
  O   O10       1.0  0.2154  0.7400900000000002  0.84819  1.0000
  O   O11       1.0  0.5858099999999998  0.8455700000000003  0.65618  1.0000
  O   O12       1.0  0.76976  0.7355  0.6433699999999998  1.0000
  O   O13       1.0  0.09796999999999999  0.3492  0.16461999999999993  1.0000
  O   O14       1.0  0.28536  0.24049  0.1524  1.0000
  O   O15       1.0  0.91353  0.34596  0.34432  1.0000
  O   O16       1.0  0.73006  0.23577  0.35678  1.0000
