data_image0
_chemical_formula_structural       La8H16C56N16O48
_chemical_formula_sum              "La8 H16 C56 N16 O48"
_cell_length_a       10.45192
_cell_length_b       12.3871
_cell_length_c       17.23457
_cell_angle_alpha    90.20295000000002
_cell_angle_beta     89.86218999999998
_cell_angle_gamma    89.93153

_symmetry_space_group_name_H-M    'P 1'
_symmetry_Int_Tables_number       1

loop_
  _symmetry_equiv_pos_as_xyz
  'x,y,z'

loop_
  _atom_site_type_symbol
  _atom_site_label
  _atom_site_symmetry_multiplicity
  _atom_site_fract_x
  _atom_site_fract_y
  _atom_site_fract_z
  _atom_site_occupancy
  La  La1       1.0  0.60995  0.22863999999999998  0.10237000000000002  1.0000
  La  La2       1.0  0.12046000000000001  0.03837  0.34949  1.0000
  La  La3       1.0  0.39388000000000006  0.77454  0.60123  1.0000
  La  La4       1.0  0.8813000000000001  0.96727  0.84729  1.0000
  La  La5       1.0  0.8892500000000001  0.72839  0.09886  1.0000
  La  La6       1.0  0.37641  0.53926  0.34914  1.0000
  La  La7       1.0  0.11331000000000002  0.27178  0.59856  1.0000
  La  La8       1.0  0.6298700000000002  0.46564  0.84323  1.0000
  H   H1        1.0  0.8601  0.07527  0.22791  1.0000
  H   H2        1.0  0.69372  0.3129  0.43071  1.0000
  H   H3        1.0  0.30595  0.14172  0.18165  1.0000
  H   H4        1.0  0.52013  0.79463  0.20261  1.0000
  H   H5        1.0  0.14326  0.9263999999999998  0.72459  1.0000
  H   H6        1.0  0.30346  0.6898099999999999  0.92754  1.0000
  H   H7        1.0  0.7019800000000002  0.86241  0.67548  1.0000
  H   H8        1.0  0.4871400000000001  0.20913  0.69814  1.0000
  H   H9        1.0  0.63867  0.57643  0.22404  1.0000
  H   H10       1.0  0.8050000000000003  0.81132  0.42751  1.0000
  H   H11       1.0  0.18968  0.64081  0.18048  1.0000
  H   H12       1.0  0.97274  0.29602  0.20625  1.0000
  H   H13       1.0  0.36376  0.42661  0.72174  1.0000
  H   H14       1.0  0.20496000000000003  0.18957  0.92525  1.0000
  H   H15       1.0  0.81336  0.36405999999999994  0.67558  1.0000
  H   H16       1.0  0.03309  0.70797  0.70026  1.0000
  C   C1        1.0  0.8248700000000002  0.13048  0.27246  1.0000
  C   C2        1.0  0.8431700000000001  0.20058  0.39612  1.0000
  C   C3        1.0  0.73189  0.26139  0.38485  1.0000
  C   C4        1.0  0.67544  0.25503  0.31111  1.0000
  C   C5        1.0  0.5677900000000001  0.32771  0.28322  1.0000
  C   C6        1.0  0.9251100000000002  0.20327  0.4691100000000001  1.0000
  C   C7        1.0  0.35608000000000006  0.06541  0.18896  1.0000
  C   C8        1.0  0.35459000000000007  0.89099  0.23394  1.0000
  C   C9        1.0  0.47387  0.873  0.19987  1.0000
  C   C10       1.0  0.5349500000000001  0.9614099999999999  0.16653  1.0000
  C   C11       1.0  0.67452  0.95785  0.1421  1.0000
  C   C12       1.0  0.28959  0.80592  0.2836  1.0000
  C   C13       1.0  0.19727  0.88386  0.48652  1.0000
  C   C14       1.0  0.32667  0.9375  0.46253000000000005  1.0000
  C   C15       1.0  0.17656  0.87167  0.76955  1.0000
  C   C16       1.0  0.1543  0.80321  0.8934200000000001  1.0000
  C   C17       1.0  0.26536000000000004  0.74166  0.88233  1.0000
  C   C18       1.0  0.32344  0.7466  0.80888  1.0000
  C   C19       1.0  0.43224000000000007  0.6736699999999999  0.78225  1.0000
  C   C20       1.0  0.07005  0.80173  0.96606  1.0000
  C   C21       1.0  0.65158  0.93845  0.68386  1.0000
  C   C22       1.0  0.65289  0.11323  0.7288600000000001  1.0000
  C   C23       1.0  0.53371  0.13087  0.69533  1.0000
  C   C24       1.0  0.47214  0.04179  0.66328  1.0000
  C   C25       1.0  0.33224  0.04622  0.64107  1.0000
  C   C26       1.0  0.7158300000000001  0.19913  0.77851  1.0000
  C   C27       1.0  0.80594  0.12066  0.98595  1.0000
  C   C28       1.0  0.67657  0.06616  0.96256  1.0000
  C   C29       1.0  0.67322  0.63108  0.26901  1.0000
  C   C30       1.0  0.65388  0.70011  0.39312  1.0000
  C   C31       1.0  0.7655100000000002  0.76042  0.38189  1.0000
  C   C32       1.0  0.8213600000000001  0.75581  0.30782  1.0000
  C   C33       1.0  0.9274000000000002  0.83054  0.28049  1.0000
  C   C34       1.0  0.57254  0.70291  0.46665000000000006  1.0000
  C   C35       1.0  0.13889  0.56516  0.18876  1.0000
  C   C36       1.0  0.13927  0.39193  0.23537  1.0000
  C   C37       1.0  0.019510000000000003  0.37404  0.20227  1.0000
  C   C38       1.0  0.9590800000000003  0.46201  0.16798  1.0000
  C   C39       1.0  0.8197900000000001  0.45919999999999994  0.14326  1.0000
  C   C40       1.0  0.20498000000000002  0.30697  0.28421  1.0000
  C   C41       1.0  0.30151  0.38255  0.48225  1.0000
  C   C42       1.0  0.17248000000000002  0.43987  0.46237000000000006  1.0000
  C   C43       1.0  0.33089  0.37193  0.7669100000000001  1.0000
  C   C44       1.0  0.35383000000000003  0.30337  0.89057  1.0000
  C   C45       1.0  0.24304  0.24169999999999997  0.88008  1.0000
  C   C46       1.0  0.18513  0.24634999999999999  0.80679  1.0000
  C   C47       1.0  0.07896  0.17111  0.78059  1.0000
  C   C48       1.0  0.4377  0.30285  0.9630200000000001  1.0000
  C   C49       1.0  0.8645200000000001  0.43964999999999993  0.68394  1.0000
  C   C50       1.0  0.86528  0.61386  0.72997  1.0000
  C   C51       1.0  0.9854500000000002  0.63032  0.69678  1.0000
  C   C52       1.0  0.045880000000000004  0.54098  0.6638  1.0000
  C   C53       1.0  0.18578000000000003  0.54164  0.64005  1.0000
  C   C54       1.0  0.80082  0.69893  0.78001  1.0000
  C   C55       1.0  0.7042000000000002  0.61974  0.9794999999999999  1.0000
  C   C56       1.0  0.8342700000000001  0.56379  0.9586899999999999  1.0000
  N   N1        1.0  0.72015  0.18772999999999998  0.25581  1.0000
  N   N2        1.0  0.89013  0.1371  0.33897  1.0000
  N   N3        1.0  0.47472  0.05738  0.15982  1.0000
  N   N4        1.0  0.29568  0.98807  0.22921  1.0000
  N   N5        1.0  0.28089  0.81346  0.75316  1.0000
  N   N6        1.0  0.10982  0.86629  0.83578  1.0000
  N   N7        1.0  0.53223  0.94578  0.65604  1.0000
  N   N8        1.0  0.7119  0.01615  0.72414  1.0000
  N   N9        1.0  0.77772  0.68867  0.25229  1.0000
  N   N10       1.0  0.60708  0.63759  0.33551  1.0000
  N   N11       1.0  0.02037  0.55725  0.15987  1.0000
  N   N12       1.0  0.19885  0.48842  0.22972  1.0000
  N   N13       1.0  0.22655  0.31366  0.75108  1.0000
  N   N14       1.0  0.39842  0.36619  0.83262  1.0000
  N   N15       1.0  0.9841100000000002  0.44581  0.65632  1.0000
  N   N16       1.0  0.80471  0.51778  0.72414  1.0000
  O   O1        1.0  0.50761  0.29899  0.22282  1.0000
  O   O2        1.0  0.55262  0.41481999999999997  0.32055  1.0000
  O   O3        1.0  0.0388  0.1644  0.46158  1.0000
  O   O4        1.0  0.8825300000000001  0.24368  0.53126  1.0000
  O   O5        1.0  0.72572  0.04712  0.12534  1.0000
  O   O6        1.0  0.72981  0.8668799999999998  0.1439  1.0000
  O   O7        1.0  0.20115  0.83733  0.32748  1.0000
  O   O8        1.0  0.3323900000000001  0.70935  0.27755  1.0000
  O   O9        1.0  0.09627000000000001  0.9314299999999999  0.46492000000000006  1.0000
  O   O10       1.0  0.20179  0.79741  0.5254  1.0000
  O   O11       1.0  0.32071000000000005  0.015780000000000006  0.41469  1.0000
  O   O12       1.0  0.42801  0.90049  0.49178  1.0000
  O   O13       1.0  0.49327  0.70111  0.7218  1.0000
  O   O14       1.0  0.4477700000000001  0.58755  0.82031  1.0000
  O   O15       1.0  0.9555600000000001  0.83775  0.95765  1.0000
  O   O16       1.0  0.11283  0.7645  0.02887  1.0000
  O   O17       1.0  0.27945  0.95727  0.625  1.0000
  O   O18       1.0  0.27863  0.1379  0.64385  1.0000
  O   O19       1.0  0.8003  0.16811  0.8248700000000001  1.0000
  O   O20       1.0  0.6746000000000002  0.29577  0.76978  1.0000
  O   O21       1.0  0.90779  0.07391  0.96445  1.0000
  O   O22       1.0  0.7995100000000002  0.20743999999999999  0.02494  1.0000
  O   O23       1.0  0.68197  0.98888  0.91377  1.0000
  O   O24       1.0  0.57502  0.10132  0.9932799999999999  1.0000
  O   O25       1.0  0.9868900000000002  0.80469  0.21898000000000004  1.0000
  O   O26       1.0  0.9417500000000002  0.9163  0.31969  1.0000
  O   O27       1.0  0.45822000000000007  0.6659099999999999  0.46066  1.0000
  O   O28       1.0  0.61798  0.74194  0.52843  1.0000
  O   O29       1.0  0.7722700000000001  0.54743  0.12072000000000001  1.0000
  O   O30       1.0  0.76055  0.37054  0.15083  1.0000
  O   O31       1.0  0.2934  0.33862999999999993  0.32774  1.0000
  O   O32       1.0  0.16214000000000003  0.21059  0.27752  1.0000
  O   O33       1.0  0.4030100000000001  0.43247  0.46455  1.0000
  O   O34       1.0  0.29561  0.29118  0.51501  1.0000
  O   O35       1.0  0.17832000000000003  0.52164  0.41764000000000007  1.0000
  O   O36       1.0  0.07158000000000002  0.4024  0.4919799999999999  1.0000
  O   O37       1.0  0.01932  0.19473  0.7189  1.0000
  O   O38       1.0  0.06406  0.0866  0.82062  1.0000
  O   O39       1.0  0.55195  0.33838999999999997  0.9535200000000001  1.0000
  O   O40       1.0  0.39459  0.26762  0.02656  1.0000
  O   O41       1.0  0.23301  0.45143999999999995  0.62085  1.0000
  O   O42       1.0  0.24587000000000003  0.6301  0.64472  1.0000
  O   O43       1.0  0.7131200000000001  0.66655  0.82386  1.0000
  O   O44       1.0  0.84391  0.7951899999999998  0.77378  1.0000
  O   O45       1.0  0.60335  0.57118  0.9590700000000001  1.0000
  O   O46       1.0  0.70792  0.7089199999999999  0.01572  1.0000
  O   O47       1.0  0.83063  0.48639  0.90986  1.0000
  O   O48       1.0  0.93401  0.59805  0.9917600000000001  1.0000
