data_image0
_chemical_formula_structural       La3H36C63N3O18
_chemical_formula_sum              "La3 H36 C63 N3 O18"
_cell_length_a       13.06434
_cell_length_b       14.73087
_cell_length_c       14.73088
_cell_angle_alpha    111.53878
_cell_angle_beta     107.28159
_cell_angle_gamma    107.28161

_symmetry_space_group_name_H-M    'P 1'
_symmetry_Int_Tables_number       1

loop_
  _symmetry_equiv_pos_as_xyz
  'x,y,z'

loop_
  _atom_site_type_symbol
  _atom_site_label
  _atom_site_symmetry_multiplicity
  _atom_site_fract_x
  _atom_site_fract_y
  _atom_site_fract_z
  _atom_site_occupancy
  La  La1       1.0  0.82085  0.32117  0.6419599999999999  1.0000
  La  La2       1.0  0.17914999999999995  0.35804  0.67883  1.0000
  La  La3       1.0  0.4999999999999999  0.32083  0.67917  1.0000
  H   H1        1.0  0.8259599999999998  0.48329999999999995  0.17537999999999995  1.0000
  H   H2        1.0  0.7391199999999999  0.38212999999999997  0.9718999999999999  1.0000
  H   H3        1.0  0.07320999999999997  0.76206  0.18649999999999997  1.0000
  H   H4        1.0  0.9897699999999997  0.6570499999999999  0.9843299999999999  1.0000
  H   H5        1.0  0.09398999999999991  0.5508699999999999  0.30197999999999997  1.0000
  H   H6        1.0  0.09790999999999997  0.4507399999999999  0.4072099999999999  1.0000
  H   H7        1.0  0.65045  0.82426  0.30787  1.0000
  H   H8        1.0  0.76721  0.027999999999999966  0.41009999999999996  1.0000
  H   H9        1.0  0.8869199999999999  0.81385  0.5757899999999999  1.0000
  H   H10       1.0  0.005779999999999992  0.016190000000000048  0.67292  1.0000
  H   H11       1.0  0.7925299999999997  0.69839  0.24908999999999998  1.0000
  H   H12       1.0  0.69114  0.5932599999999999  0.043889999999999985  1.0000
  H   H13       1.0  0.34232999999999997  0.6915699999999998  0.51599  1.0000
  H   H14       1.0  0.3569599999999999  0.5893  0.61747  1.0000
  H   H15       1.0  0.31118  0.42486  0.23824999999999996  1.0000
  H   H16       1.0  0.3328999999999999  0.32755  0.34334  1.0000
  H   H17       1.0  0.5435899999999999  0.7513999999999997  0.4494299999999999  1.0000
  H   H18       1.0  0.64778  0.95657  0.54953  1.0000
  H   H19       1.0  0.34954999999999986  0.6921299999999998  0.17573999999999995  1.0000
  H   H20       1.0  0.2327899999999999  0.58991  0.9719999999999998  1.0000
  H   H21       1.0  0.11307999999999999  0.42421  0.18614999999999995  1.0000
  H   H22       1.0  0.9942199999999998  0.32707999999999987  0.9838099999999997  1.0000
  H   H23       1.0  0.20747  0.75091  0.30161  1.0000
  H   H24       1.0  0.30886  0.95611  0.40673999999999993  1.0000
  H   H25       1.0  0.65767  0.48401  0.30843  1.0000
  H   H26       1.0  0.6430399999999997  0.38253  0.4106999999999999  1.0000
  H   H27       1.0  0.6888199999999999  0.76175  0.5751399999999999  1.0000
  H   H28       1.0  0.6670999999999998  0.65666  0.67245  1.0000
  H   H29       1.0  0.4564099999999999  0.55057  0.24861  1.0000
  H   H30       1.0  0.35222  0.45046999999999987  0.043429999999999996  1.0000
  H   H31       1.0  0.17403999999999994  0.82462  0.5167  1.0000
  H   H32       1.0  0.26088  0.02811  0.61788  1.0000
  H   H33       1.0  0.9267900000000001  0.8135  0.23793999999999996  1.0000
  H   H34       1.0  0.010229999999999963  0.015679999999999982  0.34295  1.0000
  H   H35       1.0  0.9060099999999999  0.69803  0.4491299999999999  1.0000
  H   H36       1.0  0.90209  0.59279  0.54926  1.0000
  C   C1        1.0  0.9547499999999999  0.6302499999999998  0.19542  1.0000
  C   C2        1.0  0.8619  0.52151  0.13378999999999996  1.0000
  C   C3        1.0  0.8133299999999998  0.4648  0.020089999999999997  1.0000
  C   C4        1.0  0.8577199999999999  0.5137899999999997  0.9652899999999998  1.0000
  C   C5        1.0  0.000610000000000012  0.67876  0.14031999999999997  1.0000
  C   C6        1.0  0.95312  0.62073  0.02694  1.0000
  C   C7        1.0  0.8098899999999999  0.45284  0.84478  1.0000
  C   C8        1.0  0.052779999999999924  0.5596499999999998  0.35657  1.0000
  C   C9        1.0  0.05408999999999993  0.50345  0.4147499999999999  1.0000
  C   C10       1.0  0.7595  0.8046499999999999  0.43479999999999996  1.0000
  C   C11       1.0  0.7282099999999998  0.86618  0.38768  1.0000
  C   C12       1.0  0.79331  0.97992  0.44465  1.0000
  C   C13       1.0  0.89259  0.03484999999999999  0.54852  1.0000
  C   C14       1.0  0.8605199999999998  0.8598899999999999  0.5385199999999999  1.0000
  C   C15       1.0  0.9264199999999998  0.97332  0.5938899999999999  1.0000
  C   C16       1.0  0.9655399999999998  0.15538999999999994  0.6082199999999999  1.0000
  C   C17       1.0  0.6964899999999998  0.6436299999999998  0.20318999999999995  1.0000
  C   C18       1.0  0.63956  0.58543  0.08888  1.0000
  C   C19       1.0  0.32454  0.5652  0.36971  1.0000
  C   C20       1.0  0.3403499999999999  0.6119999999999999  0.4782099999999999  1.0000
  C   C21       1.0  0.34856999999999994  0.55501  0.53498  1.0000
  C   C22       1.0  0.34409999999999985  0.4514299999999999  0.4862199999999999  1.0000
  C   C23       1.0  0.32196  0.46178  0.32142  1.0000
  C   C24       1.0  0.33252  0.40635  0.37944  1.0000
  C   C25       1.0  0.3573699999999999  0.39177  0.5471  1.0000
  C   C26       1.0  0.4934099999999999  0.7970799999999998  0.44052999999999987  1.0000
  C   C27       1.0  0.5509699999999997  0.9114099999999999  0.49675999999999987  1.0000
  C   C28       1.0  0.2405  0.5652  0.19535  1.0000
  C   C29       1.0  0.27178999999999987  0.6123199999999998  0.13382  1.0000
  C   C30       1.0  0.20668999999999998  0.55535  0.02008  1.0000
  C   C31       1.0  0.10740999999999985  0.45148999999999995  0.96516  1.0000
  C   C32       1.0  0.13946999999999998  0.46147999999999995  0.14011999999999997  1.0000
  C   C33       1.0  0.07357999999999998  0.4061099999999999  0.02668  1.0000
  C   C34       1.0  0.03446000000000002  0.39178  0.84461  1.0000
  C   C35       1.0  0.30350999999999995  0.79681  0.35636999999999996  1.0000
  C   C36       1.0  0.36044  0.91112  0.41457  1.0000
  C   C37       1.0  0.67545  0.63029  0.43479999999999996  1.0000
  C   C38       1.0  0.6596499999999997  0.5217899999999999  0.38799999999999996  1.0000
  C   C39       1.0  0.6514299999999997  0.46502  0.44499  1.0000
  C   C40       1.0  0.6558999999999998  0.51378  0.54857  1.0000
  C   C41       1.0  0.67804  0.67858  0.5382199999999999  1.0000
  C   C42       1.0  0.6674799999999997  0.62056  0.59365  1.0000
  C   C43       1.0  0.6426299999999998  0.4528999999999999  0.6082299999999999  1.0000
  C   C44       1.0  0.50658  0.55947  0.20292  1.0000
  C   C45       1.0  0.44901999999999986  0.50324  0.08859  1.0000
  C   C46       1.0  0.045239999999999864  0.8045799999999996  0.3697499999999999  1.0000
  C   C47       1.0  0.1380899999999999  0.86621  0.4784899999999999  1.0000
  C   C48       1.0  0.18666999999999997  0.97991  0.5352  1.0000
  C   C49       1.0  0.1422799999999999  0.03470999999999993  0.4862199999999999  1.0000
  C   C50       1.0  0.9993899999999999  0.85968  0.32124  1.0000
  C   C51       1.0  0.046869999999999974  0.97306  0.37927  1.0000
  C   C52       1.0  0.1901  0.15522  0.54717  1.0000
  C   C53       1.0  0.94722  0.64343  0.44034999999999996  1.0000
  C   C54       1.0  0.9459099999999998  0.58525  0.49655  1.0000
  C   C55       1.0  0.0  0.63046  0.36954  1.0000
  C   C56       1.0  0.9999999999999998  0.5151899999999998  0.4848099999999999  1.0000
  C   C57       1.0  0.0  0.45376  0.54624  1.0000
  C   C58       1.0  0.6305  0.63047  0.26087  1.0000
  C   C59       1.0  0.5150899999999999  0.5151199999999998  0.030399999999999996  1.0000
  C   C60       1.0  0.45370999999999984  0.4537999999999998  0.9075199999999998  1.0000
  C   C61       1.0  0.3694899999999998  0.7391299999999997  0.3695299999999999  1.0000
  C   C62       1.0  0.4848999999999999  0.9695999999999998  0.48488  1.0000
  C   C63       1.0  0.54629  0.09249  0.54621  1.0000
  N   N1        1.0  0.0  0.68923  0.31077  1.0000
  N   N2        1.0  0.6892999999999998  0.6892499999999999  0.3783699999999999  1.0000
  N   N3        1.0  0.3106999999999999  0.62163  0.31075  1.0000
  O   O1        1.0  0.8689399999999998  0.4910399999999998  0.8009899999999998  1.0000
  O   O2        1.0  0.7133200000000002  0.35935  0.78633  1.0000
  O   O3        1.0  0.09134000000000002  0.4369700000000001  0.57807  1.0000
  O   O4        1.0  0.06869999999999996  0.1989299999999999  0.69001  1.0000
  O   O5        1.0  0.92776  0.21411999999999998  0.5736199999999999  1.0000
  O   O6        1.0  0.51338  0.42258  0.85902  1.0000
  O   O7        1.0  0.37816999999999995  0.3099199999999999  0.5088799999999999  1.0000
  O   O8        1.0  0.3545099999999999  0.42657  0.6405199999999999  1.0000
  O   O9        1.0  0.65471  0.14123999999999995  0.56344  1.0000
  O   O10       1.0  0.9312899999999997  0.3099899999999999  0.80107  1.0000
  O   O11       1.0  0.07224000000000001  0.42638  0.78588  1.0000
  O   O12       1.0  0.48661  0.14098  0.57743  1.0000
  O   O13       1.0  0.62182  0.49111999999999995  0.69008  1.0000
  O   O14       1.0  0.6454899999999998  0.3594899999999999  0.5734299999999999  1.0000
  O   O15       1.0  0.3452799999999998  0.4365699999999999  0.8587699999999998  1.0000
  O   O16       1.0  0.13105999999999993  0.1990099999999999  0.5089699999999999  1.0000
  O   O17       1.0  0.28667999999999993  0.21367999999999995  0.6406599999999999  1.0000
  O   O18       1.0  0.90866  0.42193  0.56304  1.0000
