data_image0
_chemical_formula_structural       Co4H36C52O16
_chemical_formula_sum              "Co4 H36 C52 O16"
_cell_length_a       11.1406
_cell_length_b       15.491839999999998
_cell_length_c       16.90041
_cell_angle_alpha    117.03022
_cell_angle_beta     109.17567
_cell_angle_gamma    89.99186

_space_group_name_H-M_alt    "P 1"
_space_group_IT_number       1

loop_
  _space_group_symop_operation_xyz
  'x, y, z'

loop_
  _atom_site_type_symbol
  _atom_site_label
  _atom_site_symmetry_multiplicity
  _atom_site_fract_x
  _atom_site_fract_y
  _atom_site_fract_z
  _atom_site_occupancy
  Co  Co1       1.0  0.53771  0.97206  0.44328  1.0000
  Co  Co2       1.0  0.09423999999999999  0.52767  0.55649  1.0000
  Co  Co3       1.0  0.4617899999999999  0.027629999999999984  0.55632  1.0000
  Co  Co4       1.0  0.9056399999999999  0.47209  0.44337  1.0000
  H   H1        1.0  0.22796  0.0009499999999999983  0.22036  1.0000
  H   H2        1.0  0.2184  0.21148000000000003  0.08745  1.0000
  H   H3        1.0  0.31384  0.11917  0.07912  1.0000
  H   H4        1.0  0.26813  0.17877  0.17973000000000006  1.0000
  H   H5        1.0  0.007729999999999994  0.4988099999999999  0.77987  1.0000
  H   H6        1.0  0.1297500000000001  0.2877700000000001  0.9121000000000001  1.0000
  H   H7        1.0  0.23349  0.3793  0.91945  1.0000
  H   H8        1.0  0.08687000000000003  0.31992  0.81942  1.0000
  H   H9        1.0  0.7699499999999999  0.27984999999999993  0.78044  1.0000
  H   H10       1.0  0.77992  0.62258  0.91097  1.0000
  H   H11       1.0  0.6849300000000001  0.5387100000000002  0.9197600000000002  1.0000
  H   H12       1.0  0.73115  0.49807  0.81931  1.0000
  H   H13       1.0  0.99015  0.22004999999999994  0.21901  1.0000
  H   H14       1.0  0.8701199999999999  0.87694  0.08916  1.0000
  H   H15       1.0  0.76617  0.96094  0.08116000000000001  1.0000
  H   H16       1.0  0.9130599999999999  0.001340000000000009  0.18117  1.0000
  H   H17       1.0  0.77168  0.9989299999999999  0.77932  1.0000
  H   H18       1.0  0.78138  0.78849  0.91236  1.0000
  H   H19       1.0  0.68599  0.88074  0.92065  1.0000
  H   H20       1.0  0.73169  0.82112  0.82008  1.0000
  H   H21       1.0  0.9922099999999999  0.5009  0.21991  1.0000
  H   H22       1.0  0.87013  0.71216  0.08776  1.0000
  H   H23       1.0  0.7663299999999998  0.6205399999999998  0.08029000000000001  1.0000
  H   H24       1.0  0.9129  0.6799499999999999  0.18041  1.0000
  H   H25       1.0  0.22974  0.72013  0.21947  1.0000
  H   H26       1.0  0.21984999999999996  0.3772599999999999  0.08880000000000002  1.0000
  H   H27       1.0  0.31493  0.4610899999999999  0.08002  1.0000
  H   H28       1.0  0.26878  0.50177  0.18052  1.0000
  H   H29       1.0  0.009800000000000033  0.7800299999999998  0.78086  1.0000
  H   H30       1.0  0.12982  0.12302  0.91071  1.0000
  H   H31       1.0  0.2336000000000001  0.03896000000000015  0.9185800000000002  1.0000
  H   H32       1.0  0.08674000000000008  0.99866  0.81864  1.0000
  H   H33       1.0  0.24282  0.24447  0.48615  1.0000
  H   H34       1.0  0.75764  0.25586  0.51375  1.0000
  H   H35       1.0  0.7571  0.75549  0.5136  1.0000
  H   H36       1.0  0.24237  0.74376  0.48608  1.0000
  C   C1        1.0  0.24283999999999997  0.11719000000000004  0.35821000000000003  1.0000
  C   C2        1.0  0.33592  0.07458999999999998  0.41009  1.0000
  C   C3        1.0  0.19443  0.0682  0.25796  1.0000
  C   C4        1.0  0.11362  0.07214  0.049940000000000005  1.0000
  C   C5        1.0  0.23459999999999998  0.14925  0.10225  1.0000
  C   C6        1.0  0.88503  0.38256  0.64179  1.0000
  C   C7        1.0  0.9272299999999999  0.4248  0.58995  1.0000
  C   C8        1.0  0.9363  0.4317300000000001  0.7420500000000002  1.0000
  C   C9        1.0  0.06321999999999998  0.42745999999999995  0.94953  1.0000
  C   C10       1.0  0.1312099999999999  0.34973  0.89691  1.0000
  C   C11       1.0  0.75642  0.2575400000000001  0.64223  1.0000
  C   C12       1.0  0.66376  0.16328000000000006  0.5904  1.0000
  C   C13       1.0  0.80401  0.30901999999999996  0.74248  1.0000
  C   C14       1.0  0.88559  0.52149  0.94952  1.0000
  C   C15       1.0  0.7642199999999999  0.54585  0.89668  1.0000
  C   C16       1.0  0.11414  0.24221  0.35737  1.0000
  C   C17       1.0  0.07229  0.33601  0.40893  1.0000
  C   C18       1.0  0.06196000000000002  0.1909  0.25712  1.0000
  C   C19       1.0  0.9363799999999999  0.9784399999999998  0.05065000000000001  1.0000
  C   C20       1.0  0.86849  0.9537799999999999  0.10378000000000001  1.0000
  C   C21       1.0  0.75692  0.8826599999999999  0.6415300000000003  1.0000
  C   C22       1.0  0.66382  0.92528  0.58966  1.0000
  C   C23       1.0  0.8052999999999999  0.93169  0.74178  1.0000
  C   C24       1.0  0.8862199999999999  0.92779  0.9498500000000002  1.0000
  C   C25       1.0  0.7652499999999999  0.8507000000000001  0.8975600000000001  1.0000
  C   C26       1.0  0.11493  0.61707  0.35798  1.0000
  C   C27       1.0  0.07271  0.5748599999999998  0.40984000000000004  1.0000
  C   C28       1.0  0.06356000000000002  0.56802  0.25772  1.0000
  C   C29       1.0  0.93664  0.57245  0.05032  1.0000
  C   C30       1.0  0.86862  0.65018  0.10292  1.0000
  C   C31       1.0  0.24346999999999996  0.74213  0.35761  1.0000
  C   C32       1.0  0.33607  0.8363500000000001  0.4094100000000001  1.0000
  C   C33       1.0  0.19583  0.69079  0.25737  1.0000
  C   C34       1.0  0.11428  0.47841  0.050330000000000014  1.0000
  C   C35       1.0  0.23566  0.4540000000000001  0.10314000000000002  1.0000
  C   C36       1.0  0.8858099999999999  0.75773  0.64243  1.0000
  C   C37       1.0  0.92776  0.66393  0.59094  1.0000
  C   C38       1.0  0.9379099999999999  0.8090799999999998  0.74268  1.0000
  C   C39       1.0  0.06342999999999993  0.021489999999999985  0.94914  1.0000
  C   C40       1.0  0.13131000000000007  0.046170000000000024  0.89603  1.0000
  C   C41       1.0  0.20386999999999997  0.20513999999999993  0.40845  1.0000
  C   C42       1.0  0.10267  0.10392  0.20648  1.0000
  C   C43       1.0  0.04949  0.05025  0.09975  1.0000
  C   C44       1.0  0.79578  0.29472  0.59143  1.0000
  C   C45       1.0  0.8954799999999999  0.3959000000000001  0.7933000000000002  1.0000
  C   C46       1.0  0.9492800000000001  0.44947000000000004  0.9000500000000001  1.0000
  C   C47       1.0  0.79596  0.79472  0.5913  1.0000
  C   C48       1.0  0.89709  0.8960200000000001  0.7933000000000002  1.0000
  C   C49       1.0  0.9502699999999998  0.94972  0.90003  1.0000
  C   C50       1.0  0.20419  0.7049  0.40838  1.0000
  C   C51       1.0  0.10435  0.60394  0.20652  1.0000
  C   C52       1.0  0.05057  0.55043  0.09978  1.0000
  O   O1        1.0  0.4119999999999999  0.025680000000000005  0.37088  1.0000
  O   O2        1.0  0.33532000000000006  0.08788000000000006  0.4906100000000001  1.0000
  O   O3        1.0  0.04181  0.47476  0.62992  1.0000
  O   O4        1.0  0.8475399999999998  0.41047  0.50866  1.0000
  O   O5        1.0  0.58811  0.15245  0.62959  1.0000
  O   O6        1.0  0.66395  0.09727000000000001  0.50951  1.0000
  O   O7        1.0  0.9577900000000003  0.34653000000000006  0.3690700000000001  1.0000
  O   O8        1.0  0.15218999999999994  0.40194  0.49032  1.0000
  O   O9        1.0  0.5876  0.97398  0.62881  1.0000
  O   O10       1.0  0.66451  0.91218  0.50921  1.0000
  O   O11       1.0  0.95817  0.5248299999999999  0.36986  1.0000
  O   O12       1.0  0.15238  0.58937  0.49119  1.0000
  O   O13       1.0  0.41178  0.84713  0.37023  1.0000
  O   O14       1.0  0.3356700000000001  0.9024  0.49019  1.0000
  O   O15       1.0  0.042220000000000084  0.6534100000000002  0.6308900000000001  1.0000
  O   O16       1.0  0.84792  0.59794  0.50955  1.0000
