data_image0
_chemical_formula_structural       Mn6H36C72O24
_chemical_formula_sum              "Mn6 H36 C72 O24"
_cell_length_a       12.02841
_cell_length_b       12.91897
_cell_length_c       14.145549999999998
_cell_angle_alpha    103.06734
_cell_angle_beta     101.60896
_cell_angle_gamma    93.12199

_symmetry_space_group_name_H-M    'P 1'
_symmetry_Int_Tables_number       1

loop_
  _symmetry_equiv_pos_as_xyz
  'x,y,z'

loop_
  _atom_site_type_symbol
  _atom_site_label
  _atom_site_symmetry_multiplicity
  _atom_site_fract_x
  _atom_site_fract_y
  _atom_site_fract_z
  _atom_site_occupancy
  Mn  Mn1       1.0  0.89765  0.86758  0.74862  1.0000
  Mn  Mn2       1.0  0.08429999999999999  0.76103  0.6057299999999999  1.0000
  Mn  Mn3       1.0  0.10172  0.13243  0.25138  1.0000
  Mn  Mn4       1.0  0.9157199999999999  0.23912999999999995  0.3943399999999999  1.0000
  Mn  Mn5       1.0  0.9986599999999999  0.00021  0.00044  1.0000
  Mn  Mn6       1.0  0.99952  0.50035  0.50003  1.0000
  H   H1        1.0  0.53287  0.93018  0.75474  1.0000
  H   H2        1.0  0.7442499999999999  0.13144  0.020339999999999994  1.0000
  H   H3        1.0  0.57514  0.21444  0.06851  1.0000
  H   H4        1.0  0.36441  0.22137999999999994  0.033999999999999996  1.0000
  H   H5        1.0  0.17182999999999993  0.13996999999999996  0.9367699999999998  1.0000
  H   H6        1.0  0.32084  0.9244399999999999  0.72986  1.0000
  H   H7        1.0  0.9747800000000001  0.71212  0.10581  1.0000
  H   H8        1.0  0.8172000000000001  0.58865  0.79712  1.0000
  H   H9        1.0  0.7465500000000002  0.41903  0.8300799999999998  1.0000
  H   H10       1.0  0.7373  0.30578  0.94842  1.0000
  H   H11       1.0  0.79398  0.27919  0.11999999999999997  1.0000
  H   H12       1.0  0.96784  0.59569  0.22604999999999997  1.0000
  H   H13       1.0  0.6491199999999999  0.75771  0.57709  1.0000
  H   H14       1.0  0.79638  0.56496  0.35375  1.0000
  H   H15       1.0  0.6071  0.46602  0.26946  1.0000
  H   H16       1.0  0.40222  0.42230999999999996  0.27428  1.0000
  H   H17       1.0  0.23787  0.46385  0.3545199999999999  1.0000
  H   H18       1.0  0.43951  0.73385  0.56495  1.0000
  H   H19       1.0  0.46587000000000006  0.06993  0.24488  1.0000
  H   H20       1.0  0.25493  0.8684499999999999  0.97905  1.0000
  H   H21       1.0  0.4243599999999999  0.78559  0.9314299999999998  1.0000
  H   H22       1.0  0.63505  0.77865  0.9662899999999999  1.0000
  H   H23       1.0  0.82742  0.86008  0.06376  1.0000
  H   H24       1.0  0.67811  0.07581  0.27022  1.0000
  H   H25       1.0  0.024289999999999947  0.28779999999999994  0.8937999999999998  1.0000
  H   H26       1.0  0.18248999999999999  0.41069  0.20245999999999995  1.0000
  H   H27       1.0  0.25334999999999996  0.58028  0.16970999999999994  1.0000
  H   H28       1.0  0.26249  0.69384  0.05138  1.0000
  H   H29       1.0  0.20567  0.72055  0.87988  1.0000
  H   H30       1.0  0.03175  0.40407  0.7737499999999999  1.0000
  H   H31       1.0  0.35073  0.24233  0.42296999999999996  1.0000
  H   H32       1.0  0.20345999999999997  0.43529  0.64622  1.0000
  H   H33       1.0  0.39282000000000006  0.53402  0.73063  1.0000
  H   H34       1.0  0.59778  0.57769  0.72575  1.0000
  H   H35       1.0  0.7620100000000001  0.5359699999999998  0.6453799999999998  1.0000
  H   H36       1.0  0.56025  0.26599  0.4351299999999999  1.0000
  C   C1        1.0  0.5408699999999999  0.9915899999999997  0.82325  1.0000
  C   C2        1.0  0.6477399999999999  0.027379999999999932  0.8843699999999998  1.0000
  C   C3        1.0  0.65909  0.10719000000000004  0.97408  1.0000
  C   C4        1.0  0.56535  0.15195  0.00049  1.0000
  C   C5        1.0  0.35500999999999994  0.15566999999999998  0.9684299999999998  1.0000
  C   C6        1.0  0.24798  0.11076000000000003  0.91486  1.0000
  C   C7        1.0  0.2355  0.024520000000000014  0.82978  1.0000
  C   C8        1.0  0.33099  0.9888599999999997  0.79653  1.0000
  C   C9        1.0  0.44205  0.031959999999999995  0.85157  1.0000
  C   C10       1.0  0.45432  0.11525  0.94099  1.0000
  C   C11       1.0  0.7516399999999998  0.9816299999999999  0.86065  1.0000
  C   C12       1.0  0.12165999999999992  0.96768  0.7797799999999998  1.0000
  C   C13       1.0  0.9253100000000001  0.64759  0.04634999999999999  1.0000
  C   C14       1.0  0.8988700000000001  0.66052  0.94989  1.0000
  C   C15       1.0  0.83491  0.57637  0.87177  1.0000
  C   C16       1.0  0.7967300000000002  0.48239  0.89039  1.0000
  C   C17       1.0  0.78776  0.36902999999999997  0.0086  1.0000
  C   C18       1.0  0.81807  0.35399  0.10304  1.0000
  C   C19       1.0  0.8835500000000001  0.43599  0.18246  1.0000
  C   C20       1.0  0.91767  0.53311  0.16501999999999997  1.0000
  C   C21       1.0  0.88941  0.55048  0.06783  1.0000
  C   C22       1.0  0.8232799999999999  0.46654999999999996  0.98807  1.0000
  C   C23       1.0  0.9327900000000001  0.76131  0.92419  1.0000
  C   C24       1.0  0.9140200000000003  0.41240999999999994  0.28168  1.0000
  C   C25       1.0  0.63951  0.6939  0.51004  1.0000
  C   C26       1.0  0.7353400000000001  0.66387  0.47366  1.0000
  C   C27       1.0  0.7216  0.58335  0.38363999999999987  1.0000
  C   C28       1.0  0.6162299999999999  0.52891  0.3371399999999999  1.0000
  C   C29       1.0  0.41105  0.48988999999999994  0.33822  1.0000
  C   C30       1.0  0.31949  0.51282  0.3817  1.0000
  C   C31       1.0  0.3287199999999999  0.60301  0.46275999999999995  1.0000
  C   C32       1.0  0.43246  0.66543  0.50217  1.0000
  C   C33       1.0  0.53012  0.6392200000000001  0.46348  1.0000
  C   C34       1.0  0.51851  0.55161  0.37752999999999987  1.0000
  C   C35       1.0  0.8491400000000001  0.71103  0.5310299999999999  1.0000
  C   C36       1.0  0.22709000000000001  0.6295799999999999  0.50432  1.0000
  C   C37       1.0  0.45789  0.008569999999999989  0.17635  1.0000
  C   C38       1.0  0.35100999999999993  0.97283  0.11504  1.0000
  C   C39       1.0  0.33999  0.8929  0.02546  1.0000
  C   C40       1.0  0.43391  0.8481499999999997  0.9993599999999999  1.0000
  C   C41       1.0  0.64426  0.84437  0.03183  1.0000
  C   C42       1.0  0.7512  0.8893  0.08553  1.0000
  C   C43       1.0  0.7635399999999998  0.9756099999999999  0.17053999999999994  1.0000
  C   C44       1.0  0.6679700000000001  0.011309999999999988  0.20360999999999996  1.0000
  C   C45       1.0  0.55691  0.9682  0.14838  1.0000
  C   C46       1.0  0.54486  0.88484  0.05904  1.0000
  C   C47       1.0  0.24698  0.018329999999999992  0.13899  1.0000
  C   C48       1.0  0.87741  0.03243  0.22036999999999995  1.0000
  C   C49       1.0  0.07391999999999996  0.35219999999999996  0.9533199999999998  1.0000
  C   C50       1.0  0.1001  0.3392  0.04974  1.0000
  C   C51       1.0  0.16457  0.42312  0.12785999999999997  1.0000
  C   C52       1.0  0.20303  0.51705  0.10932999999999997  1.0000
  C   C53       1.0  0.21205  0.63059  0.99119  1.0000
  C   C54       1.0  0.18162999999999999  0.6457  0.8967899999999999  1.0000
  C   C55       1.0  0.11596000000000002  0.5638100000000001  0.8174  1.0000
  C   C56       1.0  0.08200000000000002  0.46662  0.83475  1.0000
  C   C57       1.0  0.11030999999999996  0.4491899999999999  0.9319199999999997  1.0000
  C   C58       1.0  0.17651  0.53305  0.0117  1.0000
  C   C59       1.0  0.06533  0.2387  0.0756  1.0000
  C   C60       1.0  0.08516  0.58761  0.71832  1.0000
  C   C61       1.0  0.36033  0.30612999999999996  0.4900199999999999  1.0000
  C   C62       1.0  0.26452  0.33629  0.52637  1.0000
  C   C63       1.0  0.27827  0.41681  0.61639  1.0000
  C   C64       1.0  0.38368  0.47113  0.66294  1.0000
  C   C65       1.0  0.58886  0.51009  0.6618099999999999  1.0000
  C   C66       1.0  0.6803600000000001  0.48707  0.61828  1.0000
  C   C67       1.0  0.67107  0.39682  0.5372699999999999  1.0000
  C   C68       1.0  0.56734  0.33443  0.4978999999999999  1.0000
  C   C69       1.0  0.46973000000000004  0.36074999999999996  0.53661  1.0000
  C   C70       1.0  0.48139  0.44838  0.6225499999999999  1.0000
  C   C71       1.0  0.15068  0.28931999999999997  0.46895  1.0000
  C   C72       1.0  0.77265  0.37033  0.4956999999999999  1.0000
  O   O1        1.0  0.83958  0.99948  0.9328099999999999  1.0000
  O   O2        1.0  0.7497300000000001  0.9273499999999999  0.7723299999999997  1.0000
  O   O3        1.0  0.040329999999999935  0.97383  0.8279599999999998  1.0000
  O   O4        1.0  0.10548000000000003  0.91189  0.69023  1.0000
  O   O5        1.0  0.97873  0.84265  0.99483  1.0000
  O   O6        1.0  0.9111500000000001  0.76037  0.83176  1.0000
  O   O7        1.0  0.88947  0.31579  0.28542999999999996  1.0000
  O   O8        1.0  0.96114  0.48877  0.35676999999999987  1.0000
  O   O9        1.0  0.9405100000000001  0.67108  0.50885  1.0000
  O   O10       1.0  0.8604499999999999  0.79256  0.6052399999999999  1.0000
  O   O11       1.0  0.15103  0.55231  0.49459999999999993  1.0000
  O   O12       1.0  0.22154  0.72766  0.54735  1.0000
  O   O13       1.0  0.15828  0.00037000000000000043  0.06743  1.0000
  O   O14       1.0  0.24976  0.07271  0.22748  1.0000
  O   O15       1.0  0.95834  0.0264  0.17176  1.0000
  O   O16       1.0  0.8942900000000001  0.08803  0.31002  1.0000
  O   O17       1.0  0.01696  0.15782  0.00537  1.0000
  O   O18       1.0  0.08872  0.23944  0.16797  1.0000
  O   O19       1.0  0.11048000000000001  0.6840299999999999  0.71448  1.0000
  O   O20       1.0  0.037239999999999975  0.51153  0.6433199999999999  1.0000
  O   O21       1.0  0.05940999999999997  0.3294599999999999  0.4910499999999999  1.0000
  O   O22       1.0  0.13936999999999997  0.20765  0.3948299999999999  1.0000
  O   O23       1.0  0.8484600000000001  0.44778  0.50539  1.0000
  O   O24       1.0  0.77843  0.2723  0.45267999999999997  1.0000
