data_image0
_chemical_formula_structural       Zn6H6C24N66
_chemical_formula_sum              "Zn6 H6 C24 N66"
_cell_length_a       14.6986
_cell_length_b       14.69819
_cell_length_c       14.698349999999998
_cell_angle_alpha    109.39297
_cell_angle_beta     109.39922
_cell_angle_gamma    109.39895000000001

_symmetry_space_group_name_H-M    'P 1'
_symmetry_Int_Tables_number       1

loop_
  _symmetry_equiv_pos_as_xyz
  'x,y,z'

loop_
  _atom_site_type_symbol
  _atom_site_label
  _atom_site_symmetry_multiplicity
  _atom_site_fract_x
  _atom_site_fract_y
  _atom_site_fract_z
  _atom_site_occupancy
  Zn  Zn1       1.0  0.5504399999999999  0.79968  0.30491  1.0000
  Zn  Zn2       1.0  0.7996799999999998  0.30491  0.55044  1.0000
  Zn  Zn3       1.0  0.30489999999999984  0.5504399999999998  0.7996799999999997  1.0000
  Zn  Zn4       1.0  0.4495599999999998  0.20031999999999986  0.6950899999999999  1.0000
  Zn  Zn5       1.0  0.20031999999999994  0.69509  0.4495599999999999  1.0000
  Zn  Zn6       1.0  0.69509  0.44956  0.20032  1.0000
  H   H1        1.0  0.2961599999999999  0.2939599999999999  0.9324799999999999  1.0000
  H   H2        1.0  0.29396  0.93249  0.29616  1.0000
  H   H3        1.0  0.9324799999999998  0.29616  0.29396  1.0000
  H   H4        1.0  0.7038299999999998  0.7060399999999998  0.06750999999999999  1.0000
  H   H5        1.0  0.7060399999999998  0.06750999999999995  0.7038299999999997  1.0000
  H   H6        1.0  0.06750999999999997  0.7038299999999998  0.70604  1.0000
  C   C1        1.0  0.41636  0.54943  0.0493  1.0000
  C   C2        1.0  0.4837599999999999  0.52773  0.12487999999999998  1.0000
  C   C3        1.0  0.4283899999999999  0.65197  0.05117  1.0000
  C   C4        1.0  0.58789  0.60037  0.22947  1.0000
  C   C5        1.0  0.54943  0.04929999999999993  0.4163699999999999  1.0000
  C   C6        1.0  0.5277299999999998  0.12487999999999992  0.48375999999999997  1.0000
  C   C7        1.0  0.65197  0.051169999999999986  0.42839999999999995  1.0000
  C   C8        1.0  0.60037  0.22946  0.58789  1.0000
  C   C9        1.0  0.049299999999999976  0.41635999999999995  0.5494299999999999  1.0000
  C   C10       1.0  0.12487999999999992  0.48375999999999997  0.52773  1.0000
  C   C11       1.0  0.05116999999999993  0.42838999999999994  0.6519699999999999  1.0000
  C   C12       1.0  0.22946999999999998  0.58789  0.60037  1.0000
  C   C13       1.0  0.58364  0.4505699999999999  0.95069  1.0000
  C   C14       1.0  0.51624  0.47227  0.87511  1.0000
  C   C15       1.0  0.5715999999999999  0.3480299999999998  0.9488299999999997  1.0000
  C   C16       1.0  0.41210999999999987  0.3996199999999999  0.77053  1.0000
  C   C17       1.0  0.4505699999999999  0.9507  0.58363  1.0000
  C   C18       1.0  0.4722599999999998  0.8751199999999999  0.5162399999999999  1.0000
  C   C19       1.0  0.3480299999999999  0.9488299999999997  0.5716  1.0000
  C   C20       1.0  0.3996199999999999  0.7705299999999999  0.4121099999999999  1.0000
  C   C21       1.0  0.9506899999999998  0.58364  0.45057  1.0000
  C   C22       1.0  0.87511  0.51624  0.4722699999999999  1.0000
  C   C23       1.0  0.9488299999999997  0.57161  0.34802999999999995  1.0000
  C   C24       1.0  0.7705299999999998  0.41211  0.39962  1.0000
  N   N1        1.0  0.33119999999999983  0.4511999999999999  0.96034  1.0000
  N   N2        1.0  0.34927999999999976  0.3770399999999999  0.9844699999999997  1.0000
  N   N3        1.0  0.43801  0.41645  0.08096999999999999  1.0000
  N   N4        1.0  0.6659399999999998  0.5728  0.26603  1.0000
  N   N5        1.0  0.7485899999999998  0.6606199999999998  0.36807  1.0000
  N   N6        1.0  0.7225399999999996  0.7388599999999997  0.39264999999999994  1.0000
  N   N7        1.0  0.62226  0.70356  0.30686  1.0000
  N   N8        1.0  0.38903999999999983  0.66148  0.9600099999999998  1.0000
  N   N9        1.0  0.41664999999999985  0.7699299999999999  0.9958599999999997  1.0000
  N   N10       1.0  0.4713199999999999  0.82451  0.10444  1.0000
  N   N11       1.0  0.48001999999999995  0.75246  0.14151999999999998  1.0000
  N   N12       1.0  0.45118999999999987  0.96034  0.33119999999999994  1.0000
  N   N13       1.0  0.37703999999999976  0.9844799999999999  0.34927999999999987  1.0000
  N   N14       1.0  0.4164599999999999  0.08097  0.438  1.0000
  N   N15       1.0  0.5728  0.26602  0.66593  1.0000
  N   N16       1.0  0.6606199999999997  0.3680599999999999  0.7485699999999997  1.0000
  N   N17       1.0  0.73886  0.39265  0.72253  1.0000
  N   N18       1.0  0.7035699999999998  0.30685  0.62226  1.0000
  N   N19       1.0  0.6614699999999997  0.9600099999999999  0.38904  1.0000
  N   N20       1.0  0.7699199999999999  0.99587  0.41665  1.0000
  N   N21       1.0  0.8245099999999997  0.10444000000000003  0.47133  1.0000
  N   N22       1.0  0.75246  0.14152999999999993  0.4800299999999999  1.0000
  N   N23       1.0  0.9603399999999997  0.3312  0.4512  1.0000
  N   N24       1.0  0.98448  0.34928  0.37704  1.0000
  N   N25       1.0  0.0809699999999999  0.43800999999999995  0.41645999999999994  1.0000
  N   N26       1.0  0.26602999999999993  0.66594  0.5728  1.0000
  N   N27       1.0  0.36806999999999984  0.74859  0.6606199999999999  1.0000
  N   N28       1.0  0.3926499999999999  0.7225399999999998  0.7388599999999997  1.0000
  N   N29       1.0  0.3068599999999998  0.6222599999999998  0.70357  1.0000
  N   N30       1.0  0.96001  0.38904  0.66148  1.0000
  N   N31       1.0  0.9958699999999996  0.4166499999999999  0.7699299999999998  1.0000
  N   N32       1.0  0.10443999999999985  0.4713299999999998  0.8245099999999997  1.0000
  N   N33       1.0  0.14152999999999996  0.48001999999999995  0.75246  1.0000
  N   N34       1.0  0.6687899999999998  0.5488  0.03966  1.0000
  N   N35       1.0  0.6507199999999999  0.6229599999999997  0.01552  1.0000
  N   N36       1.0  0.56199  0.5835499999999999  0.9190299999999998  1.0000
  N   N37       1.0  0.3340599999999999  0.42719999999999997  0.7339699999999999  1.0000
  N   N38       1.0  0.25140999999999986  0.3393799999999999  0.6319299999999999  1.0000
  N   N39       1.0  0.27746  0.26114  0.60735  1.0000
  N   N40       1.0  0.37774  0.29644  0.69314  1.0000
  N   N41       1.0  0.61096  0.33852  0.03998999999999999  1.0000
  N   N42       1.0  0.58335  0.23006999999999994  0.00413  1.0000
  N   N43       1.0  0.52868  0.17549  0.89556  1.0000
  N   N44       1.0  0.5199799999999999  0.24754  0.8584699999999998  1.0000
  N   N45       1.0  0.5488  0.039659999999999994  0.66879  1.0000
  N   N46       1.0  0.62296  0.015520000000000016  0.65072  1.0000
  N   N47       1.0  0.58354  0.91903  0.56199  1.0000
  N   N48       1.0  0.4271999999999999  0.73398  0.33405999999999997  1.0000
  N   N49       1.0  0.33936999999999984  0.63194  0.25142  1.0000
  N   N50       1.0  0.26112999999999986  0.60735  0.27746  1.0000
  N   N51       1.0  0.2964299999999998  0.6931499999999998  0.3777399999999999  1.0000
  N   N52       1.0  0.33851999999999993  0.039989999999999935  0.6109599999999998  1.0000
  N   N53       1.0  0.23006999999999994  0.004129999999999936  0.5833399999999999  1.0000
  N   N54       1.0  0.17549  0.89555  0.52867  1.0000
  N   N55       1.0  0.2475399999999999  0.85847  0.51997  1.0000
  N   N56       1.0  0.03965999999999994  0.6687999999999998  0.5487999999999998  1.0000
  N   N57       1.0  0.015520000000000015  0.65072  0.62295  1.0000
  N   N58       1.0  0.91903  0.56199  0.58354  1.0000
  N   N59       1.0  0.7339699999999998  0.33405999999999997  0.42719999999999997  1.0000
  N   N60       1.0  0.63193  0.25141  0.33937  1.0000
  N   N61       1.0  0.6073399999999999  0.27746  0.26113  1.0000
  N   N62       1.0  0.6931399999999999  0.37774  0.29642999999999997  1.0000
  N   N63       1.0  0.03998999999999996  0.61096  0.33851999999999993  1.0000
  N   N64       1.0  0.004129999999999989  0.58335  0.23007  1.0000
  N   N65       1.0  0.89555  0.52867  0.17549  1.0000
  N   N66       1.0  0.85847  0.51998  0.24754  1.0000
