data_image0
_chemical_formula_structural       Cu4H40C40N4O16
_chemical_formula_sum              "Cu4 H40 C40 N4 O16"
_cell_length_a       8.56119
_cell_length_b       12.5212
_cell_length_c       12.52122
_cell_angle_alpha    64.14434999999999
_cell_angle_beta     80.77041
_cell_angle_gamma    80.77039

_symmetry_space_group_name_H-M    'P 1'
_symmetry_Int_Tables_number       1

loop_
  _symmetry_equiv_pos_as_xyz
  'x,y,z'

loop_
  _atom_site_type_symbol
  _atom_site_label
  _atom_site_symmetry_multiplicity
  _atom_site_fract_x
  _atom_site_fract_y
  _atom_site_fract_z
  _atom_site_occupancy
  Cu  Cu1       1.0  0.07424999999999995  0.40425000000000005  0.99239  1.0000
  Cu  Cu2       1.0  0.4257500000000001  0.007619999999999999  0.59576  1.0000
  Cu  Cu3       1.0  0.92575  0.59575  0.00761  1.0000
  Cu  Cu4       1.0  0.57425  0.99238  0.40425  1.0000
  H   H1        1.0  0.25728000000000006  0.7373699999999999  0.65724  1.0000
  H   H2        1.0  0.20413  0.6362099999999999  0.60838  1.0000
  H   H3        1.0  0.9344899999999999  0.75909  0.56816  1.0000
  H   H4        1.0  0.99059  0.8519399999999999  0.62515  1.0000
  H   H5        1.0  0.023490000000000028  0.94512  0.40477  1.0000
  H   H6        1.0  0.15307000000000004  0.82157  0.40043  1.0000
  H   H7        1.0  0.15843  0.14764  0.17049  1.0000
  H   H8        1.0  0.34803999999999996  0.97318  0.18634  1.0000
  H   H9        1.0  0.5041  0.16828999999999994  0.81106  1.0000
  H   H10       1.0  0.31038  0.33704000000000006  0.81499  1.0000
  H   H11       1.0  0.24272  0.34276  0.26263  1.0000
  H   H12       1.0  0.29586  0.39162  0.36379000000000006  1.0000
  H   H13       1.0  0.5655000000000001  0.43183999999999995  0.24091  1.0000
  H   H14       1.0  0.50941  0.37485  0.14806  1.0000
  H   H15       1.0  0.4765000000000001  0.59523  0.05488  1.0000
  H   H16       1.0  0.34691999999999995  0.59957  0.17843  1.0000
  H   H17       1.0  0.3415600000000001  0.82951  0.85236  1.0000
  H   H18       1.0  0.15196  0.8136599999999999  0.02682  1.0000
  H   H19       1.0  0.9959  0.18894999999999995  0.83172  1.0000
  H   H20       1.0  0.18961999999999998  0.18501  0.66296  1.0000
  H   H21       1.0  0.74272  0.26263  0.34276  1.0000
  H   H22       1.0  0.79586  0.36379  0.39162  1.0000
  H   H23       1.0  0.0655  0.24091  0.43184  1.0000
  H   H24       1.0  0.00941000000000001  0.14805999999999994  0.37485  1.0000
  H   H25       1.0  0.9765000000000001  0.05488000000000001  0.59523  1.0000
  H   H26       1.0  0.8469199999999999  0.17842999999999998  0.59957  1.0000
  H   H27       1.0  0.8415600000000001  0.85236  0.82951  1.0000
  H   H28       1.0  0.6519600000000001  0.026819999999999986  0.81366  1.0000
  H   H29       1.0  0.4959  0.83171  0.18894  1.0000
  H   H30       1.0  0.68962  0.66296  0.18501000000000004  1.0000
  H   H31       1.0  0.75728  0.65724  0.7373800000000001  1.0000
  H   H32       1.0  0.7041300000000001  0.60838  0.63621  1.0000
  H   H33       1.0  0.4344899999999999  0.56816  0.75909  1.0000
  H   H34       1.0  0.4905899999999999  0.6251500000000001  0.85194  1.0000
  H   H35       1.0  0.5234999999999999  0.40476999999999996  0.94512  1.0000
  H   H36       1.0  0.6530700000000002  0.40043  0.82157  1.0000
  H   H37       1.0  0.65843  0.17049000000000003  0.14764  1.0000
  H   H38       1.0  0.84804  0.18633999999999995  0.9731800000000002  1.0000
  H   H39       1.0  0.004099999999999952  0.8110500000000002  0.16829  1.0000
  H   H40       1.0  0.8103799999999999  0.81499  0.33704  1.0000
  C   C1        1.0  0.09372  0.62204  0.77901  1.0000
  C   C2        1.0  0.15640000000000004  0.6961599999999999  0.6513  1.0000
  C   C3        1.0  0.03655000000000003  0.7959799999999999  0.57769  1.0000
  C   C4        1.0  0.11275999999999999  0.8732600000000001  0.45325000000000004  1.0000
  C   C5        1.0  0.25339000000000006  0.92996  0.4594  1.0000
  C   C6        1.0  0.23692999999999997  0.14763  0.09295  1.0000
  C   C7        1.0  0.3432  0.04904999999999999  0.0999  1.0000
  C   C8        1.0  0.44333000000000017  0.051879999999999975  0.99836  1.0000
  C   C9        1.0  0.43131  0.15841  0.89375  1.0000
  C   C10       1.0  0.32219  0.25325  0.8943699999999999  1.0000
  C   C11       1.0  0.40627  0.22099999999999997  0.37796  1.0000
  C   C12       1.0  0.3436  0.3487  0.30384  1.0000
  C   C13       1.0  0.46345  0.42231  0.20402000000000003  1.0000
  C   C14       1.0  0.38723  0.54675  0.12674  1.0000
  C   C15       1.0  0.24661000000000002  0.5406  0.07004  1.0000
  C   C16       1.0  0.26306000000000007  0.90705  0.85237  1.0000
  C   C17       1.0  0.1568  0.9001  0.95095  1.0000
  C   C18       1.0  0.05667  0.0016399999999999325  0.9481200000000001  1.0000
  C   C19       1.0  0.06868  0.10624999999999997  0.84159  1.0000
  C   C20       1.0  0.17779999999999999  0.10563000000000003  0.74675  1.0000
  C   C21       1.0  0.9062800000000001  0.37796  0.221  1.0000
  C   C22       1.0  0.8435999999999999  0.30384  0.3487  1.0000
  C   C23       1.0  0.96345  0.20401999999999998  0.42231  1.0000
  C   C24       1.0  0.8872400000000001  0.12674000000000002  0.54675  1.0000
  C   C25       1.0  0.74661  0.07003999999999998  0.5406  1.0000
  C   C26       1.0  0.7630600000000001  0.8523599999999998  0.90706  1.0000
  C   C27       1.0  0.6568000000000002  0.9509499999999999  0.9001000000000001  1.0000
  C   C28       1.0  0.55667  0.9481200000000001  0.0016400000000000002  1.0000
  C   C29       1.0  0.5686800000000001  0.8415899999999998  0.10625  1.0000
  C   C30       1.0  0.6778  0.74675  0.10563000000000002  1.0000
  C   C31       1.0  0.59372  0.779  0.62204  1.0000
  C   C32       1.0  0.6564000000000001  0.6513000000000001  0.69616  1.0000
  C   C33       1.0  0.53655  0.57769  0.79598  1.0000
  C   C34       1.0  0.61276  0.45325  0.87326  1.0000
  C   C35       1.0  0.7533900000000001  0.4594000000000001  0.92997  1.0000
  C   C36       1.0  0.73693  0.09294999999999999  0.14763  1.0000
  C   C37       1.0  0.8432  0.09989999999999999  0.04905  1.0000
  C   C38       1.0  0.94333  0.99836  0.05188  1.0000
  C   C39       1.0  0.93131  0.89375  0.15841  1.0000
  C   C40       1.0  0.8221900000000001  0.89437  0.25325  1.0000
  N   N1        1.0  0.22467  0.24853999999999998  0.9918  1.0000
  N   N2        1.0  0.27532  0.008199999999999987  0.75146  1.0000
  N   N3        1.0  0.77532  0.75146  0.0082  1.0000
  N   N4        1.0  0.7246699999999999  0.9918  0.24854  1.0000
  O   O1        1.0  0.13375  0.5095200000000001  0.82087  1.0000
  O   O2        1.0  0.008069999999999987  0.67761  0.83599  1.0000
  O   O3        1.0  0.24277999999999997  0.9606700000000001  0.54498  1.0000
  O   O4        1.0  0.3723000000000001  0.9410999999999999  0.38064  1.0000
  O   O5        1.0  0.36624000000000007  0.17913  0.49048  1.0000
  O   O6        1.0  0.49192  0.16400999999999996  0.32239  1.0000
  O   O7        1.0  0.25722  0.45502  0.03933  1.0000
  O   O8        1.0  0.12769000000000003  0.61936  0.05890000000000001  1.0000
  O   O9        1.0  0.8662399999999999  0.49047  0.17913000000000004  1.0000
  O   O10       1.0  0.9919200000000001  0.32239000000000007  0.16401  1.0000
  O   O11       1.0  0.75722  0.03932999999999995  0.45502000000000004  1.0000
  O   O12       1.0  0.6277  0.058899999999999994  0.61936  1.0000
  O   O13       1.0  0.6337499999999999  0.82087  0.50953  1.0000
  O   O14       1.0  0.50807  0.83599  0.67761  1.0000
  O   O15       1.0  0.7427800000000001  0.54498  0.96067  1.0000
  O   O16       1.0  0.8723  0.38064  0.9411  1.0000
