data_image0
_chemical_formula_structural       Co8H40C60N12O28
_chemical_formula_sum              "Co8 H40 C60 N12 O28"
_cell_length_a       10.25014
_cell_length_b       10.495600000000001
_cell_length_c       20.77625
_cell_angle_alpha    89.98994999999998
_cell_angle_beta     90.07686
_cell_angle_gamma    102.82871

_space_group_name_H-M_alt    "P 1"
_space_group_IT_number       1

loop_
  _space_group_symop_operation_xyz
  'x, y, z'

loop_
  _atom_site_type_symbol
  _atom_site_label
  _atom_site_symmetry_multiplicity
  _atom_site_fract_x
  _atom_site_fract_y
  _atom_site_fract_z
  _atom_site_occupancy
  Co  Co1       1.0  0.06848  0.45088  0.55318  1.0000
  Co  Co2       1.0  0.91446  0.63494  0.61477  1.0000
  Co  Co3       1.0  0.4315  0.04913  0.05365  1.0000
  Co  Co4       1.0  0.58532  0.86555  0.11538  1.0000
  Co  Co5       1.0  0.9315199999999999  0.54915  0.44682999999999995  1.0000
  Co  Co6       1.0  0.08551  0.36509  0.3852499999999999  1.0000
  Co  Co7       1.0  0.56852  0.9510100000000001  0.9464599999999999  1.0000
  Co  Co8       1.0  0.4146699999999999  0.13445  0.88466  1.0000
  H   H1        1.0  0.80591  0.44201  0.54601  1.0000
  H   H2        1.0  0.62862  0.9558700000000001  0.40441  1.0000
  H   H3        1.0  0.59148  0.9888  0.61028  1.0000
  H   H4        1.0  0.77726  0.9069400000000002  0.56566  1.0000
  H   H5        1.0  0.7814899999999999  0.8692500000000001  0.48278  1.0000
  H   H6        1.0  0.88321  0.15632  0.6005  1.0000
  H   H7        1.0  0.91183  0.05492  0.40445  1.0000
  H   H8        1.0  0.17671  0.33772  0.74625  1.0000
  H   H9        1.0  0.9534499999999999  0.13214  0.9046  1.0000
  H   H10       1.0  0.75435  0.32284  0.76363  1.0000
  H   H11       1.0  0.69442  0.0577  0.04638  1.0000
  H   H12       1.0  0.87092  0.54384  0.90433  1.0000
  H   H13       1.0  0.90884  0.51098  0.11023000000000001  1.0000
  H   H14       1.0  0.72262  0.59232  0.06559  1.0000
  H   H15       1.0  0.71811  0.63041  0.98273  1.0000
  H   H16       1.0  0.61595  0.34323  0.10023999999999998  1.0000
  H   H17       1.0  0.58891  0.44424  0.9039500000000001  1.0000
  H   H18       1.0  0.32413  0.16205  0.24628  1.0000
  H   H19       1.0  0.54534  0.36691  0.4056  1.0000
  H   H20       1.0  0.74663  0.17846000000000004  0.26481  1.0000
  H   H21       1.0  0.19409  0.55804  0.454  1.0000
  H   H22       1.0  0.37138  0.04412  0.59559  1.0000
  H   H23       1.0  0.40852  0.01118  0.38971999999999996  1.0000
  H   H24       1.0  0.22275  0.09308000000000001  0.43434  1.0000
  H   H25       1.0  0.21852  0.13078  0.51722  1.0000
  H   H26       1.0  0.11675  0.8437200000000001  0.3995  1.0000
  H   H27       1.0  0.08819000000000003  0.9450600000000001  0.59557  1.0000
  H   H28       1.0  0.8232699999999998  0.66226  0.25374  1.0000
  H   H29       1.0  0.046569999999999986  0.8678500000000001  0.0954  1.0000
  H   H30       1.0  0.24562  0.67712  0.23639  1.0000
  H   H31       1.0  0.3055300000000001  0.9424000000000001  0.9538  1.0000
  H   H32       1.0  0.12908  0.45615  0.09567  1.0000
  H   H33       1.0  0.09116000000000003  0.48901000000000006  0.8897699999999998  1.0000
  H   H34       1.0  0.27742  0.40773  0.93441  1.0000
  H   H35       1.0  0.28192  0.36962  0.01727  1.0000
  H   H36       1.0  0.38403  0.65693  0.8998  1.0000
  H   H37       1.0  0.41113999999999995  0.5556800000000001  0.09606  1.0000
  H   H38       1.0  0.67589  0.8378400000000001  0.75378  1.0000
  H   H39       1.0  0.45465  0.63311  0.59443  1.0000
  H   H40       1.0  0.25341  0.82157  0.73526  1.0000
  C   C1        1.0  0.62487  0.96886  0.50838  1.0000
  C   C2        1.0  0.5725  0.9748500000000001  0.44645  1.0000
  C   C3        1.0  0.55198  0.9944200000000001  0.56196  1.0000
  C   C4        1.0  0.76237  0.94222  0.51711  1.0000
  C   C5        1.0  0.91162  0.15978  0.55027  1.0000
  C   C6        1.0  0.92706  0.10714000000000001  0.44968  1.0000
  C   C7        1.0  0.96544  0.33770000000000006  0.74827  1.0000
  C   C8        1.0  0.08279000000000002  0.30673  0.7720600000000001  1.0000
  C   C9        1.0  0.07916  0.23488000000000003  0.82912  1.0000
  C   C10       1.0  0.95733  0.19114  0.86136  1.0000
  C   C11       1.0  0.84021  0.22295  0.8379200000000001  1.0000
  C   C12       1.0  0.84512  0.29823  0.7819300000000001  1.0000
  C   C13       1.0  0.96649  0.40896  0.68595  1.0000
  C   C14       1.0  0.20336999999999997  0.20107  0.8546499999999999  1.0000
  C   C15       1.0  0.7094899999999997  0.17141  0.87056  1.0000
  C   C16       1.0  0.875  0.53087  0.00831  1.0000
  C   C17       1.0  0.92722  0.52497  0.9464  1.0000
  C   C18       1.0  0.9481900000000001  0.50547  0.06192  1.0000
  C   C19       1.0  0.73742  0.55733  0.01699  1.0000
  C   C20       1.0  0.58808  0.33978  0.0499  1.0000
  C   C21       1.0  0.57343  0.39212  0.9491999999999999  1.0000
  C   C22       1.0  0.53547  0.16307  0.24889  1.0000
  C   C23       1.0  0.41777  0.19353  0.27241  1.0000
  C   C24       1.0  0.4208  0.2649  0.32956  1.0000
  C   C25       1.0  0.54228  0.30842  0.36225  1.0000
  C   C26       1.0  0.65969  0.27691  0.33923  1.0000
  C   C27       1.0  0.65555  0.20253000000000002  0.28294  1.0000
  C   C28       1.0  0.53436  0.09201  0.18647  1.0000
  C   C29       1.0  0.29665999999999987  0.29856  0.35508  1.0000
  C   C30       1.0  0.78969  0.32815  0.37273  1.0000
  C   C31       1.0  0.37512  0.03113  0.49162  1.0000
  C   C32       1.0  0.42749999999999994  0.02514  0.55356  1.0000
  C   C33       1.0  0.44802  0.00557  0.43804  1.0000
  C   C34       1.0  0.23763  0.0578  0.48289000000000004  1.0000
  C   C35       1.0  0.08836000000000002  0.8402500000000002  0.4497399999999999  1.0000
  C   C36       1.0  0.07296000000000001  0.8928600000000001  0.55033  1.0000
  C   C37       1.0  0.034530000000000005  0.66229  0.25173  1.0000
  C   C38       1.0  0.9171900000000001  0.69324  0.22792999999999997  1.0000
  C   C39       1.0  0.9208299999999999  0.76509  0.17087  1.0000
  C   C40       1.0  0.04268000000000002  0.80884  0.13864  1.0000
  C   C41       1.0  0.15979  0.77702  0.16209  1.0000
  C   C42       1.0  0.15486  0.70174  0.21808  1.0000
  C   C43       1.0  0.03350000000000001  0.59104  0.31406  1.0000
  C   C44       1.0  0.79664  0.7989  0.14534  1.0000
  C   C45       1.0  0.29052  0.82858  0.12947  1.0000
  C   C46       1.0  0.12502  0.4691600000000001  0.99169  1.0000
  C   C47       1.0  0.07279000000000001  0.47503000000000006  0.05358999999999999  1.0000
  C   C48       1.0  0.051809999999999974  0.49453  0.93807  1.0000
  C   C49       1.0  0.26261000000000007  0.44271000000000005  0.9830099999999999  1.0000
  C   C50       1.0  0.41187999999999997  0.6603400000000001  0.95014  1.0000
  C   C51       1.0  0.42659  0.60787  0.05083  1.0000
  C   C52       1.0  0.46453999999999995  0.8368600000000002  0.7512  1.0000
  C   C53       1.0  0.58224  0.8064600000000001  0.72765  1.0000
  C   C54       1.0  0.57921  0.73515  0.67049  1.0000
  C   C55       1.0  0.45775  0.69162  0.63778  1.0000
  C   C56       1.0  0.34032  0.72308  0.66082  1.0000
  C   C57       1.0  0.34446  0.7974100000000001  0.71713  1.0000
  C   C58       1.0  0.46568  0.90795  0.81362  1.0000
  C   C59       1.0  0.70339  0.70153  0.645  1.0000
  C   C60       1.0  0.21030999999999997  0.67185  0.6273  1.0000
  N   N1        1.0  0.9955000000000003  0.25792  0.52177  1.0000
  N   N2        1.0  0.006050000000000005  0.22415000000000002  0.45803  1.0000
  N   N3        1.0  0.86662  0.06281  0.50652  1.0000
  N   N4        1.0  0.5047  0.24140000000000003  0.02124  1.0000
  N   N5        1.0  0.4946999999999999  0.27494  0.9573899999999999  1.0000
  N   N6        1.0  0.63324  0.43672000000000005  0.00621  1.0000
  N   N7        1.0  0.004499999999999992  0.74209  0.47823999999999994  1.0000
  N   N8        1.0  0.9939499999999999  0.77586  0.54197  1.0000
  N   N9        1.0  0.13337000000000002  0.93721  0.49349  1.0000
  N   N10       1.0  0.49525  0.75869  0.9788299999999999  1.0000
  N   N11       1.0  0.50526  0.7250900000000001  0.04266  1.0000
  N   N12       1.0  0.36678  0.56333  0.9938  1.0000
  O   O1        1.0  0.051750000000000004  0.38844000000000006  0.6439  1.0000
  O   O2        1.0  0.88305  0.48107000000000005  0.67875  1.0000
  O   O3        1.0  0.3191  0.26915  0.83781  1.0000
  O   O4        1.0  0.195  0.10518  0.89293  1.0000
  O   O5        1.0  0.71213  0.10623000000000002  0.9227  1.0000
  O   O6        1.0  0.6039  0.19382  0.8447700000000001  1.0000
  O   O7        1.0  0.8897699999999998  0.50561  0.53977  1.0000
  O   O8        1.0  0.44858  0.11227000000000001  0.14453  1.0000
  O   O9        1.0  0.61769  0.01993  0.17901  1.0000
  O   O10       1.0  0.18077  0.2312  0.33784  1.0000
  O   O11       1.0  0.3054  0.39394  0.39372  1.0000
  O   O12       1.0  0.7866000000000001  0.39288  0.4249899999999999  1.0000
  O   O13       1.0  0.89563  0.30611  0.34732  1.0000
  O   O14       1.0  0.61039  0.9945  0.03973  1.0000
  O   O15       1.0  0.9482399999999999  0.61156  0.3561  1.0000
  O   O16       1.0  0.11696  0.51894  0.32126  1.0000
  O   O17       1.0  0.68088  0.73083  0.16218  1.0000
  O   O18       1.0  0.80501  0.89481  0.10707999999999998  1.0000
  O   O19       1.0  0.2879  0.8938  0.07733  1.0000
  O   O20       1.0  0.3961  0.8061900000000001  0.15527  1.0000
  O   O21       1.0  0.11024  0.49442  0.46024  1.0000
  O   O22       1.0  0.55134  0.8877100000000002  0.85564  1.0000
  O   O23       1.0  0.38236000000000003  0.9800700000000001  0.8210099999999999  1.0000
  O   O24       1.0  0.8193099999999999  0.76893  0.66218  1.0000
  O   O25       1.0  0.6945900000000002  0.6060300000000001  0.60645  1.0000
  O   O26       1.0  0.21338  0.6071300000000001  0.57503  1.0000
  O   O27       1.0  0.10436000000000001  0.6939  0.6527  1.0000
  O   O28       1.0  0.38961999999999997  0.005550000000000001  0.9603699999999998  1.0000
