data_image0
_chemical_formula_structural       Zn4H32C52N20O16
_chemical_formula_sum              "Zn4 H32 C52 N20 O16"
_cell_length_a       9.77681
_cell_length_b       10.253840000000002
_cell_length_c       19.94053
_cell_angle_alpha    91.98078
_cell_angle_beta     89.92955
_cell_angle_gamma    90.1407

_space_group_name_H-M_alt    "P 1"
_space_group_IT_number       1

loop_
  _space_group_symop_operation_xyz
  'x, y, z'

loop_
  _atom_site_type_symbol
  _atom_site_label
  _atom_site_symmetry_multiplicity
  _atom_site_fract_x
  _atom_site_fract_y
  _atom_site_fract_z
  _atom_site_occupancy
  Zn  Zn1       1.0  0.25722  0.008930000000000002  0.65805  1.0000
  Zn  Zn2       1.0  0.75712  0.99087  0.84342  1.0000
  Zn  Zn3       1.0  0.74279  0.99107  0.34195  1.0000
  Zn  Zn4       1.0  0.24288999999999997  0.00913  0.15658  1.0000
  H   H1        1.0  0.45752000000000004  0.20216  0.7187  1.0000
  H   H2        1.0  0.58854  0.19716000000000003  0.78228  1.0000
  H   H3        1.0  0.35342  0.43022  0.61312  1.0000
  H   H4        1.0  0.11038000000000002  0.35162  0.6018  1.0000
  H   H5        1.0  0.13845  0.59487  0.6135  1.0000
  H   H6        1.0  0.96731  0.8436600000000001  0.46651999999999993  1.0000
  H   H7        1.0  0.38642  0.67088  0.5976  1.0000
  H   H8        1.0  0.51986  0.14993  0.4701  1.0000
  H   H9        1.0  0.9558  0.7971000000000001  0.78142  1.0000
  H   H10       1.0  0.08737  0.8030600000000001  0.71791  1.0000
  H   H11       1.0  0.8528100000000001  0.57027  0.88744  1.0000
  H   H12       1.0  0.61099  0.64808  0.8977499999999999  1.0000
  H   H13       1.0  0.63849  0.40479000000000004  0.8866000000000002  1.0000
  H   H14       1.0  0.46673  0.15646  0.03412  1.0000
  H   H15       1.0  0.8859299999999999  0.3296200000000001  0.90225  1.0000
  H   H16       1.0  0.02014  0.8499600000000002  0.03067  1.0000
  H   H17       1.0  0.54248  0.7978400000000001  0.2813  1.0000
  H   H18       1.0  0.41146999999999995  0.8028400000000002  0.21772  1.0000
  H   H19       1.0  0.64659  0.5697800000000002  0.38688  1.0000
  H   H20       1.0  0.88963  0.64837  0.3982  1.0000
  H   H21       1.0  0.8615600000000001  0.40513000000000005  0.3865  1.0000
  H   H22       1.0  0.0327  0.15633000000000002  0.53347  1.0000
  H   H23       1.0  0.61359  0.32911  0.4023900000000001  1.0000
  H   H24       1.0  0.48014  0.85007  0.52989  1.0000
  H   H25       1.0  0.0442  0.20290000000000002  0.21857999999999997  1.0000
  H   H26       1.0  0.91264  0.19694000000000003  0.28209  1.0000
  H   H27       1.0  0.1472  0.42973  0.11255999999999998  1.0000
  H   H28       1.0  0.38902  0.35192000000000007  0.10224000000000001  1.0000
  H   H29       1.0  0.36152  0.59521  0.1134  1.0000
  H   H30       1.0  0.53328  0.8435400000000002  0.96587  1.0000
  H   H31       1.0  0.11408  0.67037  0.09775  1.0000
  H   H32       1.0  0.97986  0.15004  0.96932  1.0000
  C   C1        1.0  0.46233  0.51506  0.53021  1.0000
  C   C2        1.0  0.03579  0.49187  0.53098  1.0000
  C   C3        1.0  0.4312000000000001  0.28115  0.54538  1.0000
  C   C4        1.0  0.41031000000000006  0.41091  0.56695  1.0000
  C   C5        1.0  0.057019999999999994  0.72931  0.54387  1.0000
  C   C6        1.0  0.05909999999999999  0.36398  0.55389  1.0000
  C   C7        1.0  0.08211  0.60444  0.56693  1.0000
  C   C8        1.0  0.5143  0.02138000000000001  0.74805  1.0000
  C   C9        1.0  0.98518  0.74529  0.48345  1.0000
  C   C10       1.0  0.44225  0.64769  0.55134  1.0000
  C   C11       1.0  0.37308  0.17545  0.58641  1.0000
  C   C12       1.0  0.10845  0.84625  0.58327  1.0000
  C   C13       1.0  0.50501  0.25166  0.48596  1.0000
  C   C14       1.0  0.9621700000000001  0.48510000000000003  0.96984  1.0000
  C   C15       1.0  0.53579  0.50807  0.96896  1.0000
  C   C16       1.0  0.93059  0.7190200000000001  0.9555600000000001  1.0000
  C   C17       1.0  0.90968  0.58938  0.93361  1.0000
  C   C18       1.0  0.55664  0.27084  0.9566799999999999  1.0000
  C   C19       1.0  0.55956  0.6357800000000001  0.9457  1.0000
  C   C20       1.0  0.58196  0.39548  0.9332  1.0000
  C   C21       1.0  0.013359999999999995  0.97826  0.75262  1.0000
  C   C22       1.0  0.48462000000000005  0.25491  0.01714  1.0000
  C   C23       1.0  0.94224  0.35261  0.94834  1.0000
  C   C24       1.0  0.87296  0.8250600000000002  0.9148799999999999  1.0000
  C   C25       1.0  0.60856  0.1539  0.91774  1.0000
  C   C26       1.0  0.00479  0.74822  0.014829999999999998  1.0000
  C   C27       1.0  0.53768  0.4849300000000001  0.46978999999999993  1.0000
  C   C28       1.0  0.96422  0.5081299999999999  0.46901999999999994  1.0000
  C   C29       1.0  0.56881  0.71885  0.4546200000000001  1.0000
  C   C30       1.0  0.5897  0.58909  0.43305  1.0000
  C   C31       1.0  0.94299  0.27068  0.4561200000000001  1.0000
  C   C32       1.0  0.94091  0.6360200000000001  0.44611000000000006  1.0000
  C   C33       1.0  0.9178900000000001  0.3955600000000001  0.43306999999999995  1.0000
  C   C34       1.0  0.48571  0.97862  0.25195  1.0000
  C   C35       1.0  0.014819999999999998  0.25471  0.51655  1.0000
  C   C36       1.0  0.55775  0.35231  0.44865999999999995  1.0000
  C   C37       1.0  0.62693  0.82455  0.41358  1.0000
  C   C38       1.0  0.89156  0.15375  0.41673  1.0000
  C   C39       1.0  0.495  0.74834  0.51404  1.0000
  C   C40       1.0  0.03784  0.5149  0.03015  1.0000
  C   C41       1.0  0.46422  0.4919200000000001  0.03104  1.0000
  C   C42       1.0  0.06942  0.28098  0.04443  1.0000
  C   C43       1.0  0.09033  0.4106200000000001  0.06639  1.0000
  C   C44       1.0  0.44336  0.72916  0.04332  1.0000
  C   C45       1.0  0.44045  0.36422  0.0543  1.0000
  C   C46       1.0  0.41805  0.60452  0.06679  1.0000
  C   C47       1.0  0.98665  0.02174  0.24738  1.0000
  C   C48       1.0  0.51539  0.74509  0.98285  1.0000
  C   C49       1.0  0.05777  0.64738  0.05165999999999999  1.0000
  C   C50       1.0  0.12705  0.17493  0.08512  1.0000
  C   C51       1.0  0.39145  0.8461  0.08226  1.0000
  C   C52       1.0  0.99522  0.25177  0.9851700000000001  1.0000
  N   N1        1.0  0.44588  0.8227000000000001  0.72694  1.0000
  N   N2        1.0  0.41914  0.9487900000000001  0.71414  1.0000
  N   N3        1.0  0.52349  0.15208000000000002  0.74851  1.0000
  N   N4        1.0  0.59882  0.94014  0.78091  1.0000
  N   N5        1.0  0.55389  0.81761  0.76686  1.0000
  N   N6        1.0  0.94533  0.17678  0.77377  1.0000
  N   N7        1.0  0.9181400000000001  0.050600000000000006  0.78646  1.0000
  N   N8        1.0  0.02218  0.8475800000000001  0.75182  1.0000
  N   N9        1.0  0.09853  0.059820000000000005  0.72002  1.0000
  N   N10       1.0  0.05378  0.18221000000000007  0.73401  1.0000
  N   N11       1.0  0.55413  0.1773  0.27306  1.0000
  N   N12       1.0  0.58086  0.05120000000000001  0.28586  1.0000
  N   N13       1.0  0.47652000000000005  0.84792  0.25149  1.0000
  N   N14       1.0  0.40119  0.059860000000000003  0.21907999999999997  1.0000
  N   N15       1.0  0.44612000000000007  0.18239  0.23312999999999998  1.0000
  N   N16       1.0  0.05467000000000001  0.82322  0.22622999999999996  1.0000
  N   N17       1.0  0.08187  0.9494  0.21353999999999998  1.0000
  N   N18       1.0  0.97782  0.15242  0.24817999999999998  1.0000
  N   N19       1.0  0.9014700000000001  0.94018  0.27998  1.0000
  N   N20       1.0  0.94623  0.81779  0.26599  1.0000
  O   O1        1.0  0.36624  0.05914  0.56335  1.0000
  O   O2        1.0  0.32735  0.20731000000000002  0.64568  1.0000
  O   O3        1.0  0.07373  0.95908  0.56881  1.0000
  O   O4        1.0  0.19169  0.82329  0.63263  1.0000
  O   O5        1.0  0.86645  0.94113  0.9382  1.0000
  O   O6        1.0  0.8272  0.79331  0.8556100000000001  1.0000
  O   O7        1.0  0.57341  0.04106  0.9324199999999999  1.0000
  O   O8        1.0  0.6927  0.17639000000000002  0.8686300000000001  1.0000
  O   O9        1.0  0.63376  0.94086  0.4366399999999999  1.0000
  O   O10       1.0  0.67266  0.7926900000000001  0.35432  1.0000
  O   O11       1.0  0.92628  0.04092  0.43118  1.0000
  O   O12       1.0  0.80832  0.17670000000000002  0.36737  1.0000
  O   O13       1.0  0.13356  0.058870000000000006  0.061799999999999994  1.0000
  O   O14       1.0  0.17281  0.20669  0.14438  1.0000
  O   O15       1.0  0.4266  0.9589400000000001  0.06758  1.0000
  O   O16       1.0  0.30731  0.8236100000000001  0.13137  1.0000
