data_image0
_chemical_formula_structural       Gd4P4H28C32N4O32
_chemical_formula_sum              "Gd4 P4 H28 C32 N4 O32"
_cell_length_a       9.75341
_cell_length_b       10.45192
_cell_length_c       15.54957
_cell_angle_alpha    90.12332
_cell_angle_beta     98.54184
_cell_angle_gamma    90.0067

_space_group_name_H-M_alt    "P 1"
_space_group_IT_number       1

loop_
  _space_group_symop_operation_xyz
  'x, y, z'

loop_
  _atom_site_type_symbol
  _atom_site_label
  _atom_site_symmetry_multiplicity
  _atom_site_fract_x
  _atom_site_fract_y
  _atom_site_fract_z
  _atom_site_occupancy
  Gd  Gd1       1.0  0.23183999999999996  0.10752  0.3992099999999999  1.0000
  Gd  Gd2       1.0  0.26845  0.60723  0.10101999999999997  1.0000
  Gd  Gd3       1.0  0.76815  0.8924700000000001  0.60079  1.0000
  Gd  Gd4       1.0  0.73155  0.39277  0.8989799999999998  1.0000
  P   P1        1.0  0.17512000000000003  0.8594399999999999  0.22894  1.0000
  P   P2        1.0  0.32393  0.35911  0.27008  1.0000
  P   P3        1.0  0.82488  0.14056  0.77106  1.0000
  P   P4        1.0  0.6760599999999999  0.64089  0.72992  1.0000
  H   H1        1.0  0.33130999999999994  0.87726  0.9193599999999997  1.0000
  H   H2        1.0  0.40079999999999993  0.11167999999999997  0.9207899999999998  1.0000
  H   H3        1.0  0.30158  0.2608  0.023319999999999994  1.0000
  H   H4        1.0  0.14466  0.17039  0.12135999999999997  1.0000
  H   H5        1.0  0.0059299999999999934  0.83817  0.10066999999999997  1.0000
  H   H6        1.0  0.9940899999999996  0.99005  0.15307999999999994  1.0000
  H   H7        1.0  0.04876999999999998  0.8308  0.3296699999999999  1.0000
  H   H8        1.0  0.16648000000000002  0.37887  0.57937  1.0000
  H   H9        1.0  0.09952999999999997  0.61368  0.5791799999999999  1.0000
  H   H10       1.0  0.20069999999999993  0.76266  0.4777599999999999  1.0000
  H   H11       1.0  0.35572  0.67146  0.3786699999999999  1.0000
  H   H12       1.0  0.49248  0.33867  0.39915  1.0000
  H   H13       1.0  0.50502  0.49007  0.3465  1.0000
  H   H14       1.0  0.45347999999999994  0.33304  0.17079999999999995  1.0000
  H   H15       1.0  0.66868  0.12274  0.08064  1.0000
  H   H16       1.0  0.5992  0.88832  0.07920999999999997  1.0000
  H   H17       1.0  0.69842  0.73919  0.9766799999999998  1.0000
  H   H18       1.0  0.85533  0.8296099999999998  0.8786499999999998  1.0000
  H   H19       1.0  0.9940599999999999  0.16183  0.89933  1.0000
  H   H20       1.0  0.005899999999999946  0.00995  0.8469199999999998  1.0000
  H   H21       1.0  0.95123  0.1692  0.67033  1.0000
  H   H22       1.0  0.8335200000000001  0.62113  0.42063  1.0000
  H   H23       1.0  0.9004700000000001  0.38632  0.4208199999999999  1.0000
  H   H24       1.0  0.7993  0.23734000000000002  0.52225  1.0000
  H   H25       1.0  0.64428  0.32854  0.62133  1.0000
  H   H26       1.0  0.50752  0.66133  0.60086  1.0000
  H   H27       1.0  0.49498  0.50992  0.6535  1.0000
  H   H28       1.0  0.54652  0.66696  0.8291999999999998  1.0000
  C   C1        1.0  0.29367999999999994  0.94925  0.9605599999999997  1.0000
  C   C2        1.0  0.32932999999999996  0.0775  0.9630999999999997  1.0000
  C   C3        1.0  0.27534  0.1598  0.020569999999999995  1.0000
  C   C4        1.0  0.18675  0.10995  0.07450999999999998  1.0000
  C   C5        1.0  0.15183  0.9805399999999999  0.07179999999999997  1.0000
  C   C6        1.0  0.06523  0.9196999999999999  0.1314  1.0000
  C   C7        1.0  0.54221  0.03542  0.4686  1.0000
  C   C8        1.0  0.005599999999999997  0.06239  0.52681  1.0000
  C   C9        1.0  0.20511999999999997  0.45056000000000007  0.5385399999999998  1.0000
  C   C10       1.0  0.17058999999999994  0.57909  0.5366399999999998  1.0000
  C   C11       1.0  0.22538999999999998  0.66133  0.4796799999999999  1.0000
  C   C12       1.0  0.31309999999999993  0.6111  0.4251899999999999  1.0000
  C   C13       1.0  0.34698  0.48151999999999995  0.42731999999999987  1.0000
  C   C14       1.0  0.43361  0.41992999999999997  0.36794  1.0000
  C   C15       1.0  0.9579300000000001  0.53679  0.031039999999999995  1.0000
  C   C16       1.0  0.49176  0.56072  0.9717399999999998  1.0000
  C   C17       1.0  0.70632  0.05075  0.03943999999999999  1.0000
  C   C18       1.0  0.67067  0.92249  0.0369  1.0000
  C   C19       1.0  0.72466  0.8401999999999998  0.9794299999999998  1.0000
  C   C20       1.0  0.81324  0.89005  0.92549  1.0000
  C   C21       1.0  0.84817  0.01946  0.9281999999999998  1.0000
  C   C22       1.0  0.93476  0.0803  0.8685999999999998  1.0000
  C   C23       1.0  0.45777  0.96459  0.53138  1.0000
  C   C24       1.0  0.9944000000000001  0.9376199999999999  0.4731799999999999  1.0000
  C   C25       1.0  0.79487  0.54944  0.46145999999999987  1.0000
  C   C26       1.0  0.8294099999999999  0.42091  0.4633599999999999  1.0000
  C   C27       1.0  0.7746  0.33867  0.52033  1.0000
  C   C28       1.0  0.6869  0.38889999999999997  0.57481  1.0000
  C   C29       1.0  0.65302  0.51848  0.5726899999999998  1.0000
  C   C30       1.0  0.56638  0.58007  0.63206  1.0000
  C   C31       1.0  0.04206999999999996  0.46320999999999996  0.9689599999999998  1.0000
  C   C32       1.0  0.50824  0.43928  0.028259999999999993  1.0000
  N   N1        1.0  0.207  0.90198  0.014319999999999996  1.0000
  N   N2        1.0  0.29186  0.4032  0.4846899999999999  1.0000
  N   N3        1.0  0.793  0.09801999999999998  0.9856799999999998  1.0000
  N   N4        1.0  0.70814  0.5968  0.51531  1.0000
  O   O1        1.0  0.23593000000000003  0.97369  0.2823  1.0000
  O   O2        1.0  0.07109  0.7798799999999999  0.27828  1.0000
  O   O3        1.0  0.28238  0.76876  0.1998  1.0000
  O   O4        1.0  0.17366  0.77922  0.00907  1.0000
  O   O5        1.0  0.67344  0.02607  0.48504999999999987  1.0000
  O   O6        1.0  0.4742199999999999  0.09685999999999999  0.4066599999999999  1.0000
  O   O7        1.0  0.06523999999999998  0.15661  0.4981899999999999  1.0000
  O   O8        1.0  0.9511000000000001  0.058249999999999996  0.5965199999999998  1.0000
  O   O9        1.0  0.26379  0.47351000000000004  0.21694999999999995  1.0000
  O   O10       1.0  0.42722999999999994  0.27988  0.22000999999999996  1.0000
  O   O11       1.0  0.21724  0.26751  0.2986299999999999  1.0000
  O   O12       1.0  0.32596  0.28059  0.48946  1.0000
  O   O13       1.0  0.82656  0.53165  0.012719999999999997  1.0000
  O   O14       1.0  0.02621  0.596  0.09425  1.0000
  O   O15       1.0  0.43189000000000005  0.65584  0.9993599999999999  1.0000
  O   O16       1.0  0.5426  0.55287  0.9007899999999998  1.0000
  O   O17       1.0  0.76406  0.026319999999999996  0.71769  1.0000
  O   O18       1.0  0.92891  0.22012  0.72172  1.0000
  O   O19       1.0  0.71762  0.23123999999999997  0.8002  1.0000
  O   O20       1.0  0.82633  0.22078  0.9909299999999998  1.0000
  O   O21       1.0  0.32657  0.9739299999999999  0.51495  1.0000
  O   O22       1.0  0.52579  0.90313  0.59335  1.0000
  O   O23       1.0  0.9347300000000001  0.84337  0.5018099999999998  1.0000
  O   O24       1.0  0.04887999999999998  0.9417399999999999  0.4034999999999999  1.0000
  O   O25       1.0  0.7361999999999999  0.52649  0.7830499999999998  1.0000
  O   O26       1.0  0.57277  0.72012  0.7799899999999997  1.0000
  O   O27       1.0  0.7827599999999999  0.73249  0.7013699999999998  1.0000
  O   O28       1.0  0.6740299999999999  0.71941  0.5105399999999998  1.0000
  O   O29       1.0  0.17344  0.46835  0.98728  1.0000
  O   O30       1.0  0.9737900000000002  0.40399  0.90574  1.0000
  O   O31       1.0  0.5681  0.34416  0.0006399999999999998  1.0000
  O   O32       1.0  0.45739  0.44713  0.09920999999999998  1.0000
