data_image0
_chemical_formula_structural       La4Cu4P4H24C24N4O36
_chemical_formula_sum              "La4 Cu4 P4 H24 C24 N4 O36"
_cell_length_a       8.68731
_cell_length_b       9.32822
_cell_length_c       20.08645
_cell_angle_alpha    89.96258
_cell_angle_beta     89.89241
_cell_angle_gamma    111.82110000000002

_space_group_name_H-M_alt    "P 1"
_space_group_IT_number       1

loop_
  _space_group_symop_operation_xyz
  'x, y, z'

loop_
  _atom_site_type_symbol
  _atom_site_label
  _atom_site_symmetry_multiplicity
  _atom_site_fract_x
  _atom_site_fract_y
  _atom_site_fract_z
  _atom_site_occupancy
  La  La1       1.0  0.39862999999999993  0.4187399999999999  0.6530800000000001  1.0000
  La  La2       1.0  0.60326  0.08148  0.1529  1.0000
  La  La3       1.0  0.6013599999999999  0.5812699999999998  0.34692  1.0000
  La  La4       1.0  0.39673  0.91853  0.8471  1.0000
  Cu  Cu1       1.0  0.06380999999999998  0.9352299999999999  0.7091100000000001  1.0000
  Cu  Cu2       1.0  0.9364299999999999  0.56559  0.2094  1.0000
  Cu  Cu3       1.0  0.93619  0.06478  0.29089  1.0000
  Cu  Cu4       1.0  0.06357  0.43441  0.7906  1.0000
  P   P1        1.0  0.22763  0.69508  0.69301  1.0000
  P   P2        1.0  0.77262  0.80579  0.19328  1.0000
  P   P3        1.0  0.7723700000000001  0.30493  0.30699  1.0000
  P   P4        1.0  0.22738  0.19421999999999995  0.80672  1.0000
  H   H1        1.0  0.7861  0.71879  0.58967  1.0000
  H   H2        1.0  0.87762  0.58189  0.60363  1.0000
  H   H3        1.0  0.08338999999999992  0.8990399999999997  0.52032  1.0000
  H   H4        1.0  0.9281099999999999  0.94368  0.56258  1.0000
  H   H5        1.0  0.15203  0.67485  0.5751  1.0000
  H   H6        1.0  0.28836  0.86258  0.59914  1.0000
  H   H7        1.0  0.21246999999999996  0.77967  0.08869  1.0000
  H   H8        1.0  0.1214999999999999  0.9174599999999998  0.10204  1.0000
  H   H9        1.0  0.9158800000000001  0.59969  0.02038  1.0000
  H   H10       1.0  0.07066999999999998  0.55491  0.06275  1.0000
  H   H11       1.0  0.8453  0.82335  0.0749  1.0000
  H   H12       1.0  0.71022  0.63608  0.10002  1.0000
  H   H13       1.0  0.21389  0.28122  0.41033  1.0000
  H   H14       1.0  0.12238  0.41812  0.39637  1.0000
  H   H15       1.0  0.91661  0.10096  0.47969  1.0000
  H   H16       1.0  0.07189  0.05632  0.43742  1.0000
  H   H17       1.0  0.8479699999999999  0.3251499999999999  0.42490000000000006  1.0000
  H   H18       1.0  0.71164  0.13743  0.40086  1.0000
  H   H19       1.0  0.78753  0.22033  0.9113100000000001  1.0000
  H   H20       1.0  0.8784999999999998  0.08254999999999997  0.8979600000000001  1.0000
  H   H21       1.0  0.08412  0.40031  0.97963  1.0000
  H   H22       1.0  0.92932  0.44509  0.9372500000000001  1.0000
  H   H23       1.0  0.1547  0.17665  0.9251  1.0000
  H   H24       1.0  0.28978  0.36393  0.89998  1.0000
  C   C1        1.0  0.79509  0.66212  0.69217  1.0000
  C   C2        1.0  0.87106  0.68961  0.62253  1.0000
  C   C3        1.0  0.049569999999999975  0.9342099999999999  0.56862  1.0000
  C   C4        1.0  0.17247  0.09324  0.58804  1.0000
  C   C5        1.0  0.17732999999999993  0.7637799999999998  0.6139  1.0000
  C   C6        1.0  0.56716  0.46349  0.50328  1.0000
  C   C7        1.0  0.20476  0.83879  0.19088  1.0000
  C   C8        1.0  0.12808000000000005  0.81014  0.12148  1.0000
  C   C9        1.0  0.94931  0.56483  0.06879  1.0000
  C   C10       1.0  0.826  0.40627  0.08890000000000002  1.0000
  C   C11       1.0  0.8212799999999999  0.7353199999999999  0.11413000000000001  1.0000
  C   C12       1.0  0.43304  0.03667  0.00347  1.0000
  C   C13       1.0  0.20491  0.33789  0.30783  1.0000
  C   C14       1.0  0.12894  0.3104  0.3774700000000001  1.0000
  C   C15       1.0  0.9504299999999999  0.06579  0.43138  1.0000
  C   C16       1.0  0.8275299999999999  0.9067699999999999  0.41196000000000005  1.0000
  C   C17       1.0  0.82267  0.23622  0.3861  1.0000
  C   C18       1.0  0.43284  0.53652  0.49672  1.0000
  C   C19       1.0  0.79524  0.16122  0.80912  1.0000
  C   C20       1.0  0.87191  0.18986999999999996  0.8785200000000001  1.0000
  C   C21       1.0  0.05067999999999998  0.43517999999999996  0.9312100000000001  1.0000
  C   C22       1.0  0.17399999999999996  0.59374  0.9111100000000001  1.0000
  C   C23       1.0  0.17871  0.26469  0.88588  1.0000
  C   C24       1.0  0.56696  0.9633399999999999  0.99654  1.0000
  N   N1        1.0  0.036340000000000025  0.81821  0.6207400000000001  1.0000
  N   N2        1.0  0.96276  0.68141  0.12065000000000001  1.0000
  N   N3        1.0  0.9636600000000001  0.18179  0.37926  1.0000
  N   N4        1.0  0.03724  0.31859  0.87936  1.0000
  O   O1        1.0  0.86054  0.75994  0.7377100000000001  1.0000
  O   O2        1.0  0.66429  0.54247  0.70059  1.0000
  O   O3        1.0  0.21146  0.11455  0.65103  1.0000
  O   O4        1.0  0.22659999999999997  0.19885999999999995  0.54609  1.0000
  O   O5        1.0  0.3847999999999999  0.65943  0.6833300000000001  1.0000
  O   O6        1.0  0.07447  0.54906  0.70966  1.0000
  O   O7        1.0  0.25401999999999997  0.8324199999999999  0.74102  1.0000
  O   O8        1.0  0.58636  0.4145  0.56041  1.0000
  O   O9        1.0  0.64767  0.4586  0.4511  1.0000
  O   O10       1.0  0.13945  0.74138  0.23676  1.0000
  O   O11       1.0  0.33571999999999996  0.9580499999999998  0.19891  1.0000
  O   O12       1.0  0.78841  0.38569  0.15205  1.0000
  O   O13       1.0  0.77005  0.30018  0.04743  1.0000
  O   O14       1.0  0.61458  0.84021  0.18465  1.0000
  O   O15       1.0  0.9252300000000001  0.9529699999999999  0.20866000000000004  1.0000
  O   O16       1.0  0.7489699999999999  0.67032  0.24219  1.0000
  O   O17       1.0  0.41387  0.08495  0.06072  1.0000
  O   O18       1.0  0.35246  0.04222999999999999  0.9515100000000001  1.0000
  O   O19       1.0  0.13945  0.24007  0.26229  1.0000
  O   O20       1.0  0.33569999999999994  0.45754  0.29941  1.0000
  O   O21       1.0  0.78854  0.88545  0.34897  1.0000
  O   O22       1.0  0.77339  0.80115  0.45391  1.0000
  O   O23       1.0  0.6151999999999999  0.34056999999999993  0.31667  1.0000
  O   O24       1.0  0.9255299999999999  0.4509499999999999  0.29034  1.0000
  O   O25       1.0  0.7459799999999999  0.16758999999999993  0.25898  1.0000
  O   O26       1.0  0.41363999999999995  0.58551  0.43959000000000004  1.0000
  O   O27       1.0  0.35233  0.5414  0.5489  1.0000
  O   O28       1.0  0.86054  0.25863  0.76324  1.0000
  O   O29       1.0  0.66428  0.04196  0.80109  1.0000
  O   O30       1.0  0.21158999999999997  0.61432  0.84795  1.0000
  O   O31       1.0  0.22994999999999993  0.69983  0.95257  1.0000
  O   O32       1.0  0.38541999999999993  0.15979  0.8153500000000001  1.0000
  O   O33       1.0  0.07476  0.04703  0.79134  1.0000
  O   O34       1.0  0.25103  0.32969  0.75781  1.0000
  O   O35       1.0  0.5861299999999999  0.9150599999999999  0.93928  1.0000
  O   O36       1.0  0.64754  0.95777  0.04849  1.0000
