data_image0
_chemical_formula_structural       Mn8H24C64O32
_chemical_formula_sum              "Mn8 H24 C64 O32"
_cell_length_a       13.33729
_cell_length_b       14.252589999999998
_cell_length_c       18.64778
_cell_angle_alpha    85.01172999999999
_cell_angle_beta     90.09837000000002
_cell_angle_gamma    90.05882

_symmetry_space_group_name_H-M    'P 1'
_symmetry_Int_Tables_number       1

loop_
  _symmetry_equiv_pos_as_xyz
  'x,y,z'

loop_
  _atom_site_type_symbol
  _atom_site_label
  _atom_site_symmetry_multiplicity
  _atom_site_fract_x
  _atom_site_fract_y
  _atom_site_fract_z
  _atom_site_occupancy
  Mn  Mn1       1.0  0.44879  0.49387  0.28184  1.0000
  Mn  Mn2       1.0  0.31032  0.58293  0.16199000000000002  1.0000
  Mn  Mn3       1.0  0.9480200000000001  0.0081  0.21492  1.0000
  Mn  Mn4       1.0  0.8148900000000001  0.9184600000000002  0.33591000000000004  1.0000
  Mn  Mn5       1.0  0.55123  0.5061300000000001  0.7181600000000001  1.0000
  Mn  Mn6       1.0  0.68969  0.4170700000000001  0.83802  1.0000
  Mn  Mn7       1.0  0.05198  0.9919  0.78508  1.0000
  Mn  Mn8       1.0  0.18512  0.08155  0.6640900000000001  1.0000
  H   H1        1.0  0.55261  0.6853  0.01109  1.0000
  H   H2        1.0  0.7986  0.87077  0.05402  1.0000
  H   H3        1.0  0.60402  0.7638  0.22514000000000003  1.0000
  H   H4        1.0  0.63269  0.64759  0.9267000000000001  1.0000
  H   H5        1.0  0.79503  0.77059  0.74283  1.0000
  H   H6        1.0  0.81497  0.89591  0.94292  1.0000
  H   H7        1.0  0.05487  0.8131900000000002  0.48915  1.0000
  H   H8        1.0  0.2995  0.62799  0.44375000000000003  1.0000
  H   H9        1.0  0.10234  0.7373000000000002  0.27434  1.0000
  H   H10       1.0  0.13553  0.85134  0.5712600000000001  1.0000
  H   H11       1.0  0.29331  0.7287000000000002  0.75728  1.0000
  H   H12       1.0  0.31641  0.6022  0.55745  1.0000
  H   H13       1.0  0.44739  0.3146999999999999  0.9889100000000001  1.0000
  H   H14       1.0  0.20141  0.12923  0.94598  1.0000
  H   H15       1.0  0.39598  0.2362100000000001  0.77486  1.0000
  H   H16       1.0  0.36732  0.35242  0.07329  1.0000
  H   H17       1.0  0.20499  0.22942  0.25717  1.0000
  H   H18       1.0  0.18503  0.1041  0.057080000000000006  1.0000
  H   H19       1.0  0.94513  0.18682  0.51085  1.0000
  H   H20       1.0  0.7005  0.37201000000000006  0.55625  1.0000
  H   H21       1.0  0.89766  0.26271  0.72566  1.0000
  H   H22       1.0  0.86448  0.14866  0.42874  1.0000
  H   H23       1.0  0.7067  0.27131  0.24272000000000002  1.0000
  H   H24       1.0  0.6836  0.39781  0.44255000000000005  1.0000
  C   C1        1.0  0.48322  0.66001  0.14443  1.0000
  C   C2        1.0  0.57154  0.7173  0.12004000000000001  1.0000
  C   C3        1.0  0.59867  0.7230200000000001  0.04725000000000001  1.0000
  C   C4        1.0  0.6826500000000001  0.77535  0.02171  1.0000
  C   C5        1.0  0.7342200000000001  0.82739  0.07075  1.0000
  C   C6        1.0  0.70481  0.82508  0.14305  1.0000
  C   C7        1.0  0.7609700000000001  0.8823400000000002  0.19283  1.0000
  C   C8        1.0  0.62496  0.76769  0.16866  1.0000
  C   C9        1.0  0.71469  0.77466  0.94555  1.0000
  C   C10       1.0  0.68028  0.70419  0.9035900000000001  1.0000
  C   C11       1.0  0.7069300000000001  0.70285  0.8309700000000001  1.0000
  C   C12       1.0  0.66618  0.62473  0.79179  1.0000
  C   C13       1.0  0.77223  0.77116  0.79882  1.0000
  C   C14       1.0  0.81253  0.83816  0.84161  1.0000
  C   C15       1.0  0.89435  0.9029700000000002  0.81402  1.0000
  C   C16       1.0  0.78236  0.8409100000000002  0.91332  1.0000
  C   C17       1.0  0.98328  0.83976  0.35679  1.0000
  C   C18       1.0  0.07192  0.78252  0.38002  1.0000
  C   C19       1.0  0.10029000000000002  0.77585  0.45258  1.0000
  C   C20       1.0  0.18449  0.7232399999999999  0.47753000000000007  1.0000
  C   C21       1.0  0.23511  0.67185  0.42774000000000006  1.0000
  C   C22       1.0  0.20455  0.67548  0.35548  1.0000
  C   C23       1.0  0.25884  0.6186200000000001  0.30472000000000005  1.0000
  C   C24       1.0  0.12442  0.7330000000000002  0.33064  1.0000
  C   C25       1.0  0.21684000000000003  0.72369  0.55381  1.0000
  C   C26       1.0  0.18187  0.79435  0.59526  1.0000
  C   C27       1.0  0.20678  0.7956000000000002  0.66821  1.0000
  C   C28       1.0  0.16578  0.8741499999999999  0.70666  1.0000
  C   C29       1.0  0.27178  0.72762  0.70105  1.0000
  C   C30       1.0  0.31304  0.6604  0.6590100000000001  1.0000
  C   C31       1.0  0.39312  0.59491  0.68896  1.0000
  C   C32       1.0  0.28415  0.6575  0.5868400000000001  1.0000
  C   C33       1.0  0.51678  0.34  0.85557  1.0000
  C   C34       1.0  0.42847  0.28271  0.8799600000000001  1.0000
  C   C35       1.0  0.40134  0.27698999999999996  0.9527500000000001  1.0000
  C   C36       1.0  0.31736000000000003  0.22465999999999997  0.9782900000000001  1.0000
  C   C37       1.0  0.26578  0.1726200000000001  0.92925  1.0000
  C   C38       1.0  0.29519  0.17493000000000006  0.85695  1.0000
  C   C39       1.0  0.23903  0.11766  0.80717  1.0000
  C   C40       1.0  0.37504000000000004  0.23230999999999996  0.8313400000000001  1.0000
  C   C41       1.0  0.28532  0.22534000000000007  0.054450000000000005  1.0000
  C   C42       1.0  0.31972  0.2958200000000001  0.09641  1.0000
  C   C43       1.0  0.29307  0.29716  0.16903  1.0000
  C   C44       1.0  0.33381  0.37528  0.20822000000000002  1.0000
  C   C45       1.0  0.22778  0.22885  0.20117000000000004  1.0000
  C   C46       1.0  0.18747  0.16183999999999998  0.15839  1.0000
  C   C47       1.0  0.10566  0.09704  0.18598  1.0000
  C   C48       1.0  0.21764  0.1591  0.08668  1.0000
  C   C49       1.0  0.01672  0.16025000000000003  0.64321  1.0000
  C   C50       1.0  0.9280900000000001  0.21748000000000003  0.61998  1.0000
  C   C51       1.0  0.89971  0.2241600000000001  0.54742  1.0000
  C   C52       1.0  0.81552  0.2767600000000001  0.52248  1.0000
  C   C53       1.0  0.76489  0.32816  0.57226  1.0000
  C   C54       1.0  0.7954600000000001  0.32452  0.64452  1.0000
  C   C55       1.0  0.74117  0.38139  0.69528  1.0000
  C   C56       1.0  0.8755800000000001  0.26701  0.66936  1.0000
  C   C57       1.0  0.7831700000000001  0.27631  0.44619000000000003  1.0000
  C   C58       1.0  0.81814  0.20566  0.40475  1.0000
  C   C59       1.0  0.7932300000000001  0.2044  0.33180000000000004  1.0000
  C   C60       1.0  0.8342300000000001  0.12586  0.29335  1.0000
  C   C61       1.0  0.72824  0.27239  0.29896  1.0000
  C   C62       1.0  0.68698  0.33961  0.34099000000000007  1.0000
  C   C63       1.0  0.60694  0.40511  0.31102  1.0000
  C   C64       1.0  0.71585  0.3425000000000001  0.41316  1.0000
  O   O1        1.0  0.41338  0.6482400000000001  0.09786000000000002  1.0000
  O   O2        1.0  0.47483  0.62595  0.21008  1.0000
  O   O3        1.0  0.72789  0.8800700000000001  0.25833  1.0000
  O   O4        1.0  0.8373  0.92885  0.16934000000000002  1.0000
  O   O5        1.0  0.93774  0.95491  0.8586  1.0000
  O   O6        1.0  0.9248400000000001  0.90359  0.74939  1.0000
  O   O7        1.0  0.6516800000000001  0.63048  0.72498  1.0000
  O   O8        1.0  0.64182  0.5478499999999998  0.8323600000000002  1.0000
  O   O9        1.0  0.91397  0.85105  0.40357000000000004  1.0000
  O   O10       1.0  0.97389  0.87477  0.2912  1.0000
  O   O11       1.0  0.22554  0.62333  0.23904  1.0000
  O   O12       1.0  0.33346  0.56944  0.32727  1.0000
  O   O13       1.0  0.43436  0.5391299999999998  0.64643  1.0000
  O   O14       1.0  0.42453  0.59735  0.75312  1.0000
  O   O15       1.0  0.15224  0.86973  0.77371  1.0000
  O   O16       1.0  0.14112  0.94973  0.6653  1.0000
  O   O17       1.0  0.58662  0.35177  0.9021400000000002  1.0000
  O   O18       1.0  0.52518  0.37405  0.78992  1.0000
  O   O19       1.0  0.27212  0.11993  0.74167  1.0000
  O   O20       1.0  0.1627  0.07116000000000004  0.8306600000000001  1.0000
  O   O21       1.0  0.06226  0.04509  0.1414  1.0000
  O   O22       1.0  0.07517000000000001  0.09642  0.25061  1.0000
  O   O23       1.0  0.34832  0.36954000000000004  0.27502  1.0000
  O   O24       1.0  0.35818  0.4521500000000001  0.16764000000000004  1.0000
  O   O25       1.0  0.08603  0.14895  0.59643  1.0000
  O   O26       1.0  0.02611  0.12523999999999996  0.7088000000000001  1.0000
  O   O27       1.0  0.77446  0.37668  0.76096  1.0000
  O   O28       1.0  0.66655  0.4305700000000001  0.67272  1.0000
  O   O29       1.0  0.56563  0.4608600000000001  0.35355  1.0000
  O   O30       1.0  0.57559  0.4026800000000001  0.24684  1.0000
  O   O31       1.0  0.84777  0.13027  0.22629  1.0000
  O   O32       1.0  0.85889  0.050270000000000016  0.3347  1.0000
