data_image0
_chemical_formula_structural       Zn8H24C56N8O32
_chemical_formula_sum              "Zn8 H24 C56 N8 O32"
_cell_length_a       12.56562
_cell_length_b       13.73744
_cell_length_c       14.50519
_cell_angle_alpha    104.84549
_cell_angle_beta     89.96162
_cell_angle_gamma    89.98841000000002

_space_group_name_H-M_alt    "P 1"
_space_group_IT_number       1

loop_
  _space_group_symop_operation_xyz
  'x, y, z'

loop_
  _atom_site_type_symbol
  _atom_site_label
  _atom_site_symmetry_multiplicity
  _atom_site_fract_x
  _atom_site_fract_y
  _atom_site_fract_z
  _atom_site_occupancy
  Zn  Zn1       1.0  0.9793200000000002  0.6454699999999998  0.33067  1.0000
  Zn  Zn2       1.0  0.77979  0.79151  0.4183500000000001  1.0000
  Zn  Zn3       1.0  0.47818000000000005  0.8544099999999999  0.16915  1.0000
  Zn  Zn4       1.0  0.27828  0.7086099999999999  0.08157  1.0000
  Zn  Zn5       1.0  0.02068  0.35453  0.66933  1.0000
  Zn  Zn6       1.0  0.22021  0.20848999999999998  0.5816500000000001  1.0000
  Zn  Zn7       1.0  0.5218200000000001  0.14559  0.83085  1.0000
  Zn  Zn8       1.0  0.72173  0.29138  0.91843  1.0000
  H   H1        1.0  0.33986  0.4893099999999999  0.24795  1.0000
  H   H2        1.0  0.3391600000000001  0.37874  0.36369  1.0000
  H   H3        1.0  0.01801  0.47903  0.43621  1.0000
  H   H4        1.0  0.07068  0.9845599999999998  0.62399  1.0000
  H   H5        1.0  0.9556200000000001  0.10568000000000002  0.7474100000000001  1.0000
  H   H6        1.0  0.6811200000000002  0.96811  0.59052  1.0000
  H   H7        1.0  0.8383300000000001  0.009339999999999996  0.25256  1.0000
  H   H8        1.0  0.83905  0.12045  0.13733  1.0000
  H   H9        1.0  0.51766  0.021699999999999994  0.06389  1.0000
  H   H10       1.0  0.56921  0.51429  0.8751600000000002  1.0000
  H   H11       1.0  0.45354000000000005  0.39316  0.75258  1.0000
  H   H12       1.0  0.17965000000000003  0.53232  0.90992  1.0000
  H   H13       1.0  0.6601500000000001  0.51069  0.75205  1.0000
  H   H14       1.0  0.66084  0.62125  0.63631  1.0000
  H   H15       1.0  0.9819900000000003  0.52096  0.56378  1.0000
  H   H16       1.0  0.92932  0.015440000000000042  0.3760000000000001  1.0000
  H   H17       1.0  0.04438  0.89432  0.25259  1.0000
  H   H18       1.0  0.31889  0.03189  0.40948  1.0000
  H   H19       1.0  0.16167  0.9906599999999998  0.74744  1.0000
  H   H20       1.0  0.16096000000000002  0.8795499999999999  0.8626700000000003  1.0000
  H   H21       1.0  0.48235  0.9783  0.9361  1.0000
  H   H22       1.0  0.4307900000000001  0.4856999999999999  0.12484  1.0000
  H   H23       1.0  0.54647  0.60684  0.24742000000000003  1.0000
  H   H24       1.0  0.8203500000000001  0.46767999999999993  0.09008000000000001  1.0000
  C   C1        1.0  0.18162000000000003  0.54364  0.28613  1.0000
  C   C2        1.0  0.27104  0.48531  0.29219000000000006  1.0000
  C   C3        1.0  0.27041  0.4242399999999999  0.35589  1.0000
  C   C4        1.0  0.17952000000000004  0.42189000000000004  0.4110800000000001  1.0000
  C   C5        1.0  0.09209  0.48001999999999995  0.3983400000000001  1.0000
  C   C6        1.0  0.17214000000000002  0.3632399999999999  0.48592  1.0000
  C   C7        1.0  0.17266000000000004  0.61418  0.22153000000000006  1.0000
  C   C8        1.0  0.93494  0.91336  0.54645  1.0000
  C   C9        1.0  0.9841100000000003  0.98258  0.62172  1.0000
  C   C10       1.0  0.92102  0.04868000000000001  0.68873  1.0000
  C   C11       1.0  0.81014  0.04264999999999997  0.67922  1.0000
  C   C12       1.0  0.7669500000000001  0.9728299999999998  0.60058  1.0000
  C   C13       1.0  0.73782  0.10913999999999996  0.75112  1.0000
  C   C14       1.0  0.99942  0.83749  0.47364  1.0000
  C   C15       1.0  0.6800600000000001  0.9560299999999998  0.21415  1.0000
  C   C16       1.0  0.76979  0.01399  0.20831  1.0000
  C   C17       1.0  0.7699000000000003  0.07527999999999997  0.1448  1.0000
  C   C18       1.0  0.67933  0.07811000000000001  0.08941000000000003  1.0000
  C   C19       1.0  0.59149  0.020309999999999995  0.10196  1.0000
  C   C20       1.0  0.67275  0.13659  0.01431  1.0000
  C   C21       1.0  0.6706300000000002  0.8854599999999998  0.27871  1.0000
  C   C22       1.0  0.4336200000000001  0.58633  0.95293  1.0000
  C   C23       1.0  0.4826300000000001  0.51656  0.87784  1.0000
  C   C24       1.0  0.4192900000000001  0.45045999999999997  0.8112400000000002  1.0000
  C   C25       1.0  0.30841  0.45702  0.82098  1.0000
  C   C26       1.0  0.26545  0.5271699999999999  0.8995600000000002  1.0000
  C   C27       1.0  0.23593000000000003  0.39085  0.74917  1.0000
  C   C28       1.0  0.49847000000000014  0.6627599999999998  0.02456  1.0000
  C   C29       1.0  0.8183900000000001  0.45635  0.71387  1.0000
  C   C30       1.0  0.72896  0.5146899999999999  0.7078100000000003  1.0000
  C   C31       1.0  0.7296000000000001  0.57576  0.64411  1.0000
  C   C32       1.0  0.8204800000000001  0.5781  0.58892  1.0000
  C   C33       1.0  0.9079100000000002  0.5199699999999998  0.60166  1.0000
  C   C34       1.0  0.8278700000000002  0.63675  0.51408  1.0000
  C   C35       1.0  0.8273500000000003  0.3858199999999999  0.77847  1.0000
  C   C36       1.0  0.06507000000000002  0.08663999999999995  0.45355  1.0000
  C   C37       1.0  0.0159  0.01741999999999999  0.37828  1.0000
  C   C38       1.0  0.07897999999999998  0.9513199999999998  0.3112700000000001  1.0000
  C   C39       1.0  0.18986  0.95735  0.32077  1.0000
  C   C40       1.0  0.23305000000000003  0.02717000000000001  0.39942000000000005  1.0000
  C   C41       1.0  0.26218  0.8908499999999998  0.24888000000000005  1.0000
  C   C42       1.0  0.0005800000000000001  0.16250999999999993  0.52636  1.0000
  C   C43       1.0  0.31995  0.04397000000000001  0.78585  1.0000
  C   C44       1.0  0.23021000000000005  0.9860099999999998  0.79169  1.0000
  C   C45       1.0  0.23011  0.9247100000000001  0.8552000000000002  1.0000
  C   C46       1.0  0.32067  0.92189  0.9105900000000001  1.0000
  C   C47       1.0  0.40851  0.9796799999999999  0.8980400000000001  1.0000
  C   C48       1.0  0.32725  0.8634099999999998  0.98569  1.0000
  C   C49       1.0  0.3293800000000001  0.11453999999999996  0.72129  1.0000
  C   C50       1.0  0.56638  0.41366999999999987  0.04707  1.0000
  C   C51       1.0  0.51737  0.48344  0.12216  1.0000
  C   C52       1.0  0.58071  0.5495299999999999  0.18875  1.0000
  C   C53       1.0  0.69159  0.5429799999999999  0.17902  1.0000
  C   C54       1.0  0.7345500000000001  0.47283  0.10044  1.0000
  C   C55       1.0  0.7640800000000002  0.6091499999999997  0.25082  1.0000
  C   C56       1.0  0.50154  0.33722999999999986  0.97544  1.0000
  N   N1        1.0  0.09389000000000002  0.5404099999999997  0.33912  1.0000
  N   N2        1.0  0.8279700000000002  0.9102299999999998  0.53568  1.0000
  N   N3        1.0  0.5926  0.9597599999999998  0.16108000000000003  1.0000
  N   N4        1.0  0.3267100000000001  0.5898100000000001  0.9641100000000002  1.0000
  N   N5        1.0  0.9061100000000002  0.4595799999999999  0.66088  1.0000
  N   N6        1.0  0.17203  0.08976  0.4643200000000001  1.0000
  N   N7        1.0  0.4074  0.04023000000000001  0.83892  1.0000
  N   N8        1.0  0.67329  0.41018  0.03589  1.0000
  O   O1        1.0  0.09113  0.6697799999999998  0.23067  1.0000
  O   O2        1.0  0.24853000000000006  0.60976  0.16208000000000003  1.0000
  O   O3        1.0  0.23909000000000002  0.2925899999999999  0.48111  1.0000
  O   O4        1.0  0.09862  0.39122  0.54708  1.0000
  O   O5        1.0  0.9434300000000001  0.7890199999999998  0.39832000000000006  1.0000
  O   O6        1.0  0.09449  0.8240299999999999  0.48636  1.0000
  O   O7        1.0  0.78272  0.17140999999999998  0.8196000000000002  1.0000
  O   O8        1.0  0.6379200000000002  0.09565000000000005  0.7363800000000003  1.0000
  O   O9        1.0  0.58927  0.8296999999999999  0.26924  1.0000
  O   O10       1.0  0.7462000000000001  0.8900899999999998  0.3383800000000001  1.0000
  O   O11       1.0  0.74068  0.20639999999999994  0.018670000000000003  1.0000
  O   O12       1.0  0.59893  0.10904999999999995  0.95337  1.0000
  O   O13       1.0  0.4437900000000001  0.71094  0.10087  1.0000
  O   O14       1.0  0.5928600000000002  0.67652  0.00945  1.0000
  O   O15       1.0  0.2804900000000001  0.3285999999999999  0.68047  1.0000
  O   O16       1.0  0.13607  0.4046  0.76401  1.0000
  O   O17       1.0  0.9088800000000001  0.3302099999999999  0.76933  1.0000
  O   O18       1.0  0.7514700000000002  0.3902299999999999  0.8379100000000002  1.0000
  O   O19       1.0  0.76091  0.7074099999999999  0.51889  1.0000
  O   O20       1.0  0.9013800000000002  0.6087799999999998  0.45291  1.0000
  O   O21       1.0  0.05657  0.2109799999999999  0.60168  1.0000
  O   O22       1.0  0.90552  0.17595999999999998  0.51364  1.0000
  O   O23       1.0  0.21729  0.8285899999999998  0.1804  1.0000
  O   O24       1.0  0.36208000000000007  0.9043499999999998  0.26362  1.0000
  O   O25       1.0  0.41074  0.17029  0.73076  1.0000
  O   O26       1.0  0.25381  0.1099  0.66162  1.0000
  O   O27       1.0  0.25932  0.7936  0.9813200000000002  1.0000
  O   O28       1.0  0.40108  0.8909399999999997  0.046630000000000005  1.0000
  O   O29       1.0  0.5562200000000002  0.28905999999999993  0.89913  1.0000
  O   O30       1.0  0.40715000000000007  0.32348  0.99055  1.0000
  O   O31       1.0  0.7195200000000003  0.6713999999999999  0.31953  1.0000
  O   O32       1.0  0.86394  0.5953899999999999  0.23599  1.0000
