data_image0
_chemical_formula_structural       Ho4H18C48N6O36
_chemical_formula_sum              "Ho4 H18 C48 N6 O36"
_cell_length_a       13.73099
_cell_length_b       13.733189999999999
_cell_length_c       16.288
_cell_angle_alpha    66.15064
_cell_angle_beta     66.09617999999999
_cell_angle_gamma    72.11235999999998

_space_group_name_H-M_alt    "P 1"
_space_group_IT_number       1

loop_
  _space_group_symop_operation_xyz
  'x, y, z'

loop_
  _atom_site_type_symbol
  _atom_site_label
  _atom_site_symmetry_multiplicity
  _atom_site_fract_x
  _atom_site_fract_y
  _atom_site_fract_z
  _atom_site_occupancy
  Ho  Ho1       1.0  0.057140000000000066  0.34793999999999986  0.99793  1.0000
  Ho  Ho2       1.0  0.6520900000000004  0.9427599999999999  0.50213  1.0000
  Ho  Ho3       1.0  0.9428500000000002  0.65208  0.00207  1.0000
  Ho  Ho4       1.0  0.34788  0.05717000000000001  0.4979099999999999  1.0000
  H   H1        1.0  0.2563  0.16673  0.75787  1.0000
  H   H2        1.0  0.59633  0.036859999999999955  0.71843  1.0000
  H   H3        1.0  0.40147000000000005  0.1533700000000001  0.9537699999999998  1.0000
  H   H4        1.0  0.36673  0.41685000000000005  0.8570299999999997  1.0000
  H   H5        1.0  0.8334000000000003  0.74417  0.7419199999999999  1.0000
  H   H6        1.0  0.9624800000000001  0.40437  0.78188  1.0000
  H   H7        1.0  0.8471499999999998  0.59864  0.54578  1.0000
  H   H8        1.0  0.5834800000000003  0.6328400000000001  0.6431899999999998  1.0000
  H   H9        1.0  0.7437000000000001  0.83327  0.24213  1.0000
  H   H10       1.0  0.4036600000000002  0.9631399999999998  0.28158  1.0000
  H   H11       1.0  0.5985200000000005  0.84663  0.046229999999999986  1.0000
  H   H12       1.0  0.6332700000000003  0.5831499999999998  0.14296999999999999  1.0000
  H   H13       1.0  0.16659000000000004  0.25583  0.25808  1.0000
  H   H14       1.0  0.037509999999999995  0.59563  0.21811999999999995  1.0000
  H   H15       1.0  0.15285000000000012  0.40134999999999993  0.45422  1.0000
  H   H16       1.0  0.41651000000000016  0.36716  0.3568099999999999  1.0000
  H   H17       1.0  0.2429700000000003  0.7568  0.7501899999999998  1.0000
  H   H18       1.0  0.75702  0.24319999999999997  0.24981  1.0000
  C   C1        1.0  0.18260000000000007  0.56804  0.87918  1.0000
  C   C2        1.0  0.3171500000000001  0.16346000000000008  0.8625899999999997  1.0000
  C   C3        1.0  0.3267  0.14547  0.7806699999999999  1.0000
  C   C4        1.0  0.4272300000000002  0.09916000000000003  0.72873  1.0000
  C   C5        1.0  0.5182300000000001  0.07361000000000009  0.7572899999999998  1.0000
  C   C6        1.0  0.50673  0.09513000000000008  0.8374599999999998  1.0000
  C   C7        1.0  0.4077800000000002  0.13859000000000007  0.8910899999999998  1.0000
  C   C8        1.0  0.21205000000000013  0.20988  0.9211599999999998  1.0000
  C   C9        1.0  0.43792000000000003  0.07363000000000004  0.6443  1.0000
  C   C10       1.0  0.29294000000000014  0.5858600000000002  0.8118899999999999  1.0000
  C   C11       1.0  0.3788600000000002  0.4984100000000001  0.8107499999999997  1.0000
  C   C12       1.0  0.4323600000000002  0.81721  0.6207599999999999  1.0000
  C   C13       1.0  0.8369300000000003  0.6829499999999998  0.6371299999999998  1.0000
  C   C14       1.0  0.8547100000000002  0.6737399999999999  0.7190899999999998  1.0000
  C   C15       1.0  0.9005800000000005  0.5732  0.7712399999999998  1.0000
  C   C16       1.0  0.9260400000000004  0.48228000000000004  0.7427  1.0000
  C   C17       1.0  0.9049900000000002  0.49355000000000004  0.6623799999999997  1.0000
  C   C18       1.0  0.86184  0.5923499999999999  0.60854  1.0000
  C   C19       1.0  0.7903000000000002  0.78778  0.5785799999999998  1.0000
  C   C20       1.0  0.9257900000000004  0.56212  0.85589  1.0000
  C   C21       1.0  0.41428000000000026  0.7069500000000001  0.6880599999999998  1.0000
  C   C22       1.0  0.50173  0.6209899999999999  0.68934  1.0000
  C   C23       1.0  0.8174000000000002  0.4319599999999999  0.12081999999999997  1.0000
  C   C24       1.0  0.6828400000000001  0.83654  0.13741  1.0000
  C   C25       1.0  0.6732900000000003  0.85452  0.21933  1.0000
  C   C26       1.0  0.57276  0.90084  0.27126999999999996  1.0000
  C   C27       1.0  0.48177000000000003  0.9263899999999998  0.24271  1.0000
  C   C28       1.0  0.49326999999999993  0.90487  0.16254  1.0000
  C   C29       1.0  0.5922100000000002  0.8614  0.10890999999999998  1.0000
  C   C30       1.0  0.7879500000000003  0.79012  0.07883999999999998  1.0000
  C   C31       1.0  0.5620800000000002  0.9263599999999999  0.35569  1.0000
  C   C32       1.0  0.7070500000000001  0.41413999999999995  0.18810999999999994  1.0000
  C   C33       1.0  0.62114  0.50159  0.18925999999999998  1.0000
  C   C34       1.0  0.56764  0.18279000000000006  0.3792399999999999  1.0000
  C   C35       1.0  0.16307000000000002  0.3170499999999999  0.36287  1.0000
  C   C36       1.0  0.14529000000000003  0.32626  0.28090999999999994  1.0000
  C   C37       1.0  0.09941999999999998  0.4267999999999999  0.22876  1.0000
  C   C38       1.0  0.07394999999999999  0.5177199999999998  0.25731  1.0000
  C   C39       1.0  0.095  0.50645  0.33762  1.0000
  C   C40       1.0  0.13815000000000002  0.40765  0.39146999999999993  1.0000
  C   C41       1.0  0.20969000000000004  0.21222000000000005  0.4214299999999999  1.0000
  C   C42       1.0  0.07421000000000001  0.43787999999999994  0.14411  1.0000
  C   C43       1.0  0.58571  0.29305  0.31194  1.0000
  C   C44       1.0  0.49826  0.37901  0.31066  1.0000
  C   C45       1.0  0.31035000000000024  0.68965  0.74999  1.0000
  C   C46       1.0  0.48195000000000016  0.5180699999999999  0.7501199999999998  1.0000
  C   C47       1.0  0.68965  0.31035  0.25002  1.0000
  C   C48       1.0  0.51804  0.48193  0.24987999999999994  1.0000
  N   N1        1.0  0.6017200000000004  0.06905000000000004  0.86838  1.0000
  N   N2        1.0  0.9310700000000005  0.39838  0.6316999999999998  1.0000
  N   N3        1.0  0.39827999999999997  0.93094  0.13162  1.0000
  N   N4        1.0  0.06892000000000009  0.6016199999999999  0.3682999999999999  1.0000
  N   N5        1.0  0.5739400000000002  0.4263000000000001  0.7504499999999998  1.0000
  N   N6        1.0  0.4260500000000001  0.5736999999999999  0.24954999999999994  1.0000
  O   O1        1.0  0.13158999999999996  0.25427  0.88919  1.0000
  O   O2        1.0  0.20383000000000007  0.21018999999999996  0.002479999999999999  1.0000
  O   O3        1.0  0.16602000000000003  0.47058999999999995  0.91697  1.0000
  O   O4        1.0  0.11260000000000005  0.64995  0.8950499999999998  1.0000
  O   O5        1.0  0.35333  0.0904400000000001  0.6231299999999997  1.0000
  O   O6        1.0  0.53224  0.03520999999999997  0.59729  1.0000
  O   O7        1.0  0.6896  0.03181999999999999  0.81879  1.0000
  O   O8        1.0  0.58656  0.08558000000000003  0.94256  1.0000
  O   O9        1.0  0.5526  0.33429999999999993  0.79899  1.0000
  O   O10       1.0  0.74666  0.8685400000000001  0.6101799999999997  1.0000
  O   O11       1.0  0.7891100000000001  0.7955399999999999  0.4976699999999999  1.0000
  O   O12       1.0  0.5299000000000004  0.8335899999999998  0.5830899999999998  1.0000
  O   O13       1.0  0.35044000000000003  0.8871899999999998  0.60482  1.0000
  O   O14       1.0  0.9091900000000003  0.64669  0.8770199999999998  1.0000
  O   O15       1.0  0.9638  0.46770000000000006  0.9029899999999997  1.0000
  O   O16       1.0  0.9683100000000002  0.31077000000000005  0.6814199999999998  1.0000
  O   O17       1.0  0.9145900000000005  0.4129800000000001  0.5576399999999998  1.0000
  O   O18       1.0  0.66608  0.4476699999999998  0.7023  1.0000
  O   O19       1.0  0.8684000000000002  0.74573  0.11080999999999998  1.0000
  O   O20       1.0  0.79616  0.7898100000000001  0.9975199999999997  1.0000
  O   O21       1.0  0.8339700000000002  0.52941  0.08302999999999998  1.0000
  O   O22       1.0  0.8873900000000001  0.35005  0.10494999999999999  1.0000
  O   O23       1.0  0.64667  0.9095699999999999  0.37686  1.0000
  O   O24       1.0  0.4677500000000001  0.9647799999999997  0.4027099999999999  1.0000
  O   O25       1.0  0.3103900000000002  0.9681799999999998  0.18122  1.0000
  O   O26       1.0  0.41343  0.91442  0.057439999999999984  1.0000
  O   O27       1.0  0.4473900000000003  0.6656999999999997  0.20101999999999998  1.0000
  O   O28       1.0  0.25333000000000006  0.13145  0.38981999999999994  1.0000
  O   O29       1.0  0.21088000000000004  0.20446  0.50233  1.0000
  O   O30       1.0  0.47010000000000024  0.16640999999999997  0.41692  1.0000
  O   O31       1.0  0.6495500000000001  0.11281000000000001  0.39518  1.0000
  O   O32       1.0  0.09080000000000009  0.3533  0.12298999999999997  1.0000
  O   O33       1.0  0.0362000000000001  0.5322999999999999  0.09701  1.0000
  O   O34       1.0  0.031680000000000014  0.6892299999999999  0.31858  1.0000
  O   O35       1.0  0.08540000000000005  0.58701  0.44236  1.0000
  O   O36       1.0  0.33392  0.55233  0.2977  1.0000
