data_image0
_chemical_formula_structural       Co4H36C64N8O16F12
_chemical_formula_sum              "Co4 H36 C64 N8 O16 F12"
_cell_length_a       9.83912
_cell_length_b       11.69611
_cell_length_c       17.75484
_cell_angle_alpha    90.05706
_cell_angle_beta     89.94184
_cell_angle_gamma    103.60076

_space_group_name_H-M_alt    "P 1"
_space_group_IT_number       1

loop_
  _space_group_symop_operation_xyz
  'x, y, z'

loop_
  _atom_site_type_symbol
  _atom_site_label
  _atom_site_symmetry_multiplicity
  _atom_site_fract_x
  _atom_site_fract_y
  _atom_site_fract_z
  _atom_site_occupancy
  Co  Co1       1.0  4.9999999999999786e-05  5.000000000000017e-05  0.9999700000000001  1.0000
  Co  Co2       1.0  1.0000000000010474e-05  0.5  0.49999000000000005  1.0000
  Co  Co3       1.0  0.5  0.50001  0.5  1.0000
  Co  Co4       1.0  0.50003  0.0  0.0  1.0000
  H   H1        1.0  0.13798000000000005  0.9464400000000001  0.84937  1.0000
  H   H2        1.0  0.72472  0.8639300000000002  0.92528  1.0000
  H   H3        1.0  0.68023  0.70923  0.68132  1.0000
  H   H4        1.0  0.97705  0.70534  0.62778  1.0000
  H   H5        1.0  0.48396  0.4553500000000001  0.3299  1.0000
  H   H6        1.0  0.6596  0.74649  0.46027000000000007  1.0000
  H   H7        1.0  0.5485200000000001  0.7297600000000001  0.12615  1.0000
  H   H8        1.0  0.56882  0.56242  0.21062000000000006  1.0000
  H   H9        1.0  0.81681  0.85916  0.20796  1.0000
  H   H10       1.0  0.8602100000000001  0.55608  0.35193  1.0000
  H   H11       1.0  0.2748  0.63033  0.42564  1.0000
  H   H12       1.0  0.31776  0.78956  0.18202  1.0000
  H   H13       1.0  0.02068000000000004  0.7931000000000002  0.12929  1.0000
  H   H14       1.0  0.51563  0.04269  0.8307500000000002  1.0000
  H   H15       1.0  0.3396500000000001  0.7515100000000002  0.9608300000000001  1.0000
  H   H16       1.0  0.4514  0.77029  0.6271  1.0000
  H   H17       1.0  0.43001  0.93583  0.7114000000000001  1.0000
  H   H18       1.0  0.18196  0.64011  0.70764  1.0000
  H   H19       1.0  0.86258  0.05375  0.15071  1.0000
  H   H20       1.0  0.27568000000000004  0.13610000000000003  0.07444  1.0000
  H   H21       1.0  0.32024  0.29097000000000006  0.31878  1.0000
  H   H22       1.0  0.023180000000000006  0.29463  0.37209000000000003  1.0000
  H   H23       1.0  0.51605  0.54468  0.67009  1.0000
  H   H24       1.0  0.34037999999999996  0.25353  0.53972  1.0000
  H   H25       1.0  0.45154000000000005  0.27023  0.87383  1.0000
  H   H26       1.0  0.43122  0.4376  0.78937  1.0000
  H   H27       1.0  0.18321  0.14089  0.7920400000000002  1.0000
  H   H28       1.0  0.1398  0.44393  0.64807  1.0000
  H   H29       1.0  0.7252  0.36969  0.57436  1.0000
  H   H30       1.0  0.68225  0.21046  0.81799  1.0000
  H   H31       1.0  0.9793400000000001  0.20694000000000004  0.8707100000000002  1.0000
  H   H32       1.0  0.48438  0.95731  0.16926000000000002  1.0000
  H   H33       1.0  0.6603400000000001  0.24850000000000003  0.03918  1.0000
  H   H34       1.0  0.54864  0.22973000000000005  0.37288000000000004  1.0000
  H   H35       1.0  0.57006  0.06416  0.28862  1.0000
  H   H36       1.0  0.81815  0.35988000000000003  0.29238  1.0000
  C   C1        1.0  0.028950000000000014  0.90496  0.83834  1.0000
  C   C2        1.0  0.79998  0.85791  0.88121  1.0000
  C   C3        1.0  0.75746  0.79835  0.81471  1.0000
  C   C4        1.0  0.8485200000000002  0.79079  0.75476  1.0000
  C   C5        1.0  0.98798  0.8489600000000002  0.7702300000000002  1.0000
  C   C6        1.0  0.79373  0.72933  0.68623  1.0000
  C   C7        1.0  0.7875000000000001  0.6296300000000001  0.5633200000000002  1.0000
  C   C8        1.0  0.8640000000000001  0.69242  0.62924  1.0000
  C   C9        1.0  0.6890100000000002  0.7721700000000002  0.34031  1.0000
  C   C10       1.0  0.5429200000000001  0.54634  0.33065  1.0000
  C   C11       1.0  0.6406400000000001  0.7079900000000001  0.40442  1.0000
  C   C12       1.0  0.6527  0.7861100000000002  0.13418000000000005  1.0000
  C   C13       1.0  0.58856  0.60702  0.26474  1.0000
  C   C14       1.0  0.66408  0.7251  0.26773000000000013  1.0000
  C   C15       1.0  0.7135100000000002  0.8587800000000002  0.06803  1.0000
  C   C16       1.0  0.71766  0.79474  0.20140000000000005  1.0000
  C   C17       1.0  0.9697100000000001  0.5955  0.34059  1.0000
  C   C18       1.0  0.19949000000000003  0.63772  0.38189  1.0000
  C   C19       1.0  0.24212000000000006  0.6970600000000001  0.3153900000000001  1.0000
  C   C20       1.0  0.15083000000000008  0.7074500000000002  0.25625000000000003  1.0000
  C   C21       1.0  0.011219999999999994  0.65145  0.27268  1.0000
  C   C22       1.0  0.20436  0.76923  0.18759000000000003  1.0000
  C   C23       1.0  0.21100000000000002  0.8687  0.06473  1.0000
  C   C24       1.0  0.13373999999999994  0.80609  0.13075  1.0000
  C   C25       1.0  0.31046  0.72562  0.8407600000000001  1.0000
  C   C26       1.0  0.45652  0.9517  0.83139  1.0000
  C   C27       1.0  0.3587200000000001  0.7898700000000001  0.9049600000000001  1.0000
  C   C28       1.0  0.34704000000000007  0.71394  0.63447  1.0000
  C   C29       1.0  0.4106  0.89116  0.76547  1.0000
  C   C30       1.0  0.33499999999999996  0.77309  0.7682800000000002  1.0000
  C   C31       1.0  0.28653  0.64302  0.5675500000000002  1.0000
  C   C32       1.0  0.28142000000000006  0.7042800000000001  0.7016  1.0000
  C   C33       1.0  0.97162  0.0951  0.16163  1.0000
  C   C34       1.0  0.20050000000000007  0.14228  0.11859000000000001  1.0000
  C   C35       1.0  0.24280000000000002  0.20170000000000005  0.18518000000000004  1.0000
  C   C36       1.0  0.15176  0.20917  0.24521  1.0000
  C   C37       1.0  0.01228000000000001  0.15103000000000003  0.22978  1.0000
  C   C38       1.0  0.20671  0.2708  0.3137  1.0000
  C   C39       1.0  0.21256000000000003  0.3703500000000001  0.4366200000000001  1.0000
  C   C40       1.0  0.13624  0.30757  0.37065  1.0000
  C   C41       1.0  0.31100000000000005  0.22784000000000004  0.65969  1.0000
  C   C42       1.0  0.45709  0.4536800000000001  0.66934  1.0000
  C   C43       1.0  0.35935  0.29203  0.59558  1.0000
  C   C44       1.0  0.34735  0.21391000000000002  0.8658000000000002  1.0000
  C   C45       1.0  0.41146000000000005  0.393  0.73525  1.0000
  C   C46       1.0  0.33594  0.27492  0.73226  1.0000
  C   C47       1.0  0.28655  0.14125  0.9319400000000001  1.0000
  C   C48       1.0  0.28236  0.20529000000000003  0.7985900000000001  1.0000
  C   C49       1.0  0.030300000000000018  0.40451000000000004  0.65941  1.0000
  C   C50       1.0  0.80051  0.36229000000000006  0.6181100000000003  1.0000
  C   C51       1.0  0.7578900000000001  0.30295  0.6846100000000002  1.0000
  C   C52       1.0  0.84918  0.29256  0.7437500000000002  1.0000
  C   C53       1.0  0.9887800000000001  0.34855  0.72732  1.0000
  C   C54       1.0  0.7956600000000001  0.23079000000000002  0.8124100000000002  1.0000
  C   C55       1.0  0.78902  0.13133  0.9352700000000002  1.0000
  C   C56       1.0  0.86628  0.19395  0.86925  1.0000
  C   C57       1.0  0.68964  0.27436000000000005  0.15925  1.0000
  C   C58       1.0  0.54353  0.04828  0.16862  1.0000
  C   C59       1.0  0.64132  0.21012  0.09505000000000002  1.0000
  C   C60       1.0  0.6530200000000002  0.28605  0.36553  1.0000
  C   C61       1.0  0.58951  0.10881  0.23454000000000005  1.0000
  C   C62       1.0  0.66514  0.22688  0.23173000000000002  1.0000
  C   C63       1.0  0.7134900000000001  0.3569900000000001  0.43244  1.0000
  C   C64       1.0  0.7186900000000002  0.29569  0.29841  1.0000
  N   N1        1.0  0.9357  0.9104900000000001  0.8933400000000001  1.0000
  N   N2        1.0  0.56802  0.5951800000000002  0.39985  1.0000
  N   N3        1.0  0.06330000000000004  0.5878900000000001  0.39478  1.0000
  N   N4        1.0  0.43144  0.9027400000000001  0.9005400000000002  1.0000
  N   N5        1.0  0.06475  0.08969  0.10654  1.0000
  N   N6        1.0  0.4319700000000001  0.4048300000000001  0.6001400000000002  1.0000
  N   N7        1.0  0.93671  0.41212  0.60521  1.0000
  N   N8        1.0  0.56859  0.09726  0.09947000000000003  1.0000
  O   O1        1.0  0.65416  0.61199  0.56204  1.0000
  O   O2        1.0  0.8600900000000001  0.60041  0.51016  1.0000
  O   O3        1.0  0.8463300000000001  0.8848900000000002  0.061450000000000005  1.0000
  O   O4        1.0  0.62638  0.8854600000000001  0.02174  1.0000
  O   O5        1.0  0.3444  0.88628  0.06427  1.0000
  O   O6        1.0  0.13931000000000002  0.8974800000000002  0.01105  1.0000
  O   O7        1.0  0.15372  0.61762  0.56103  1.0000
  O   O8        1.0  0.37362000000000006  0.61708  0.52072  1.0000
  O   O9        1.0  0.34591  0.38802000000000003  0.43795  1.0000
  O   O10       1.0  0.1399  0.3995600000000001  0.48973000000000005  1.0000
  O   O11       1.0  0.15372  0.11515  0.9385200000000001  1.0000
  O   O12       1.0  0.37367  0.11454  0.97822  1.0000
  O   O13       1.0  0.65561  0.11377000000000002  0.9357400000000001  1.0000
  O   O14       1.0  0.8607  0.10253  0.98895  1.0000
  O   O15       1.0  0.8463000000000002  0.3823800000000001  0.43897  1.0000
  O   O16       1.0  0.62638  0.38293  0.47925000000000006  1.0000
  F   F1        1.0  0.6201100000000002  0.7427700000000002  0.8069300000000003  1.0000
  F   F2        1.0  0.7603200000000001  0.8862200000000002  0.34853  1.0000
  F   F3        1.0  0.08633999999999996  0.85175  0.71598  1.0000
  F   F4        1.0  0.38017  0.74884  0.3068500000000001  1.0000
  F   F5        1.0  0.23976000000000003  0.61121  0.84855  1.0000
  F   F6        1.0  0.9128200000000001  0.6512500000000001  0.21939  1.0000
  F   F7        1.0  0.3800700000000001  0.25727000000000005  0.19307  1.0000
  F   F8        1.0  0.23969  0.11379  0.65147  1.0000
  F   F9        1.0  0.91365  0.14844  0.28385  1.0000
  F   F10       1.0  0.61984  0.25117  0.69315  1.0000
  F   F11       1.0  0.7602500000000001  0.3888  0.15145  1.0000
  F   F12       1.0  0.08718  0.34876  0.7806200000000001  1.0000
