data_image0
_chemical_formula_structural       Ni8H24C64O36
_chemical_formula_sum              "Ni8 H24 C64 O36"
_cell_length_a       10.64561
_cell_length_b       13.07702
_cell_length_c       14.506630000000001
_cell_angle_alpha    112.9155
_cell_angle_beta     90.16026
_cell_angle_gamma    89.97888

_symmetry_space_group_name_H-M    'P 1'
_symmetry_Int_Tables_number       1

loop_
  _symmetry_equiv_pos_as_xyz
  'x,y,z'

loop_
  _atom_site_type_symbol
  _atom_site_label
  _atom_site_symmetry_multiplicity
  _atom_site_fract_x
  _atom_site_fract_y
  _atom_site_fract_z
  _atom_site_occupancy
  Ni  Ni1       1.0  0.08037  0.58868  0.53538  1.0000
  Ni  Ni2       1.0  0.9959499999999998  0.49685999999999986  0.6968999999999999  1.0000
  Ni  Ni3       1.0  0.5816999999999999  0.4120299999999999  0.96469  1.0000
  Ni  Ni4       1.0  0.49672  0.5039299999999999  0.8030299999999999  1.0000
  Ni  Ni5       1.0  0.9200599999999999  0.41134  0.46460000000000007  1.0000
  Ni  Ni6       1.0  0.004089999999999998  0.5031599999999999  0.30306999999999995  1.0000
  Ni  Ni7       1.0  0.418  0.5877699999999999  0.03523  1.0000
  Ni  Ni8       1.0  0.50304  0.49592  0.19686  1.0000
  H   H1        1.0  0.8550999999999999  0.8390999999999997  0.61376  1.0000
  H   H2        1.0  0.52557  0.004869999999999943  0.77529  1.0000
  H   H3        1.0  0.50375  0.85963  0.8425  1.0000
  H   H4        1.0  0.78431  0.9245899999999998  0.50857  1.0000
  H   H5        1.0  0.84557  0.08601  0.46793  1.0000
  H   H6        1.0  0.6573  0.15191999999999986  0.7989499999999999  1.0000
  H   H7        1.0  0.35679  0.1617999999999999  0.88617  1.0000
  H   H8        1.0  0.026869999999999998  0.9955499999999999  0.72381  1.0000
  H   H9        1.0  0.00418  0.14097  0.65688  1.0000
  H   H10       1.0  0.28358  0.07589  0.99179  1.0000
  H   H11       1.0  0.34441  0.9145699999999998  0.03286  1.0000
  H   H12       1.0  0.15916  0.8485599999999998  0.69988  1.0000
  H   H13       1.0  0.14520999999999998  0.16136999999999996  0.38615999999999995  1.0000
  H   H14       1.0  0.47457  0.9948699999999998  0.22516  1.0000
  H   H15       1.0  0.49658  0.13949  0.15725  1.0000
  H   H16       1.0  0.21563  0.07559  0.49159  1.0000
  H   H17       1.0  0.15435  0.9139299999999999  0.5321  1.0000
  H   H18       1.0  0.34273  0.8482499999999997  0.20115  1.0000
  H   H19       1.0  0.64337  0.83796  0.11373  1.0000
  H   H20       1.0  0.9732  0.004290000000000001  0.27607  1.0000
  H   H21       1.0  0.9957  0.8592599999999998  0.34341  1.0000
  H   H22       1.0  0.71708  0.92409  0.00796  1.0000
  H   H23       1.0  0.65581  0.08554999999999996  0.96719  1.0000
  H   H24       1.0  0.84093  0.15136999999999998  0.30018  1.0000
  C   C1        1.0  0.87166  0.6805499999999998  0.6771600000000001  1.0000
  C   C2        1.0  0.76787  0.7637799999999998  0.7043  1.0000
  C   C3        1.0  0.77772  0.84555  0.66436  1.0000
  C   C4        1.0  0.6941  0.93463  0.69055  1.0000
  C   C5        1.0  0.59431  0.9380099999999998  0.75522  1.0000
  C   C6        1.0  0.5816099999999998  0.8556499999999999  0.7929100000000001  1.0000
  C   C7        1.0  0.66867  0.76827  0.76987  1.0000
  C   C8        1.0  0.6467  0.6905699999999999  0.8233000000000001  1.0000
  C   C9        1.0  0.71828  0.02632  0.65758  1.0000
  C   C10       1.0  0.7692599999999999  0.009049999999999997  0.5631  1.0000
  C   C11       1.0  0.80239  0.09941999999999995  0.53961  1.0000
  C   C12       1.0  0.78487  0.20854999999999996  0.60921  1.0000
  C   C13       1.0  0.72777  0.22574999999999995  0.70136  1.0000
  C   C14       1.0  0.6966499999999999  0.13565000000000002  0.72546  1.0000
  C   C15       1.0  0.8419699999999998  0.30413  0.59306  1.0000
  C   C16       1.0  0.68264  0.33594999999999997  0.77388  1.0000
  C   C17       1.0  0.37296999999999997  0.3201499999999999  0.82204  1.0000
  C   C18       1.0  0.26913999999999993  0.23685999999999996  0.79509  1.0000
  C   C19       1.0  0.27939  0.15513  0.83516  1.0000
  C   C20       1.0  0.19561  0.06601000000000004  0.8088900000000001  1.0000
  C   C21       1.0  0.09554999999999998  0.06249999999999995  0.74402  1.0000
  C   C22       1.0  0.08243  0.14483  0.70637  1.0000
  C   C23       1.0  0.16946  0.23222  0.72945  1.0000
  C   C24       1.0  0.14633  0.3096399999999999  0.67589  1.0000
  C   C25       1.0  0.21909  0.9742599999999998  0.8420400000000001  1.0000
  C   C26       1.0  0.26881  0.9914499999999998  0.93707  1.0000
  C   C27       1.0  0.30165999999999993  0.90109  0.96083  1.0000
  C   C28       1.0  0.28451  0.7920699999999998  0.89096  1.0000
  C   C29       1.0  0.22814  0.7749199999999998  0.79833  1.0000
  C   C30       1.0  0.19765  0.86492  0.7738500000000001  1.0000
  C   C31       1.0  0.34141  0.69603  0.90668  1.0000
  C   C32       1.0  0.18275  0.66465  0.72596  1.0000
  C   C33       1.0  0.12864  0.31952999999999987  0.32258  1.0000
  C   C34       1.0  0.2324  0.23611999999999994  0.29515  1.0000
  C   C35       1.0  0.22246999999999997  0.15459999999999993  0.3354  1.0000
  C   C36       1.0  0.30588  0.06541999999999998  0.30951  1.0000
  C   C37       1.0  0.40583  0.06167999999999997  0.2449  1.0000
  C   C38       1.0  0.41861  0.14362999999999995  0.20679  1.0000
  C   C39       1.0  0.33163  0.23102999999999996  0.22937000000000002  1.0000
  C   C40       1.0  0.35526  0.30800999999999995  0.17546  1.0000
  C   C41       1.0  0.28141  0.9738099999999997  0.3425  1.0000
  C   C42       1.0  0.23047999999999993  0.9911099999999998  0.43699000000000005  1.0000
  C   C43       1.0  0.19739  0.90068  0.4604  1.0000
  C   C44       1.0  0.215  0.7915799999999998  0.39078  1.0000
  C   C45       1.0  0.27203  0.7743699999999999  0.29861  1.0000
  C   C46       1.0  0.30314  0.86449  0.27457  1.0000
  C   C47       1.0  0.15815999999999997  0.6959299999999998  0.40692999999999996  1.0000
  C   C48       1.0  0.31719  0.66413  0.22614  1.0000
  C   C49       1.0  0.62731  0.6794399999999998  0.17765  1.0000
  C   C50       1.0  0.73089  0.7630499999999999  0.20496  1.0000
  C   C51       1.0  0.72073  0.8447099999999997  0.16479  1.0000
  C   C52       1.0  0.80451  0.9338299999999998  0.19103  1.0000
  C   C53       1.0  0.9044799999999997  0.93739  0.25597  1.0000
  C   C54       1.0  0.91747  0.85524  0.29384  1.0000
  C   C55       1.0  0.83044  0.76783  0.27076  1.0000
  C   C56       1.0  0.85368  0.69026  0.32416000000000006  1.0000
  C   C57       1.0  0.7811299999999998  0.02564  0.1579  1.0000
  C   C58       1.0  0.7315999999999999  0.00852  0.06282  1.0000
  C   C59       1.0  0.69858  0.09891999999999997  0.03918  1.0000
  C   C60       1.0  0.7154699999999999  0.20792  0.10915  1.0000
  C   C61       1.0  0.77185  0.22503  0.20177  1.0000
  C   C62       1.0  0.80235  0.13499999999999998  0.22623  1.0000
  C   C63       1.0  0.65863  0.30398  0.09342  1.0000
  C   C64       1.0  0.81733  0.3353199999999999  0.27406  1.0000
  O   O1        1.0  0.96291  0.7002499999999998  0.6300800000000001  1.0000
  O   O2        1.0  0.86242  0.59798  0.70381  1.0000
  O   O3        1.0  0.6002  0.5948  0.76275  1.0000
  O   O4        1.0  0.66186  0.72417  0.91452  1.0000
  O   O5        1.0  0.86954  0.38726999999999984  0.6738499999999998  1.0000
  O   O6        1.0  0.8617999999999999  0.2939699999999999  0.50362  1.0000
  O   O7        1.0  0.71249  0.36363  0.86525  1.0000
  O   O8        1.0  0.60494  0.3835899999999999  0.73574  1.0000
  O   O9        1.0  0.04413  0.4657599999999999  0.56021  1.0000
  O   O10       1.0  0.46586999999999995  0.29955  0.86743  1.0000
  O   O11       1.0  0.36236  0.40373999999999993  0.79681  1.0000
  O   O12       1.0  0.09948  0.40507  0.73645  1.0000
  O   O13       1.0  0.16090999999999997  0.27598  0.58461  1.0000
  O   O14       1.0  0.37401  0.61592  0.82548  1.0000
  O   O15       1.0  0.35594  0.70312  0.99583  1.0000
  O   O16       1.0  0.21197  0.6369799999999998  0.63455  1.0000
  O   O17       1.0  0.10581999999999998  0.6166499999999998  0.76413  1.0000
  O   O18       1.0  0.54331  0.5348  0.94023  1.0000
  O   O19       1.0  0.03744  0.2999099999999999  0.36977  1.0000
  O   O20       1.0  0.13776  0.4022399999999999  0.29612  1.0000
  O   O21       1.0  0.39901  0.4048199999999999  0.23634  1.0000
  O   O22       1.0  0.34432  0.27281  0.08374  1.0000
  O   O23       1.0  0.13045  0.61285  0.32615  1.0000
  O   O24       1.0  0.13869  0.7059699999999999  0.49639  1.0000
  O   O25       1.0  0.28741  0.6364499999999997  0.13475  1.0000
  O   O26       1.0  0.3948499999999999  0.61641  0.26422  1.0000
  O   O27       1.0  0.95618  0.5343  0.43982  1.0000
  O   O28       1.0  0.53512  0.6993499999999998  0.13121  1.0000
  O   O29       1.0  0.63752  0.59621  0.20341  1.0000
  O   O30       1.0  0.9004899999999998  0.59485  0.26346  1.0000
  O   O31       1.0  0.83923  0.72373  0.41541  1.0000
  O   O32       1.0  0.62581  0.38399999999999995  0.17462  1.0000
  O   O33       1.0  0.64431  0.297  0.00428  1.0000
  O   O34       1.0  0.7882499999999999  0.36302  0.36549  1.0000
  O   O35       1.0  0.8942599999999998  0.3832599999999999  0.23583  1.0000
  O   O36       1.0  0.45638  0.46495  0.05961  1.0000
