data_image0
_chemical_formula_structural       Nb12Cu4H12C20S12N16Cl24
_chemical_formula_sum              "Nb12 Cu4 H12 C20 S12 N16 Cl24"
_cell_length_a       12.29038
_cell_length_b       12.74989
_cell_length_c       19.60238
_cell_angle_alpha    89.96335999999998
_cell_angle_beta     93.12349
_cell_angle_gamma    90.14967000000001

_symmetry_space_group_name_H-M    'P 1'
_symmetry_Int_Tables_number       1

loop_
  _symmetry_equiv_pos_as_xyz
  'x,y,z'

loop_
  _atom_site_type_symbol
  _atom_site_label
  _atom_site_symmetry_multiplicity
  _atom_site_fract_x
  _atom_site_fract_y
  _atom_site_fract_z
  _atom_site_occupancy
  Nb  Nb1       1.0  0.11751000000000003  0.8883100000000002  0.07431  1.0000
  Nb  Nb2       1.0  0.14042  0.13874  0.00052  1.0000
  Nb  Nb3       1.0  0.9302500000000002  0.08239000000000003  0.10033999999999998  1.0000
  Nb  Nb4       1.0  0.38152  0.3880200000000001  0.42572  1.0000
  Nb  Nb5       1.0  0.36068  0.63857  0.49950999999999995  1.0000
  Nb  Nb6       1.0  0.57001  0.58206  0.39967  1.0000
  Nb  Nb7       1.0  0.8822700000000001  0.11202000000000002  0.9256099999999998  1.0000
  Nb  Nb8       1.0  0.8595200000000001  0.8613  0.9993499999999998  1.0000
  Nb  Nb9       1.0  0.06965  0.91786  0.89954  1.0000
  Nb  Nb10      1.0  0.6184300000000001  0.61171  0.5742599999999999  1.0000
  Nb  Nb11      1.0  0.6396600000000001  0.36124  0.50029  1.0000
  Nb  Nb12      1.0  0.4300700000000001  0.41776  0.60032  1.0000
  Cu  Cu1       1.0  0.53033  0.74377  0.14199999999999996  1.0000
  Cu  Cu2       1.0  0.9676100000000002  0.24418  0.35807  1.0000
  Cu  Cu3       1.0  0.46995  0.25673  0.8582599999999999  1.0000
  Cu  Cu4       1.0  0.03222  0.75578  0.64173  1.0000
  H   H1        1.0  0.58384  0.12871  0.12119999999999999  1.0000
  H   H2        1.0  0.47444000000000003  0.12496000000000003  0.05641  1.0000
  H   H3        1.0  0.61164  0.0901  0.036669999999999994  1.0000
  H   H4        1.0  0.91673  0.62787  0.3786499999999999  1.0000
  H   H5        1.0  0.02662  0.62398  0.44309  1.0000
  H   H6        1.0  0.88924  0.58991  0.4633899999999999  1.0000
  H   H7        1.0  0.4159600000000001  0.8719300000000001  0.87873  1.0000
  H   H8        1.0  0.5256  0.8756100000000002  0.94346  1.0000
  H   H9        1.0  0.3884200000000001  0.9107200000000002  0.96334  1.0000
  H   H10       1.0  0.08384  0.3721100000000001  0.6212699999999999  1.0000
  H   H11       1.0  0.9737600000000001  0.37576000000000004  0.5569  1.0000
  H   H12       1.0  0.11107000000000003  0.41006000000000004  0.5364599999999999  1.0000
  C   C1        1.0  0.29663000000000006  0.7492700000000002  0.16321  1.0000
  C   C2        1.0  0.34394  0.2976  0.97713  1.0000
  C   C3        1.0  0.8345900000000003  0.18461000000000002  0.2374  1.0000
  C   C4        1.0  0.52906  0.9791900000000002  0.09266  1.0000
  C   C5        1.0  0.5503600000000001  0.08708  0.07557  1.0000
  C   C6        1.0  0.20161000000000007  0.24971  0.33656  1.0000
  C   C7        1.0  0.15883  0.7979100000000002  0.5231  1.0000
  C   C8        1.0  0.6646500000000002  0.68436  0.2622  1.0000
  C   C9        1.0  0.97026  0.47842000000000007  0.40751  1.0000
  C   C10       1.0  0.9501500000000002  0.58641  0.42429999999999995  1.0000
  C   C11       1.0  0.70332  0.25114000000000003  0.8365799999999999  1.0000
  C   C12       1.0  0.65607  0.7025500000000002  0.02298  1.0000
  C   C13       1.0  0.16531  0.8154800000000002  0.76255  1.0000
  C   C14       1.0  0.47104000000000007  0.021470000000000003  0.90726  1.0000
  C   C15       1.0  0.4496300000000001  0.91355  0.9243399999999999  1.0000
  C   C16       1.0  0.7982600000000004  0.75006  0.66343  1.0000
  C   C17       1.0  0.84163  0.20198000000000005  0.47687999999999997  1.0000
  C   C18       1.0  0.3353400000000001  0.31576  0.73788  1.0000
  C   C19       1.0  0.0299  0.52153  0.5924  1.0000
  C   C20       1.0  0.05022  0.41351000000000004  0.57562  1.0000
  S   S1        1.0  0.3925000000000001  0.6806700000000001  0.20334999999999998  1.0000
  S   S2        1.0  0.4479900000000001  0.36396  0.95067  1.0000
  S   S3        1.0  0.7927400000000001  0.23926000000000006  0.3064799999999999  1.0000
  S   S4        1.0  0.10500000000000002  0.18139  0.29664999999999997  1.0000
  S   S5        1.0  0.05535000000000001  0.8641  0.54988  1.0000
  S   S6        1.0  0.70572  0.7405400000000001  0.19332  1.0000
  S   S7        1.0  0.60743  0.31989  0.79654  1.0000
  S   S8        1.0  0.55196  0.6364900000000001  0.04967  1.0000
  S   S9        1.0  0.20701  0.76077  0.69345  1.0000
  S   S10       1.0  0.8948500000000003  0.8186  0.7031999999999999  1.0000
  S   S11       1.0  0.9450400000000002  0.1358  0.44997  1.0000
  S   S12       1.0  0.29449  0.26014  0.807  1.0000
  N   N1        1.0  0.22542000000000004  0.79748  0.13457  1.0000
  N   N2        1.0  0.26904  0.24673  0.99409  1.0000
  N   N3        1.0  0.86427  0.14732  0.18613  1.0000
  N   N4        1.0  0.51222  0.89175  0.10566  1.0000
  N   N5        1.0  0.27354  0.29746  0.36508  1.0000
  N   N6        1.0  0.23314  0.7470100000000002  0.50573  1.0000
  N   N7        1.0  0.63541  0.6462800000000002  0.3134  1.0000
  N   N8        1.0  0.9865400000000002  0.39088  0.39483  1.0000
  N   N9        1.0  0.77449  0.20281000000000002  0.86519  1.0000
  N   N10       1.0  0.73101  0.75318  0.0058  1.0000
  N   N11       1.0  0.13569  0.85283  0.8138099999999999  1.0000
  N   N12       1.0  0.4879700000000001  0.10896000000000002  0.8944099999999999  1.0000
  N   N13       1.0  0.72636  0.7021700000000002  0.635  1.0000
  N   N14       1.0  0.7673000000000001  0.25287  0.49425  1.0000
  N   N15       1.0  0.36452  0.3536  0.68658  1.0000
  N   N16       1.0  0.013430000000000001  0.60903  0.60507  1.0000
  Cl  Cl1       1.0  0.97593  0.74718  0.07725999999999998  1.0000
  Cl  Cl2       1.0  0.19435000000000005  0.8022700000000001  0.97218  1.0000
  Cl  Cl3       1.0  0.26441000000000003  0.02631  0.07529  1.0000
  Cl  Cl4       1.0  0.04656  0.9694200000000001  0.17932  1.0000
  Cl  Cl5       1.0  0.21486  0.054910000000000014  0.8973199999999999  1.0000
  Cl  Cl6       1.0  0.07203  0.22433000000000006  0.10426999999999999  1.0000
  Cl  Cl7       1.0  0.52237  0.24685  0.42277  1.0000
  Cl  Cl8       1.0  0.30448000000000003  0.30199  0.52796  1.0000
  Cl  Cl9       1.0  0.23552000000000003  0.52619  0.42504999999999993  1.0000
  Cl  Cl10      1.0  0.4527900000000001  0.46958  0.32076  1.0000
  Cl  Cl11      1.0  0.28575  0.5551100000000001  0.60288  1.0000
  Cl  Cl12      1.0  0.42911000000000005  0.72425  0.39569999999999994  1.0000
  Cl  Cl13      1.0  0.02410999999999999  0.25299  0.9226799999999998  1.0000
  Cl  Cl14      1.0  0.80558  0.19795  0.027749999999999997  1.0000
  Cl  Cl15      1.0  0.73555  0.9738800000000001  0.9247199999999999  1.0000
  Cl  Cl16      1.0  0.9532900000000002  0.030670000000000003  0.82061  1.0000
  Cl  Cl17      1.0  0.78507  0.94503  0.10257  1.0000
  Cl  Cl18      1.0  0.92789  0.77571  0.8955599999999999  1.0000
  Cl  Cl19      1.0  0.4778000000000001  0.7529700000000001  0.57704  1.0000
  Cl  Cl20      1.0  0.6955800000000002  0.6978700000000002  0.472  1.0000
  Cl  Cl21      1.0  0.7646600000000002  0.4737300000000001  0.57472  1.0000
  Cl  Cl22      1.0  0.5471100000000001  0.5304000000000001  0.6791899999999998  1.0000
  Cl  Cl23      1.0  0.71431  0.44482  0.39695  1.0000
  Cl  Cl24      1.0  0.57095  0.27562  0.6041299999999998  1.0000
