data_image0
_chemical_formula_structural       Zn8H12C48S12O26
_chemical_formula_sum              "Zn8 H12 C48 S12 O26"
_cell_length_a       20.98538
_cell_length_b       20.96155
_cell_length_c       20.85341
_cell_angle_alpha    59.42579
_cell_angle_beta     59.441399999999994
_cell_angle_gamma    59.65137

_space_group_name_H-M_alt    "P 1"
_space_group_IT_number       1

loop_
  _space_group_symop_operation_xyz
  'x, y, z'

loop_
  _atom_site_type_symbol
  _atom_site_label
  _atom_site_symmetry_multiplicity
  _atom_site_fract_x
  _atom_site_fract_y
  _atom_site_fract_z
  _atom_site_occupancy
  Zn  Zn1       1.0  0.78937  0.6342699999999999  0.78889  1.0000
  Zn  Zn2       1.0  0.78754  0.788  0.7889600000000001  1.0000
  Zn  Zn3       1.0  0.6348400000000002  0.7880599999999999  0.7895100000000002  1.0000
  Zn  Zn4       1.0  0.78852  0.78973  0.63309  1.0000
  Zn  Zn5       1.0  0.21063000000000004  0.36573  0.21111  1.0000
  Zn  Zn6       1.0  0.21244999999999994  0.21200000000000002  0.21104  1.0000
  Zn  Zn7       1.0  0.36515999999999993  0.21194  0.21049  1.0000
  Zn  Zn8       1.0  0.21148000000000006  0.21026999999999996  0.36691  1.0000
  H   H1        1.0  0.94058  0.9407699999999999  0.45637  1.0000
  H   H2        1.0  0.6633200000000001  0.45844999999999997  0.93911  1.0000
  H   H3        1.0  0.45861999999999997  0.93832  0.66467  1.0000
  H   H4        1.0  0.9380500000000003  0.66359  0.93788  1.0000
  H   H5        1.0  0.9394900000000002  0.66354  0.45727  1.0000
  H   H6        1.0  0.66332  0.93822  0.93796  1.0000
  H   H7        1.0  0.059420000000000014  0.059230000000000005  0.54363  1.0000
  H   H8        1.0  0.3366799999999999  0.54156  0.06089000000000001  1.0000
  H   H9        1.0  0.54137  0.06167999999999999  0.33533  1.0000
  H   H10       1.0  0.06195000000000006  0.3364099999999999  0.06211  1.0000
  H   H11       1.0  0.06050000000000007  0.33645999999999987  0.54273  1.0000
  H   H12       1.0  0.33667  0.06178999999999999  0.06204  1.0000
  C   C1        1.0  0.95219  0.9523199999999998  0.49394  1.0000
  C   C2        1.0  0.6019600000000002  0.49500999999999995  0.9515199999999999  1.0000
  C   C3        1.0  0.4951099999999998  0.9510799999999999  0.60265  1.0000
  C   C4        1.0  0.9511599999999998  0.60194  0.95099  1.0000
  C   C5        1.0  0.9517200000000001  0.6020699999999998  0.49433999999999995  1.0000
  C   C6        1.0  0.6017899999999998  0.9511900000000001  0.95106  1.0000
  C   C7        1.0  0.6290800000000001  0.6253899999999998  0.87357  1.0000
  C   C8        1.0  0.5784200000000002  0.5764299999999999  0.92275  1.0000
  C   C9        1.0  0.8726100000000003  0.8730999999999997  0.62482  1.0000
  C   C10       1.0  0.9225600000000005  0.9226999999999999  0.57593  1.0000
  C   C11       1.0  0.6254499999999997  0.8731100000000002  0.62892  1.0000
  C   C12       1.0  0.57645  0.9225999999999999  0.57833  1.0000
  C   C13       1.0  0.8730300000000002  0.6284499999999998  0.87294  1.0000
  C   C14       1.0  0.9228500000000001  0.57789  0.92257  1.0000
  C   C15       1.0  0.8731799999999998  0.6291399999999999  0.62523  1.0000
  C   C16       1.0  0.9226199999999998  0.57846  0.5763200000000002  1.0000
  C   C17       1.0  0.62834  0.87276  0.87329  1.0000
  C   C18       1.0  0.57777  0.9226599999999999  0.92281  1.0000
  C   C19       1.0  0.46352999999999994  0.53107  0.00274  1.0000
  C   C20       1.0  0.99773  0.9977599999999999  0.46845000000000003  1.0000
  C   C21       1.0  0.5309899999999997  0.002989999999999999  0.46306  1.0000
  C   C22       1.0  0.002990000000000016  0.46337999999999996  0.00301  1.0000
  C   C23       1.0  0.0025700000000000145  0.46347  0.53147  1.0000
  C   C24       1.0  0.46345  0.00291  0.00303  1.0000
  C   C25       1.0  0.04781000000000001  0.04768999999999999  0.50606  1.0000
  C   C26       1.0  0.39804  0.50499  0.04847  1.0000
  C   C27       1.0  0.50488  0.048919999999999984  0.39735  1.0000
  C   C28       1.0  0.04883000000000007  0.39806999999999987  0.04901  1.0000
  C   C29       1.0  0.048279999999999997  0.39793  0.50565  1.0000
  C   C30       1.0  0.39821  0.048819999999999995  0.04894  1.0000
  C   C31       1.0  0.3709200000000001  0.3746099999999999  0.12642  1.0000
  C   C32       1.0  0.42158000000000007  0.42357  0.07725  1.0000
  C   C33       1.0  0.12739000000000014  0.12690999999999997  0.37518  1.0000
  C   C34       1.0  0.07744  0.0773  0.42406  1.0000
  C   C35       1.0  0.37455000000000005  0.12689  0.37108  1.0000
  C   C36       1.0  0.42355000000000004  0.07739999999999998  0.42167  1.0000
  C   C37       1.0  0.12695999999999996  0.37156  0.12706  1.0000
  C   C38       1.0  0.07715000000000002  0.42210999999999993  0.07743  1.0000
  C   C39       1.0  0.12682000000000002  0.37087  0.37476  1.0000
  C   C40       1.0  0.07738000000000002  0.42154  0.42367  1.0000
  C   C41       1.0  0.37166  0.12725  0.12671  1.0000
  C   C42       1.0  0.42223  0.07734  0.07719  1.0000
  C   C43       1.0  0.53648  0.4689299999999999  0.9972500000000001  1.0000
  C   C44       1.0  0.0022700000000000073  0.002240000000000008  0.53154  1.0000
  C   C45       1.0  0.46900000000000014  0.9970099999999997  0.53694  1.0000
  C   C46       1.0  0.9970100000000002  0.53662  0.99699  1.0000
  C   C47       1.0  0.99743  0.53653  0.46853000000000006  1.0000
  C   C48       1.0  0.5365500000000002  0.99709  0.99697  1.0000
  S   S1        1.0  0.47657000000000005  0.6217999999999999  0.95098  1.0000
  S   S2        1.0  0.9498899999999999  0.94989  0.62248  1.0000
  S   S3        1.0  0.6216400000000001  0.95141  0.47551999999999994  1.0000
  S   S4        1.0  0.95159  0.47597000000000006  0.95144  1.0000
  S   S5        1.0  0.9505500000000001  0.47649  0.62259  1.0000
  S   S6        1.0  0.47602  0.9512700000000001  0.9516799999999999  1.0000
  S   S7        1.0  0.5234299999999998  0.3782  0.04901  1.0000
  S   S8        1.0  0.05011000000000004  0.05010999999999999  0.37751  1.0000
  S   S9        1.0  0.3783500000000001  0.04859  0.52448  1.0000
  S   S10       1.0  0.04841000000000002  0.52404  0.04856  1.0000
  S   S11       1.0  0.04945000000000001  0.52351  0.37741  1.0000
  S   S12       1.0  0.52397  0.04872999999999999  0.04832  1.0000
  O   O1        1.0  0.7502399999999998  0.7499399999999998  0.74976  1.0000
  O   O2        1.0  0.70326  0.5896899999999997  0.85422  1.0000
  O   O3        1.0  0.85249  0.8529299999999999  0.69995  1.0000
  O   O4        1.0  0.5936200000000001  0.69995  0.85476  1.0000
  O   O5        1.0  0.8538399999999998  0.8546999999999998  0.58834  1.0000
  O   O6        1.0  0.5897000000000002  0.85366  0.70381  1.0000
  O   O7        1.0  0.85356  0.70269  0.85357  1.0000
  O   O8        1.0  0.6998999999999999  0.85409  0.59284  1.0000
  O   O9        1.0  0.8536299999999999  0.59313  0.85373  1.0000
  O   O10       1.0  0.8539  0.70343  0.58889  1.0000
  O   O11       1.0  0.7024400000000001  0.8538100000000001  0.85371  1.0000
  O   O12       1.0  0.8541100000000001  0.5934899999999997  0.70038  1.0000
  O   O13       1.0  0.59334  0.85277  0.85433  1.0000
  O   O14       1.0  0.24976000000000004  0.25007  0.25024  1.0000
  O   O15       1.0  0.29674000000000006  0.41031999999999985  0.14578  1.0000
  O   O16       1.0  0.1475  0.14707  0.30004  1.0000
  O   O17       1.0  0.40638  0.30005  0.14524  1.0000
  O   O18       1.0  0.1461600000000001  0.14531  0.41166  1.0000
  O   O19       1.0  0.41030000000000005  0.14635  0.29619  1.0000
  O   O20       1.0  0.14643999999999993  0.29732  0.14642  1.0000
  O   O21       1.0  0.3001  0.14590999999999998  0.40716  1.0000
  O   O22       1.0  0.14637000000000003  0.40687  0.14627  1.0000
  O   O23       1.0  0.14609999999999998  0.29657  0.4111  1.0000
  O   O24       1.0  0.2975599999999999  0.14619999999999997  0.14629  1.0000
  O   O25       1.0  0.14588999999999996  0.40651000000000004  0.29962  1.0000
  O   O26       1.0  0.4066600000000001  0.14723999999999998  0.14567  1.0000
