data_image0
_chemical_formula_structural       Cu3H30C48N12O12
_chemical_formula_sum              "Cu3 H30 C48 N12 O12"
_cell_length_a       11.92034
_cell_length_b       11.84002
_cell_length_c       12.60334
_cell_angle_alpha    77.47102
_cell_angle_beta     88.0054
_cell_angle_gamma    62.89904

_symmetry_space_group_name_H-M    'P 1'
_symmetry_Int_Tables_number       1

loop_
  _symmetry_equiv_pos_as_xyz
  'x,y,z'

loop_
  _atom_site_type_symbol
  _atom_site_label
  _atom_site_symmetry_multiplicity
  _atom_site_fract_x
  _atom_site_fract_y
  _atom_site_fract_z
  _atom_site_occupancy
  Cu  Cu1       1.0  0.9492  0.39973999999999993  0.26356  1.0000
  Cu  Cu2       1.0  0.9285700000000001  0.9219099999999998  0.7948400000000002  1.0000
  Cu  Cu3       1.0  0.40515  0.91494  0.27605  1.0000
  H   H1        1.0  0.90676  0.66863  0.52303  1.0000
  H   H2        1.0  0.14173000000000002  0.8616399999999999  0.4995300000000001  1.0000
  H   H3        1.0  0.15641000000000002  0.64189  0.26466000000000006  1.0000
  H   H4        1.0  0.59219  0.22565999999999997  0.28809  1.0000
  H   H5        1.0  0.8790000000000001  0.19965  0.06471  1.0000
  H   H6        1.0  0.6729000000000002  0.9829399999999998  0.05790000000000001  1.0000
  H   H7        1.0  0.10128000000000001  0.12074  0.77847  1.0000
  H   H8        1.0  0.46174  0.07737000000000001  0.88558  1.0000
  H   H9        1.0  0.3669700000000001  0.14269999999999997  0.5429200000000001  1.0000
  H   H10       1.0  0.16308  0.32486  0.45205000000000006  1.0000
  H   H11       1.0  0.9098  0.17269999999999994  0.42686000000000013  1.0000
  H   H12       1.0  0.050120000000000005  0.04617999999999998  0.6245200000000001  1.0000
  H   H13       1.0  0.44703000000000004  0.9591299999999998  0.03224  1.0000
  H   H14       1.0  0.04998000000000004  0.14621999999999996  0.9501800000000002  1.0000
  H   H15       1.0  0.09795000000000001  0.07355999999999999  0.17382000000000006  1.0000
  H   H16       1.0  0.6578200000000001  0.9676099999999997  0.8401500000000002  1.0000
  H   H17       1.0  0.7738500000000001  0.14059  0.55899  1.0000
  H   H18       1.0  0.51843  0.22060999999999997  0.52681  1.0000
  H   H19       1.0  0.52344  0.6701  0.01785  1.0000
  H   H20       1.0  0.7539000000000001  0.6988999999999999  0.7508  1.0000
  H   H21       1.0  0.35435  0.84063  0.6888900000000001  1.0000
  H   H22       1.0  0.20776000000000006  0.8044799999999999  0.7360300000000001  1.0000
  H   H23       1.0  0.0708500000000001  0.8177199999999998  0.04758000000000001  1.0000
  H   H24       1.0  0.3226200000000001  0.74842  0.06951  1.0000
  H   H25       1.0  0.7098700000000003  0.50631  0.09564  1.0000
  H   H26       1.0  0.8667  0.7196999999999998  0.8827500000000001  1.0000
  H   H27       1.0  0.018960000000000008  0.5895  0.0766  1.0000
  H   H28       1.0  0.3992299999999999  0.80142  0.52733  1.0000
  H   H29       1.0  0.7354500000000002  0.8262699999999997  0.58948  1.0000
  H   H30       1.0  0.6810800000000002  0.8777299999999999  0.36698  1.0000
  C   C1        1.0  0.02215000000000006  0.6518699999999998  0.38675000000000004  1.0000
  C   C2        1.0  0.9766300000000002  0.6940499999999998  0.4821100000000001  1.0000
  C   C3        1.0  0.021220000000000103  0.7672599999999999  0.52458  1.0000
  C   C4        1.0  0.10986000000000001  0.80091  0.46950000000000003  1.0000
  C   C5        1.0  0.15869  0.75589  0.37576  1.0000
  C   C6        1.0  0.11581000000000002  0.6796599999999999  0.33573  1.0000
  C   C7        1.0  0.9711100000000003  0.5740799999999999  0.3440800000000001  1.0000
  C   C8        1.0  0.9761000000000006  0.8052399999999998  0.62948  1.0000
  C   C9        1.0  0.25853  0.78546  0.3182900000000001  1.0000
  C   C10       1.0  0.6190800000000002  0.10298  0.17537  1.0000
  C   C11       1.0  0.6461800000000001  0.18568  0.22222  1.0000
  C   C12       1.0  0.7441700000000001  0.21521  0.18578  1.0000
  C   C13       1.0  0.8072  0.1714499999999999  0.09588000000000002  1.0000
  C   C14       1.0  0.77903  0.0914  0.046870000000000016  1.0000
  C   C15       1.0  0.68885  0.05271  0.09018  1.0000
  C   C16       1.0  0.521  0.06296999999999998  0.22066000000000002  1.0000
  C   C17       1.0  0.7847499999999998  0.29024  0.24429000000000003  1.0000
  C   C18       1.0  0.8470600000000001  0.04624999999999993  0.9508200000000002  1.0000
  C   C19       1.0  0.22385  0.14154  0.65275  1.0000
  C   C20       1.0  0.19307  0.11618000000000002  0.76063  1.0000
  C   C21       1.0  0.2819900000000001  0.08813999999999998  0.8445300000000001  1.0000
  C   C22       1.0  0.3977300000000001  0.08804999999999995  0.8207100000000002  1.0000
  C   C23       1.0  0.42834  0.10702999999999997  0.71244  1.0000
  C   C24       1.0  0.34225  0.13305000000000003  0.62717  1.0000
  C   C25       1.0  0.11394999999999997  0.26625000000000004  0.47072  1.0000
  C   C26       1.0  0.98327  0.18521999999999997  0.4624500000000001  1.0000
  C   C27       1.0  0.050480000000000004  0.12391  0.56137  1.0000
  C   C28       1.0  0.34661  0.0009100000000000004  0.04061  1.0000
  C   C29       1.0  0.13848000000000002  0.10011999999999999  0.99977  1.0000
  C   C30       1.0  0.16380000000000003  0.06017999999999999  0.11064  1.0000
  C   C31       1.0  0.6554999999999999  0.025240000000000002  0.76029  1.0000
  C   C32       1.0  0.7118000000000001  0.11526999999999991  0.6123900000000001  1.0000
  C   C33       1.0  0.58502  0.15543999999999997  0.5951900000000001  1.0000
  C   C34       1.0  0.42677000000000004  0.7498199999999998  0.8566600000000002  1.0000
  C   C35       1.0  0.53172  0.69726  0.93106  1.0000
  C   C36       1.0  0.6480999999999999  0.6821  0.89157  1.0000
  C   C37       1.0  0.66192  0.71575  0.78023  1.0000
  C   C38       1.0  0.55471  0.77001  0.70786  1.0000
  C   C39       1.0  0.4372200000000001  0.79004  0.7456900000000001  1.0000
  C   C40       1.0  0.20479000000000008  0.8007599999999999  0.8223800000000001  1.0000
  C   C41       1.0  0.13788000000000009  0.8042099999999999  0.98551  1.0000
  C   C42       1.0  0.26409000000000005  0.7693399999999998  0.9966800000000002  1.0000
  C   C43       1.0  0.77282  0.54717  0.06629  1.0000
  C   C44       1.0  0.8572200000000002  0.6578699999999996  0.9557000000000001  1.0000
  C   C45       1.0  0.9321700000000003  0.5920199999999999  0.05067000000000001  1.0000
  C   C46       1.0  0.48109999999999997  0.81776  0.5138800000000001  1.0000
  C   C47       1.0  0.6581500000000001  0.8304299999999999  0.54332  1.0000
  C   C48       1.0  0.62925  0.8566799999999999  0.43379  1.0000
  N   N1        1.0  0.02296  0.27388  0.40754  1.0000
  N   N2        1.0  0.13395000000000007  0.17543999999999998  0.56594  1.0000
  N   N3        1.0  0.25578000000000006  0.06283999999999994  0.9553400000000001  1.0000
  N   N4        1.0  0.29362000000000005  0.9988799999999999  0.13456  1.0000
  N   N5        1.0  0.54955  0.09776999999999994  0.6901000000000003  1.0000
  N   N6        1.0  0.75408  0.034469999999999994  0.71538  1.0000
  N   N7        1.0  0.30612  0.76869  0.89174  1.0000
  N   N8        1.0  0.10217000000000025  0.8234299999999994  0.8766500000000003  1.0000
  N   N9        1.0  0.7548500000000001  0.6301000000000001  0.96673  1.0000
  N   N10       1.0  0.87907  0.52291  0.11787000000000002  1.0000
  N   N11       1.0  0.5633300000000001  0.8055699999999999  0.59434  1.0000
  N   N12       1.0  0.5185  0.8492999999999999  0.41662  1.0000
  O   O1        1.0  0.04613000000000002  0.49522999999999995  0.28573000000000004  1.0000
  O   O2        1.0  0.8648899999999999  0.5836  0.36731  1.0000
  O   O3        1.0  0.9130700000000002  0.7584799999999998  0.6880600000000001  1.0000
  O   O4        1.0  0.006239999999999985  0.8891  0.6563  1.0000
  O   O5        1.0  0.28199000000000013  0.8685799999999998  0.35463  1.0000
  O   O6        1.0  0.3114500000000003  0.7320799999999996  0.24292000000000002  1.0000
  O   O7        1.0  0.5318100000000001  0.9564899999999997  0.1962  1.0000
  O   O8        1.0  0.44046  0.12487999999999999  0.27965000000000007  1.0000
  O   O9        1.0  0.71856  0.3493699999999999  0.31195  1.0000
  O   O10       1.0  0.89425  0.2835599999999999  0.21709  1.0000
  O   O11       1.0  0.90232  0.10367  0.89373  1.0000
  O   O12       1.0  0.8451200000000001  0.9431899999999999  0.9313600000000001  1.0000
