data_image0
_chemical_formula_structural       Cd6H28C60O24
_chemical_formula_sum              "Cd6 H28 C60 O24"
_cell_length_a       6.22292
_cell_length_b       15.63569
_cell_length_c       19.38341
_cell_angle_alpha    112.59751
_cell_angle_beta     89.96712
_cell_angle_gamma    101.85855

_symmetry_space_group_name_H-M    'P 1'
_symmetry_Int_Tables_number       1

loop_
  _symmetry_equiv_pos_as_xyz
  'x,y,z'

loop_
  _atom_site_type_symbol
  _atom_site_label
  _atom_site_symmetry_multiplicity
  _atom_site_fract_x
  _atom_site_fract_y
  _atom_site_fract_z
  _atom_site_occupancy
  Cd  Cd1       1.0  0.94427  0.77873  0.64638  1.0000
  Cd  Cd2       1.0  0.17078  0.22155  0.85654  1.0000
  Cd  Cd3       1.0  0.05570999999999999  0.22125999999999998  0.35362  1.0000
  Cd  Cd4       1.0  0.8292  0.77845  0.14345  1.0000
  Cd  Cd5       1.0  0.53258  1.9999999999994784e-05  0.75023  1.0000
  Cd  Cd6       1.0  0.46740999999999994  0.99998  0.24977  1.0000
  H   H1        1.0  0.71061  0.52561  0.41206  1.0000
  H   H2        1.0  0.77748  0.44331  0.59648  1.0000
  H   H3        1.0  0.5836099999999999  0.3546  0.32579  1.0000
  H   H4        1.0  0.9797999999999998  0.30915  0.57719  1.0000
  H   H5        1.0  0.93938  0.19727000000000003  0.64226  1.0000
  H   H6        1.0  0.27434  0.07262  0.54  1.0000
  H   H7        1.0  0.3194399999999999  0.17928  0.47205  1.0000
  H   H8        1.0  0.18183999999999995  0.47518  0.09104  1.0000
  H   H9        1.0  0.3348399999999999  0.5550000000000002  0.9054399999999999  1.0000
  H   H10       1.0  0.22254999999999997  0.64661  0.17578  1.0000
  H   H11       1.0  0.66665  0.69026  0.92221  1.0000
  H   H12       1.0  0.7393499999999997  0.80191  0.85724  1.0000
  H   H13       1.0  0.20273  0.92585  0.96021  1.0000
  H   H14       1.0  0.13908999999999994  0.8192  0.02792  1.0000
  H   H15       1.0  0.28937  0.47439000000000003  0.58794  1.0000
  H   H16       1.0  0.2225  0.55669  0.40352  1.0000
  H   H17       1.0  0.4163799999999998  0.6454  0.6742  1.0000
  H   H18       1.0  0.020179999999999986  0.69085  0.4228  1.0000
  H   H19       1.0  0.06059999999999999  0.80273  0.35773  1.0000
  H   H20       1.0  0.72564  0.92737  0.45999  1.0000
  H   H21       1.0  0.68054  0.8207100000000003  0.52794  1.0000
  H   H22       1.0  0.81814  0.52482  0.9089499999999999  1.0000
  H   H23       1.0  0.6651499999999999  0.445  0.09456  1.0000
  H   H24       1.0  0.7774299999999997  0.35339  0.82422  1.0000
  H   H25       1.0  0.33333  0.30974  0.07779  1.0000
  H   H26       1.0  0.26064  0.19809  0.14275  1.0000
  H   H27       1.0  0.79725  0.07415  0.03979  1.0000
  H   H28       1.0  0.8608899999999999  0.1808000000000001  0.97207  1.0000
  C   C1        1.0  0.55538  0.20343  0.35817  1.0000
  C   C2        1.0  0.6133299999999998  0.30343  0.41311  1.0000
  C   C3        1.0  0.6986399999999999  0.46944  0.43271  1.0000
  C   C4        1.0  0.75273  0.4935400000000001  0.5089  1.0000
  C   C5        1.0  0.7375199999999997  0.4227  0.53693  1.0000
  C   C6        1.0  0.6691199999999998  0.32644  0.48974  1.0000
  C   C7        1.0  0.82396  0.59604  0.55989  1.0000
  C   C8        1.0  0.6267199999999998  0.37463  0.38521  1.0000
  C   C9        1.0  0.65052  0.25402  0.5222  1.0000
  C   C10       1.0  0.8255  0.25773  0.56983  1.0000
  C   C11       1.0  0.80322  0.19474000000000005  0.60583  1.0000
  C   C12       1.0  0.6021  0.12984000000000007  0.59713  1.0000
  C   C13       1.0  0.4294799999999999  0.12361  0.54776  1.0000
  C   C14       1.0  0.45562  0.18406  0.50948  1.0000
  C   C15       1.0  0.56881  0.07448999999999996  0.64595  1.0000
  C   C16       1.0  0.34803999999999996  0.79684  0.14206  1.0000
  C   C17       1.0  0.30634  0.69655  0.08778  1.0000
  C   C18       1.0  0.22624999999999998  0.53104  0.06994  1.0000
  C   C19       1.0  0.25859  0.50641  0.99392  1.0000
  C   C20       1.0  0.31462999999999997  0.57657  0.96501  1.0000
  C   C21       1.0  0.34083  0.67298  0.01118  1.0000
  C   C22       1.0  0.2281  0.40384  0.94362  1.0000
  C   C23       1.0  0.24765  0.62601  0.11648999999999998  1.0000
  C   C24       1.0  0.39404000000000006  0.7448800000000002  0.97794  1.0000
  C   C25       1.0  0.56431  0.74134  0.9298700000000001  1.0000
  C   C26       1.0  0.6059800000000001  0.8042700000000002  0.89377  1.0000
  C   C27       1.0  0.4718199999999999  0.8691999999999999  0.9027399999999999  1.0000
  C   C28       1.0  0.30573000000000006  0.87498  0.95218  1.0000
  C   C29       1.0  0.27033  0.81453  0.99046  1.0000
  C   C30       1.0  0.49506000000000006  0.9252400000000002  0.85439  1.0000
  C   C31       1.0  0.44459999999999994  0.79657  0.64183  1.0000
  C   C32       1.0  0.38664999999999994  0.69656  0.58688  1.0000
  C   C33       1.0  0.30134  0.53056  0.56728  1.0000
  C   C34       1.0  0.24726  0.50646  0.49109  1.0000
  C   C35       1.0  0.26247  0.5773000000000001  0.46307000000000004  1.0000
  C   C36       1.0  0.33085999999999993  0.67356  0.51025  1.0000
  C   C37       1.0  0.17601999999999995  0.40396  0.44011  1.0000
  C   C38       1.0  0.37325999999999987  0.62537  0.61479  1.0000
  C   C39       1.0  0.34946  0.74598  0.4778  1.0000
  C   C40       1.0  0.17448  0.74226  0.43016  1.0000
  C   C41       1.0  0.19676  0.8052599999999999  0.39416  1.0000
  C   C42       1.0  0.39788000000000007  0.8701600000000003  0.40287  1.0000
  C   C43       1.0  0.5705099999999999  0.8763899999999999  0.4522399999999999  1.0000
  C   C44       1.0  0.5443599999999998  0.81594  0.49050999999999995  1.0000
  C   C45       1.0  0.43117999999999984  0.92551  0.35404  1.0000
  C   C46       1.0  0.65194  0.20315999999999995  0.85794  1.0000
  C   C47       1.0  0.69364  0.30344000000000004  0.91222  1.0000
  C   C48       1.0  0.7737299999999998  0.46895  0.93006  1.0000
  C   C49       1.0  0.7413899999999999  0.4935900000000001  0.00607  1.0000
  C   C50       1.0  0.6853499999999998  0.42342  0.03499  1.0000
  C   C51       1.0  0.65915  0.32702000000000003  0.9888200000000001  1.0000
  C   C52       1.0  0.7718799999999998  0.59615  0.05637000000000001  1.0000
  C   C53       1.0  0.7523299999999999  0.37399000000000004  0.88351  1.0000
  C   C54       1.0  0.6059399999999999  0.25511999999999996  0.02206  1.0000
  C   C55       1.0  0.4356699999999999  0.25866  0.07012  1.0000
  C   C56       1.0  0.394  0.19573  0.10623  1.0000
  C   C57       1.0  0.52816  0.13080000000000006  0.09726  1.0000
  C   C58       1.0  0.69426  0.12501  0.04781  1.0000
  C   C59       1.0  0.7296499999999999  0.18547  0.00954  1.0000
  C   C60       1.0  0.5049299999999999  0.07475  0.1456  1.0000
  O   O1        1.0  0.69563  0.15118  0.35227  1.0000
  O   O2        1.0  0.37418999999999997  0.172  0.31589  1.0000
  O   O3        1.0  0.4044  0.08275000000000007  0.68596  1.0000
  O   O4        1.0  0.70756  0.02607999999999999  0.64923  1.0000
  O   O5        1.0  0.8740000000000001  0.6204000000000002  0.63  1.0000
  O   O6        1.0  0.8315799999999999  0.65805  0.53146  1.0000
  O   O7        1.0  0.54179  0.84957  0.14809  1.0000
  O   O8        1.0  0.19794  0.828  0.18374  1.0000
  O   O9        1.0  0.32121  0.91771  0.81517  1.0000
  O   O10       1.0  0.68327  0.9738099999999998  0.85095  1.0000
  O   O11       1.0  0.26025  0.37971  0.87404  1.0000
  O   O12       1.0  0.16724  0.34173000000000003  0.97167  1.0000
  O   O13       1.0  0.3043499999999999  0.84882  0.64773  1.0000
  O   O14       1.0  0.62579  0.828  0.6841  1.0000
  O   O15       1.0  0.59559  0.91725  0.31404  1.0000
  O   O16       1.0  0.29242  0.97392  0.35076  1.0000
  O   O17       1.0  0.12598000000000004  0.3795900000000001  0.36999  1.0000
  O   O18       1.0  0.1684  0.34195  0.46854  1.0000
  O   O19       1.0  0.4581999999999999  0.15043  0.8519  1.0000
  O   O20       1.0  0.80205  0.17199999999999996  0.81625  1.0000
  O   O21       1.0  0.67877  0.08228  0.18483  1.0000
  O   O22       1.0  0.31672  0.026189999999999998  0.14904  1.0000
  O   O23       1.0  0.7397299999999999  0.62029  0.12596  1.0000
  O   O24       1.0  0.83275  0.65827  0.028319999999999998  1.0000
