data_image0
_chemical_formula_structural       Cd6H36C64O28
_chemical_formula_sum              "Cd6 H36 C64 O28"
_cell_length_a       7.12031
_cell_length_b       12.61891
_cell_length_c       18.28487
_cell_angle_alpha    89.88471999999999
_cell_angle_beta     90.09178
_cell_angle_gamma    79.0317

_symmetry_space_group_name_H-M    'P 1'
_symmetry_Int_Tables_number       1

loop_
  _symmetry_equiv_pos_as_xyz
  'x,y,z'

loop_
  _atom_site_type_symbol
  _atom_site_label
  _atom_site_symmetry_multiplicity
  _atom_site_fract_x
  _atom_site_fract_y
  _atom_site_fract_z
  _atom_site_occupancy
  Cd  Cd1       1.0  0.52364  0.86033  0.47394  1.0000
  Cd  Cd2       1.0  0.9756799999999998  0.14011  0.9731100000000001  1.0000
  Cd  Cd3       1.0  0.4763799999999999  0.13967  0.52606  1.0000
  Cd  Cd4       1.0  0.02432  0.85989  0.02689  1.0000
  Cd  Cd5       1.0  1.9999999999961072e-05  0.99999  0.5  1.0000
  Cd  Cd6       1.0  0.50001  0.0  0.0  1.0000
  H   H1        1.0  0.15097000000000005  0.9868499999999999  0.26804  1.0000
  H   H2        1.0  0.26454999999999995  0.1928  0.09189  1.0000
  H   H3        1.0  0.33431  0.28578  0.31516  1.0000
  H   H4        1.0  0.44331000000000004  0.30374  0.07722  1.0000
  H   H5        1.0  0.22164  0.39682  0.08638  1.0000
  H   H6        1.0  0.74344  0.36005  0.07578  1.0000
  H   H7        1.0  0.92001  0.51041  0.05743  1.0000
  H   H8        1.0  0.40329000000000004  0.74101  0.0969  1.0000
  H   H9        1.0  0.22708  0.59014  0.11879999999999999  1.0000
  H   H10       1.0  0.34928  0.01254  0.7688  1.0000
  H   H11       1.0  0.23627000000000004  0.80732  0.59264  1.0000
  H   H12       1.0  0.16531999999999997  0.71342  0.81591  1.0000
  H   H13       1.0  0.05227000000000002  0.69809  0.57865  1.0000
  H   H14       1.0  0.27524  0.60517  0.58508  1.0000
  H   H15       1.0  0.75321  0.64155  0.57783  1.0000
  H   H16       1.0  0.57542  0.49188  0.55908  1.0000
  H   H17       1.0  0.09427999999999997  0.26032  0.5945  1.0000
  H   H18       1.0  0.2713199999999999  0.41045  0.61685  1.0000
  H   H19       1.0  0.84905  0.01313  0.73195  1.0000
  H   H20       1.0  0.73544  0.80722  0.9081099999999999  1.0000
  H   H21       1.0  0.66567  0.71421  0.68485  1.0000
  H   H22       1.0  0.5567299999999998  0.6962700000000001  0.92279  1.0000
  H   H23       1.0  0.77838  0.60318  0.91363  1.0000
  H   H24       1.0  0.25654  0.63996  0.92423  1.0000
  H   H25       1.0  0.07998  0.48961  0.94256  1.0000
  H   H26       1.0  0.59669  0.25901  0.9031  1.0000
  H   H27       1.0  0.77291  0.40988  0.88121  1.0000
  H   H28       1.0  0.65072  0.98746  0.23119999999999996  1.0000
  H   H29       1.0  0.76374  0.19268  0.40736  1.0000
  H   H30       1.0  0.83469  0.28658  0.18409  1.0000
  H   H31       1.0  0.94775  0.30191  0.42136  1.0000
  H   H32       1.0  0.72478  0.39482000000000006  0.41492  1.0000
  H   H33       1.0  0.24680999999999997  0.35844  0.42217999999999994  1.0000
  H   H34       1.0  0.4245899999999999  0.50812  0.44092  1.0000
  H   H35       1.0  0.9057300000000001  0.7396699999999999  0.4055  1.0000
  H   H36       1.0  0.7287  0.58955  0.38316  1.0000
  C   C1        1.0  0.23911000000000002  0.13475  0.30013  1.0000
  C   C2        1.0  0.19533  0.06006  0.24952999999999997  1.0000
  C   C3        1.0  0.20807  0.08154  0.17483999999999997  1.0000
  C   C4        1.0  0.25924999999999987  0.17784000000000003  0.15025  1.0000
  C   C5        1.0  0.30413  0.25174  0.20126999999999998  1.0000
  C   C6        1.0  0.29575999999999997  0.22882  0.27612  1.0000
  C   C7        1.0  0.22726999999999994  0.11383999999999998  0.38036999999999993  1.0000
  C   C8        1.0  0.15926  0.00353  0.12144  1.0000
  C   C9        1.0  0.77518  0.72312  0.05672  1.0000
  C   C10       1.0  0.67169  0.63493  0.07511  1.0000
  C   C11       1.0  0.36866  0.37405999999999995  0.10771  1.0000
  C   C12       1.0  0.47459  0.46554000000000006  0.09922  1.0000
  C   C13       1.0  0.66991  0.44341  0.08202999999999999  1.0000
  C   C14       1.0  0.7684999999999998  0.5273  0.07115  1.0000
  C   C15       1.0  0.47608  0.6572  0.09303999999999998  1.0000
  C   C16       1.0  0.37897  0.57291  0.10586  1.0000
  C   C17       1.0  0.26041  0.86464  0.80098  1.0000
  C   C18       1.0  0.30508  0.93932  0.75026  1.0000
  C   C19       1.0  0.29123000000000004  0.9186  0.67552  1.0000
  C   C20       1.0  0.24063000000000004  0.82218  0.6509899999999998  1.0000
  C   C21       1.0  0.19722  0.74763  0.70198  1.0000
  C   C22       1.0  0.2040799999999999  0.77053  0.77691  1.0000
  C   C23       1.0  0.27317999999999987  0.8856700000000001  0.88131  1.0000
  C   C24       1.0  0.34049999999999997  0.99656  0.6218299999999999  1.0000
  C   C25       1.0  0.72099  0.27897  0.55555  1.0000
  C   C26       1.0  0.8247  0.36683  0.57467  1.0000
  C   C27       1.0  0.12974  0.62696  0.6079  1.0000
  C   C28       1.0  0.023119999999999998  0.53564  0.5994299999999999  1.0000
  C   C29       1.0  0.82694  0.55806  0.5831999999999999  1.0000
  C   C30       1.0  0.72768  0.4745400000000001  0.57203  1.0000
  C   C31       1.0  0.021179999999999984  0.3441600000000001  0.59165  1.0000
  C   C32       1.0  0.11888999999999998  0.42811000000000005  0.60479  1.0000
  C   C33       1.0  0.7608999999999999  0.86525  0.69987  1.0000
  C   C34       1.0  0.8046899999999998  0.93993  0.75047  1.0000
  C   C35       1.0  0.79192  0.91846  0.82516  1.0000
  C   C36       1.0  0.74073  0.82216  0.84975  1.0000
  C   C37       1.0  0.69588  0.74826  0.79873  1.0000
  C   C38       1.0  0.70425  0.77118  0.72388  1.0000
  C   C39       1.0  0.77273  0.8861699999999999  0.61963  1.0000
  C   C40       1.0  0.84074  0.99648  0.8785499999999999  1.0000
  C   C41       1.0  0.22479000000000002  0.2769  0.94328  1.0000
  C   C42       1.0  0.32829  0.36509  0.9248899999999999  1.0000
  C   C43       1.0  0.63136  0.62595  0.8923  1.0000
  C   C44       1.0  0.52541  0.53447  0.90079  1.0000
  C   C45       1.0  0.33008  0.55661  0.91798  1.0000
  C   C46       1.0  0.23148  0.47272  0.92885  1.0000
  C   C47       1.0  0.5239  0.34282  0.9069700000000002  1.0000
  C   C48       1.0  0.62102  0.42710000000000004  0.89414  1.0000
  C   C49       1.0  0.7396  0.13536  0.19902  1.0000
  C   C50       1.0  0.69493  0.06067999999999999  0.24974  1.0000
  C   C51       1.0  0.70878  0.08140000000000001  0.32448  1.0000
  C   C52       1.0  0.75939  0.17782  0.34901  1.0000
  C   C53       1.0  0.8027799999999998  0.25237  0.29802  1.0000
  C   C54       1.0  0.79592  0.22946999999999998  0.22309000000000004  1.0000
  C   C55       1.0  0.72684  0.11433  0.11869000000000002  1.0000
  C   C56       1.0  0.65952  0.0034399999999999995  0.37817  1.0000
  C   C57       1.0  0.27902  0.72103  0.44444999999999996  1.0000
  C   C58       1.0  0.17531000000000002  0.63317  0.42532999999999993  1.0000
  C   C59       1.0  0.87027  0.37303  0.3921  1.0000
  C   C60       1.0  0.9769000000000001  0.46435000000000004  0.40057  1.0000
  C   C61       1.0  0.17307999999999998  0.44194  0.4168  1.0000
  C   C62       1.0  0.27233  0.52546  0.42796  1.0000
  C   C63       1.0  0.9788300000000001  0.65583  0.40835  1.0000
  C   C64       1.0  0.88112  0.57188  0.39521  1.0000
  O   O1        1.0  0.14285999999999993  0.03762  0.3995  1.0000
  O   O2        1.0  0.30341  0.174  0.42309  1.0000
  O   O3        1.0  0.19093  0.0164  0.05118  1.0000
  O   O4        1.0  0.08411000000000003  0.92528  0.14123  1.0000
  O   O5        1.0  0.36055  0.34683  0.18474  1.0000
  O   O6        1.0  0.68543  0.81924  0.04451  1.0000
  O   O7        1.0  0.9589299999999997  0.69838  0.05169  1.0000
  O   O8        1.0  0.35647000000000006  0.96272  0.8995300000000002  1.0000
  O   O9        1.0  0.20064  0.82534  0.9251200000000002  1.0000
  O   O10       1.0  0.3060899999999999  0.98413  0.55165  1.0000
  O   O11       1.0  0.41932  0.07373  0.64101  1.0000
  O   O12       1.0  0.14373999999999998  0.6518400000000001  0.6851  1.0000
  O   O13       1.0  0.8110799999999998  0.18374  0.54104  1.0000
  O   O14       1.0  0.5371099999999998  0.30249  0.55186  1.0000
  O   O15       1.0  0.8571599999999999  0.96239  0.60051  1.0000
  O   O16       1.0  0.69657  0.82603  0.57691  1.0000
  O   O17       1.0  0.80908  0.98361  0.94881  1.0000
  O   O18       1.0  0.91589  0.07473  0.85876  1.0000
  O   O19       1.0  0.63946  0.65317  0.81526  1.0000
  O   O20       1.0  0.31458  0.18079  0.95551  1.0000
  O   O21       1.0  0.041030000000000004  0.30162  0.9483099999999999  1.0000
  O   O22       1.0  0.64356  0.03728  0.10047  1.0000
  O   O23       1.0  0.7993699999999998  0.17467  0.07488  1.0000
  O   O24       1.0  0.69393  0.015880000000000002  0.44834999999999997  1.0000
  O   O25       1.0  0.5806900000000002  0.92627  0.35899  1.0000
  O   O26       1.0  0.85626  0.34816  0.3149  1.0000
  O   O27       1.0  0.18892999999999996  0.81626  0.45896000000000003  1.0000
  O   O28       1.0  0.4628999999999999  0.6975  0.44814  1.0000
