data_image0
_chemical_formula_structural       Cu4H32C52N4O16
_chemical_formula_sum              "Cu4 H32 C52 N4 O16"
_cell_length_a       10.93541
_cell_length_b       10.989979999999997
_cell_length_c       14.037969999999998
_cell_angle_alpha    87.42436
_cell_angle_beta     88.98260000000002
_cell_angle_gamma    86.13006

_symmetry_space_group_name_H-M    'P 1'
_symmetry_Int_Tables_number       1

loop_
  _symmetry_equiv_pos_as_xyz
  'x,y,z'

loop_
  _atom_site_type_symbol
  _atom_site_label
  _atom_site_symmetry_multiplicity
  _atom_site_fract_x
  _atom_site_fract_y
  _atom_site_fract_z
  _atom_site_occupancy
  Cu  Cu1       1.0  0.77578  0.65173  0.38426999999999994  1.0000
  Cu  Cu2       1.0  0.7790800000000002  0.66326  0.19859  1.0000
  Cu  Cu3       1.0  0.22421  0.3482700000000001  0.61573  1.0000
  Cu  Cu4       1.0  0.22092000000000003  0.3367500000000001  0.8013999999999998  1.0000
  H   H1        1.0  0.76681  0.26202  0.44303999999999993  1.0000
  H   H2        1.0  0.7636900000000001  0.034670000000000006  0.4429199999999999  1.0000
  H   H3        1.0  0.78505  0.05053  0.13724  1.0000
  H   H4        1.0  0.7875499999999999  0.27922  0.13707  1.0000
  H   H5        1.0  0.38913  0.63631  0.44478  1.0000
  H   H6        1.0  0.16193  0.6284  0.4440299999999999  1.0000
  H   H7        1.0  0.16514  0.67654  0.13865  1.0000
  H   H8        1.0  0.39424  0.6809  0.13915  1.0000
  H   H9        1.0  0.5872  0.66027  0.5487  1.0000
  H   H10       1.0  0.5792199999999998  0.66507  0.72583  1.0000
  H   H11       1.0  0.9751599999999999  0.6650000000000001  0.7181399999999999  1.0000
  H   H12       1.0  0.96579  0.6523200000000001  0.54222  1.0000
  H   H13       1.0  0.95559  0.58784  0.03723999999999999  1.0000
  H   H14       1.0  0.96022  0.57527  0.85994  1.0000
  H   H15       1.0  0.59862  0.7622000000000001  0.8594899999999999  1.0000
  H   H16       1.0  0.60729  0.7568400000000002  0.03734  1.0000
  H   H17       1.0  0.23318999999999995  0.7379800000000001  0.55696  1.0000
  H   H18       1.0  0.2363  0.96533  0.55707  1.0000
  H   H19       1.0  0.21494  0.9494700000000001  0.86276  1.0000
  H   H20       1.0  0.21244  0.72078  0.86292  1.0000
  H   H21       1.0  0.61086  0.36369  0.55521  1.0000
  H   H22       1.0  0.83806  0.3716  0.55596  1.0000
  H   H23       1.0  0.83485  0.32346000000000014  0.86134  1.0000
  H   H24       1.0  0.60575  0.3191  0.86085  1.0000
  H   H25       1.0  0.41279  0.33973  0.4513  1.0000
  H   H26       1.0  0.42078  0.33493  0.27417  1.0000
  H   H27       1.0  0.024839999999999997  0.335  0.28185  1.0000
  H   H28       1.0  0.03419999999999999  0.34768  0.45778  1.0000
  H   H29       1.0  0.04439999999999999  0.4121700000000002  0.96276  1.0000
  H   H30       1.0  0.039779999999999996  0.4247300000000001  0.14006  1.0000
  H   H31       1.0  0.40137  0.2378  0.1405  1.0000
  H   H32       1.0  0.3926999999999999  0.24317000000000005  0.96265  1.0000
  C   C1        1.0  0.78037  0.42057  0.2906599999999999  1.0000
  C   C2        1.0  0.54177  0.663  0.29144  1.0000
  C   C3        1.0  0.77276  0.8931200000000001  0.29008  1.0000
  C   C4        1.0  0.013259999999999994  0.65152  0.29087  1.0000
  C   C5        1.0  0.77732  0.28447000000000006  0.29006  1.0000
  C   C6        1.0  0.77052  0.21547  0.37634  1.0000
  C   C7        1.0  0.7686699999999999  0.08889000000000001  0.37642  1.0000
  C   C8        1.0  0.77369  0.029520000000000008  0.28994  1.0000
  C   C9        1.0  0.78055  0.09821  0.20352  1.0000
  C   C10       1.0  0.78222  0.22493  0.2035  1.0000
  C   C11       1.0  0.4052  0.6606300000000002  0.29186  1.0000
  C   C12       1.0  0.33976  0.64606  0.37803  1.0000
  C   C13       1.0  0.21278  0.64237  0.37766  1.0000
  C   C14       1.0  0.14972000000000005  0.65395  0.29131  1.0000
  C   C15       1.0  0.21515  0.66793  0.20506999999999997  1.0000
  C   C16       1.0  0.34218  0.67082  0.20536999999999994  1.0000
  C   C17       1.0  0.67079  0.66044  0.58966  1.0000
  C   C18       1.0  0.66729  0.66473  0.68856  1.0000
  C   C19       1.0  0.7774399999999999  0.66523  0.73841  1.0000
  C   C20       1.0  0.8868199999999999  0.66184  0.68438  1.0000
  C   C21       1.0  0.8824299999999999  0.6562400000000002  0.58578  1.0000
  C   C22       1.0  0.87802  0.62326  0.9944899999999999  1.0000
  C   C23       1.0  0.88056  0.61868  0.8955999999999998  1.0000
  C   C24       1.0  0.77882  0.6679700000000001  0.8435399999999998  1.0000
  C   C25       1.0  0.6789499999999999  0.71986  0.89554  1.0000
  C   C26       1.0  0.6834299999999999  0.7188200000000001  0.9946  1.0000
  C   C27       1.0  0.21962  0.57943  0.70934  1.0000
  C   C28       1.0  0.45821999999999996  0.337  0.70855  1.0000
  C   C29       1.0  0.22724  0.10688000000000003  0.70992  1.0000
  C   C30       1.0  0.98673  0.3484800000000001  0.70912  1.0000
  C   C31       1.0  0.22267  0.7155300000000001  0.70994  1.0000
  C   C32       1.0  0.22947  0.78453  0.62365  1.0000
  C   C33       1.0  0.23133  0.91111  0.62357  1.0000
  C   C34       1.0  0.22629999999999995  0.9704800000000002  0.71006  1.0000
  C   C35       1.0  0.21944  0.9017900000000002  0.7964799999999999  1.0000
  C   C36       1.0  0.21777  0.77507  0.7965  1.0000
  C   C37       1.0  0.5948  0.33937  0.70813  1.0000
  C   C38       1.0  0.66023  0.35394  0.62197  1.0000
  C   C39       1.0  0.7872200000000003  0.35762999999999995  0.62234  1.0000
  C   C40       1.0  0.85027  0.34606  0.70868  1.0000
  C   C41       1.0  0.78484  0.3320800000000001  0.79492  1.0000
  C   C42       1.0  0.65781  0.32918000000000003  0.79462  1.0000
  C   C43       1.0  0.3292  0.33956  0.4103399999999999  1.0000
  C   C44       1.0  0.3327  0.33527  0.31143  1.0000
  C   C45       1.0  0.22255  0.33477  0.26159  1.0000
  C   C46       1.0  0.11318  0.33816000000000007  0.31562  1.0000
  C   C47       1.0  0.11756000000000001  0.34376  0.41421  1.0000
  C   C48       1.0  0.12198  0.3767400000000001  0.005509999999999999  1.0000
  C   C49       1.0  0.11944  0.38132  0.10439  1.0000
  C   C50       1.0  0.22117  0.33203  0.15645  1.0000
  C   C51       1.0  0.32104  0.28014000000000006  0.10445999999999998  1.0000
  C   C52       1.0  0.31656  0.28118000000000004  0.0054  1.0000
  N   N1        1.0  0.7763099999999998  0.65537  0.53851  1.0000
  N   N2        1.0  0.7810800000000001  0.67114  0.04391  1.0000
  N   N3        1.0  0.22369  0.34463000000000005  0.46148  1.0000
  N   N4        1.0  0.21891  0.32887000000000005  0.9560799999999998  1.0000
  O   O1        1.0  0.782  0.46747  0.3721  1.0000
  O   O2        1.0  0.7820600000000001  0.47858000000000006  0.20973  1.0000
  O   O3        1.0  0.5939200000000001  0.65443  0.37242  1.0000
  O   O4        1.0  0.59524  0.6723600000000001  0.21005  1.0000
  O   O5        1.0  0.76945  0.8364200000000002  0.37116  1.0000
  O   O6        1.0  0.7758399999999999  0.8449900000000001  0.20893  1.0000
  O   O7        1.0  0.95807  0.64816  0.37176  1.0000
  O   O8        1.0  0.96265  0.6533700000000001  0.2094  1.0000
  O   O9        1.0  0.21800000000000003  0.53253  0.6278999999999999  1.0000
  O   O10       1.0  0.21794  0.52142  0.79027  1.0000
  O   O11       1.0  0.40606999999999993  0.34557000000000004  0.62757  1.0000
  O   O12       1.0  0.40475  0.32763999999999993  0.78994  1.0000
  O   O13       1.0  0.23055  0.16359  0.62883  1.0000
  O   O14       1.0  0.22416  0.15502000000000002  0.7910699999999999  1.0000
  O   O15       1.0  0.04192  0.35184  0.62824  1.0000
  O   O16       1.0  0.03735  0.34663  0.79059  1.0000
