data_image0
_chemical_formula_structural       Cu4H24C48N24
_chemical_formula_sum              "Cu4 H24 C48 N24"
_cell_length_a       11.51148
_cell_length_b       11.511480000000002
_cell_length_c       12.78635
_cell_angle_alpha    90.00045
_cell_angle_beta     89.99955
_cell_angle_gamma    90.00645

_space_group_name_H-M_alt    "P 1"
_space_group_IT_number       1

loop_
  _space_group_symop_operation_xyz
  'x, y, z'

loop_
  _atom_site_type_symbol
  _atom_site_label
  _atom_site_symmetry_multiplicity
  _atom_site_fract_x
  _atom_site_fract_y
  _atom_site_fract_z
  _atom_site_occupancy
  Cu  Cu1       1.0  0.64915  0.351  0.7496100000000002  1.0000
  Cu  Cu2       1.0  0.351  0.64915  0.25039  1.0000
  Cu  Cu3       1.0  0.1489  0.14891  0.5  1.0000
  Cu  Cu4       1.0  0.85106  0.8510599999999999  0.99999  1.0000
  H   H1        1.0  0.83148  0.51635  0.71126  1.0000
  H   H2        1.0  0.9104800000000002  0.69955  0.7885700000000002  1.0000
  H   H3        1.0  0.37179  0.27497  0.9234300000000002  1.0000
  H   H4        1.0  0.16857000000000003  0.48369  0.21128000000000002  1.0000
  H   H5        1.0  0.08953000000000001  0.30045  0.28857  1.0000
  H   H6        1.0  0.6282300000000001  0.72499  0.42341000000000006  1.0000
  H   H7        1.0  0.9835200000000002  0.33144  0.46116  1.0000
  H   H8        1.0  0.80046  0.41054000000000007  0.5386100000000001  1.0000
  H   H9        1.0  0.22487000000000001  0.87174  0.67333  1.0000
  H   H10       1.0  0.01649  0.66859  0.96119  1.0000
  H   H11       1.0  0.19956  0.58949  0.03867  1.0000
  H   H12       1.0  0.77515  0.12825  0.17333  1.0000
  H   H13       1.0  0.66859  0.0165  0.038810000000000004  1.0000
  H   H14       1.0  0.5894900000000001  0.19956  0.9613300000000001  1.0000
  H   H15       1.0  0.12826  0.77515  0.82667  1.0000
  H   H16       1.0  0.33143  0.9835199999999998  0.5388400000000001  1.0000
  H   H17       1.0  0.41054000000000007  0.8004600000000001  0.46138  1.0000
  H   H18       1.0  0.8717500000000002  0.22487  0.3266700000000001  1.0000
  H   H19       1.0  0.5163500000000001  0.8314799999999999  0.28874  1.0000
  H   H20       1.0  0.6995500000000002  0.9104899999999999  0.21143000000000003  1.0000
  H   H21       1.0  0.27497  0.37179  0.07657000000000001  1.0000
  H   H22       1.0  0.48369  0.16857  0.78872  1.0000
  H   H23       1.0  0.30045000000000005  0.08952999999999998  0.7114300000000001  1.0000
  H   H24       1.0  0.7249900000000001  0.62823  0.57659  1.0000
  C   C1        1.0  0.79262  0.55434  0.78075  1.0000
  C   C2        1.0  0.83719  0.65483  0.8242100000000002  1.0000
  C   C3        1.0  0.6984100000000002  0.64806  0.95344  1.0000
  C   C4        1.0  0.54624  0.65133  0.09113  1.0000
  C   C5        1.0  0.4949  0.54888  0.043830000000000015  1.0000
  C   C6        1.0  0.35391000000000006  0.40783  0.04234  1.0000
  C   C7        1.0  0.20739  0.44567  0.28078000000000003  1.0000
  C   C8        1.0  0.1628  0.34519  0.32423000000000013  1.0000
  C   C9        1.0  0.30156000000000005  0.35192  0.45346  1.0000
  C   C10       1.0  0.45371  0.34869  0.5911000000000001  1.0000
  C   C11       1.0  0.50506  0.45115  0.54385  1.0000
  C   C12       1.0  0.64605  0.59219  0.5423700000000001  1.0000
  C   C13       1.0  0.9455500000000001  0.29258  0.5306600000000001  1.0000
  C   C14       1.0  0.8451100000000001  0.33717  0.57416  1.0000
  C   C15       1.0  0.8518800000000001  0.19837999999999997  0.7034  1.0000
  C   C16       1.0  0.84873  0.04635  0.8411600000000001  1.0000
  C   C17       1.0  0.95114  0.99501  0.79387  1.0000
  C   C18       1.0  0.09218  0.85404  0.79241  1.0000
  C   C19       1.0  0.05444000000000001  0.70744  0.030710000000000008  1.0000
  C   C20       1.0  0.15488  0.66284  0.07424000000000001  1.0000
  C   C21       1.0  0.1481  0.80161  0.20345000000000005  1.0000
  C   C22       1.0  0.15128  0.9536599999999998  0.3412000000000001  1.0000
  C   C23       1.0  0.04888  0.00502  0.29390000000000005  1.0000
  C   C24       1.0  0.9078300000000002  0.14598  0.29241000000000006  1.0000
  C   C25       1.0  0.70744  0.05444999999999999  0.9692900000000002  1.0000
  C   C26       1.0  0.66284  0.15488  0.92576  1.0000
  C   C27       1.0  0.8016  0.1481  0.79655  1.0000
  C   C28       1.0  0.95366  0.15129  0.6588000000000003  1.0000
  C   C29       1.0  0.00501  0.048870000000000004  0.7061  1.0000
  C   C30       1.0  0.14597  0.90783  0.7075900000000003  1.0000
  C   C31       1.0  0.29257  0.9455600000000001  0.46933  1.0000
  C   C32       1.0  0.33716  0.8451099999999999  0.4258300000000001  1.0000
  C   C33       1.0  0.19838000000000006  0.85188  0.2966  1.0000
  C   C34       1.0  0.04634  0.8487299999999999  0.15883  1.0000
  C   C35       1.0  0.995  0.95114  0.20613000000000004  1.0000
  C   C36       1.0  0.85404  0.09218  0.20759  1.0000
  C   C37       1.0  0.55434  0.79262  0.21925000000000003  1.0000
  C   C38       1.0  0.65482  0.8372  0.17579000000000006  1.0000
  C   C39       1.0  0.64806  0.6984099999999999  0.046550000000000015  1.0000
  C   C40       1.0  0.65132  0.54624  0.90887  1.0000
  C   C41       1.0  0.54888  0.49490000000000006  0.95617  1.0000
  C   C42       1.0  0.4078300000000001  0.35391  0.9576500000000002  1.0000
  C   C43       1.0  0.4456700000000001  0.20739  0.7192200000000001  1.0000
  C   C44       1.0  0.34519  0.1628  0.67576  1.0000
  C   C45       1.0  0.35192  0.30156  0.54653  1.0000
  C   C46       1.0  0.34869  0.45371999999999996  0.4089  1.0000
  C   C47       1.0  0.45115  0.50506  0.45614  1.0000
  C   C48       1.0  0.59219  0.64605  0.45762  1.0000
  N   N1        1.0  0.69929  0.49694  0.82167  1.0000
  N   N2        1.0  0.79241  0.70372  0.9119700000000002  1.0000
  N   N3        1.0  0.3961  0.50536  0.086  1.0000
  N   N4        1.0  0.3007000000000001  0.50306  0.32176  1.0000
  N   N5        1.0  0.20752  0.29632  0.41203  1.0000
  N   N6        1.0  0.60381  0.4947  0.58612  1.0000
  N   N7        1.0  0.00294  0.19924  0.5715900000000002  1.0000
  N   N8        1.0  0.79618  0.29234  0.6619100000000002  1.0000
  N   N9        1.0  0.9947200000000002  0.8963100000000002  0.8361400000000001  1.0000
  N   N10       1.0  0.99705  0.8007599999999999  0.07164000000000001  1.0000
  N   N11       1.0  0.20376000000000005  0.70763  0.16200000000000006  1.0000
  N   N12       1.0  0.00529  0.10373  0.3361600000000001  1.0000
  N   N13       1.0  0.80076  0.99705  0.9283600000000002  1.0000
  N   N14       1.0  0.70763  0.20377  0.8380000000000002  1.0000
  N   N15       1.0  0.10373  0.00529  0.66384  1.0000
  N   N16       1.0  0.19924000000000003  0.0029400000000000003  0.4284100000000001  1.0000
  N   N17       1.0  0.29234  0.79619  0.33809  1.0000
  N   N18       1.0  0.8963  0.9947199999999999  0.16386  1.0000
  N   N19       1.0  0.49694  0.6992899999999999  0.17833  1.0000
  N   N20       1.0  0.70372  0.79241  0.08803000000000002  1.0000
  N   N21       1.0  0.5053600000000001  0.39609999999999995  0.914  1.0000
  N   N22       1.0  0.50306  0.3007  0.67824  1.0000
  N   N23       1.0  0.29632  0.20752  0.58796  1.0000
  N   N24       1.0  0.4947000000000001  0.60381  0.41388000000000014  1.0000
