data_image0
_chemical_formula_structural       Ca4Cd4H24C64O36
_chemical_formula_sum              "Ca4 Cd4 H24 C64 O36"
_cell_length_a       10.85914
_cell_length_b       12.69617
_cell_length_c       20.01189
_cell_angle_alpha    99.09772
_cell_angle_beta     90.0351
_cell_angle_gamma    89.23584

_symmetry_space_group_name_H-M    'P 1'
_symmetry_Int_Tables_number       1

loop_
  _symmetry_equiv_pos_as_xyz
  'x,y,z'

loop_
  _atom_site_type_symbol
  _atom_site_label
  _atom_site_symmetry_multiplicity
  _atom_site_fract_x
  _atom_site_fract_y
  _atom_site_fract_z
  _atom_site_occupancy
  Ca  Ca1       1.0  0.4704200000000001  0.5946899999999999  0.08322  1.0000
  Ca  Ca2       1.0  0.9732500000000002  0.9046799999999998  0.41694  1.0000
  Ca  Ca3       1.0  0.52958  0.40530999999999995  0.91678  1.0000
  Ca  Ca4       1.0  0.02675  0.09533  0.58306  1.0000
  Cd  Cd1       1.0  0.30736  0.33388999999999996  0.03374  1.0000
  Cd  Cd2       1.0  0.8029500000000003  0.16773  0.46635  1.0000
  Cd  Cd3       1.0  0.69264  0.6661199999999998  0.96626  1.0000
  Cd  Cd4       1.0  0.19704000000000005  0.83227  0.53365  1.0000
  H   H1        1.0  0.22212  0.66295  0.26599  1.0000
  H   H2        1.0  0.15106  0.49327  0.43265999999999993  1.0000
  H   H3        1.0  0.20049  0.31994  0.23164  1.0000
  H   H4        1.0  0.48833000000000004  0.07258  0.45304  1.0000
  H   H5        1.0  0.54816  0.22549  0.39605  1.0000
  H   H6        1.0  0.38698000000000005  0.33758  0.35196  1.0000
  H   H7        1.0  0.71725  0.83552  0.23294  1.0000
  H   H8        1.0  0.64403  0.007939999999999996  0.06712  1.0000
  H   H9        1.0  0.70572  0.17941  0.2672  1.0000
  H   H10       1.0  0.9900300000000001  0.4232599999999999  0.04707  1.0000
  H   H11       1.0  0.05141  0.26755  0.10242  1.0000
  H   H12       1.0  0.8916400000000002  0.15746  0.14648  1.0000
  H   H13       1.0  0.77788  0.3370499999999999  0.73401  1.0000
  H   H14       1.0  0.8489300000000001  0.50674  0.56734  1.0000
  H   H15       1.0  0.7995  0.68006  0.76837  1.0000
  H   H16       1.0  0.51166  0.92743  0.54696  1.0000
  H   H17       1.0  0.45184  0.77452  0.60395  1.0000
  H   H18       1.0  0.61301  0.66243  0.64804  1.0000
  H   H19       1.0  0.28274  0.16448999999999997  0.76706  1.0000
  H   H20       1.0  0.35597  0.9920699999999999  0.93288  1.0000
  H   H21       1.0  0.29428000000000004  0.82059  0.7328  1.0000
  H   H22       1.0  0.009970000000000003  0.57674  0.95294  1.0000
  H   H23       1.0  0.9485800000000002  0.7324499999999999  0.89758  1.0000
  H   H24       1.0  0.10835000000000002  0.8425499999999998  0.8535299999999999  1.0000
  C   C1        1.0  0.25248  0.48522  0.16824  1.0000
  C   C2        1.0  0.21705  0.4913299999999999  0.24138999999999997  1.0000
  C   C3        1.0  0.20790000000000006  0.58869  0.28536  1.0000
  C   C4        1.0  0.18297  0.58911  0.35411  1.0000
  C   C5        1.0  0.16644  0.4928899999999999  0.37895  1.0000
  C   C6        1.0  0.17004000000000002  0.3973699999999999  0.33403999999999995  1.0000
  C   C7        1.0  0.19566000000000006  0.39534  0.2658  1.0000
  C   C8        1.0  0.17477  0.69023  0.40398  1.0000
  C   C9        1.0  0.23715000000000006  0.24819  0.38414  1.0000
  C   C10       1.0  0.2021  0.16420999999999994  0.41754  1.0000
  C   C11       1.0  0.29381  0.09992999999999996  0.4409899999999999  1.0000
  C   C12       1.0  0.41894  0.12188999999999997  0.43333  1.0000
  C   C13       1.0  0.4515  0.20807999999999996  0.40226  1.0000
  C   C14       1.0  0.36158000000000007  0.27133  0.37728  1.0000
  C   C15       1.0  0.06864  0.14079  0.42612  1.0000
  C   C16       1.0  0.25927  0.006829999999999975  0.4728399999999999  1.0000
  C   C17       1.0  0.7568800000000001  0.01350000000000001  0.33005  1.0000
  C   C18       1.0  0.71787  0.007660000000000003  0.25735  1.0000
  C   C19       1.0  0.70428  0.9104899999999998  0.21383999999999997  1.0000
  C   C20       1.0  0.67668  0.9107499999999995  0.14539  1.0000
  C   C21       1.0  0.6625  0.007429999999999993  0.12046999999999998  1.0000
  C   C22       1.0  0.67018  0.10280999999999997  0.16503  1.0000
  C   C23       1.0  0.69789  0.10437999999999996  0.23296999999999998  1.0000
  C   C24       1.0  0.6656500000000001  0.8098400000000001  0.09569  1.0000
  C   C25       1.0  0.74027  0.25035  0.11539  1.0000
  C   C26       1.0  0.7050100000000001  0.33543  0.08241999999999998  1.0000
  C   C27       1.0  0.79585  0.39846  0.05911999999999999  1.0000
  C   C28       1.0  0.9212100000000002  0.3743  0.06645  1.0000
  C   C29       1.0  0.95438  0.28676  0.09686  1.0000
  C   C30       1.0  0.86487  0.22478999999999993  0.12192999999999998  1.0000
  C   C31       1.0  0.57138  0.35917  0.0732  1.0000
  C   C32       1.0  0.7599300000000002  0.49266  0.028059999999999998  1.0000
  C   C33       1.0  0.7475100000000001  0.51479  0.83176  1.0000
  C   C34       1.0  0.78294  0.5086699999999998  0.7586099999999999  1.0000
  C   C35       1.0  0.79209  0.41132  0.71464  1.0000
  C   C36       1.0  0.81703  0.41089999999999993  0.64589  1.0000
  C   C37       1.0  0.83355  0.5071099999999998  0.6210499999999999  1.0000
  C   C38       1.0  0.82996  0.60264  0.66596  1.0000
  C   C39       1.0  0.8043400000000002  0.60466  0.7342  1.0000
  C   C40       1.0  0.8252300000000001  0.30977  0.59602  1.0000
  C   C41       1.0  0.7628400000000001  0.7518099999999998  0.6158599999999999  1.0000
  C   C42       1.0  0.7979000000000002  0.8358  0.58246  1.0000
  C   C43       1.0  0.7061900000000001  0.90008  0.55902  1.0000
  C   C44       1.0  0.58105  0.8781199999999998  0.5666699999999999  1.0000
  C   C45       1.0  0.5485  0.79192  0.59774  1.0000
  C   C46       1.0  0.63841  0.7286699999999999  0.62272  1.0000
  C   C47       1.0  0.9313500000000001  0.8592099999999998  0.5738799999999998  1.0000
  C   C48       1.0  0.74073  0.9931799999999996  0.52716  1.0000
  C   C49       1.0  0.24312000000000003  0.9865099999999998  0.6699499999999999  1.0000
  C   C50       1.0  0.28213  0.9923399999999999  0.74265  1.0000
  C   C51       1.0  0.29572000000000004  0.08952000000000003  0.78616  1.0000
  C   C52       1.0  0.32331  0.08926  0.85461  1.0000
  C   C53       1.0  0.3375000000000001  0.99257  0.87953  1.0000
  C   C54       1.0  0.32981  0.89719  0.83497  1.0000
  C   C55       1.0  0.30211  0.89562  0.76703  1.0000
  C   C56       1.0  0.3343400000000001  0.19015999999999994  0.9043099999999998  1.0000
  C   C57       1.0  0.25972  0.74966  0.88461  1.0000
  C   C58       1.0  0.29498  0.6645699999999998  0.91758  1.0000
  C   C59       1.0  0.20414  0.60155  0.9408899999999999  1.0000
  C   C60       1.0  0.07879000000000001  0.6257  0.93355  1.0000
  C   C61       1.0  0.04562000000000001  0.71324  0.90314  1.0000
  C   C62       1.0  0.13513  0.77522  0.87808  1.0000
  C   C63       1.0  0.42861000000000005  0.64083  0.9268  1.0000
  C   C64       1.0  0.24007000000000003  0.50734  0.9719399999999999  1.0000
  O   O1        1.0  0.23114  0.3942499999999999  0.13202  1.0000
  O   O2        1.0  0.30023  0.56547  0.14808  1.0000
  O   O3        1.0  0.12000000000000001  0.77198  0.38771999999999995  1.0000
  O   O4        1.0  0.22419000000000006  0.68434  0.4615099999999999  1.0000
  O   O5        1.0  0.14215  0.30237  0.35768  1.0000
  O   O6        1.0  0.018500000000000003  0.06984  0.38389  1.0000
  O   O7        1.0  0.013340000000000003  0.19460999999999998  0.47801  1.0000
  O   O8        1.0  0.33742  0.93677  0.48129  1.0000
  O   O9        1.0  0.14328  0.99851  0.49143999999999993  1.0000
  O   O10       1.0  0.7376  0.10553999999999995  0.36596999999999996  1.0000
  O   O11       1.0  0.8053000000000002  0.93227  0.35008  1.0000
  O   O12       1.0  0.6124700000000001  0.7294099999999999  0.11286  1.0000
  O   O13       1.0  0.7125700000000001  0.8143900000000001  0.03738  1.0000
  O   O14       1.0  0.64425  0.19824  0.14106  1.0000
  O   O15       1.0  0.51668  0.42712  0.11640999999999999  1.0000
  O   O16       1.0  0.51923  0.30723  0.02024  1.0000
  O   O17       1.0  0.83733  0.56162  0.01979  1.0000
  O   O18       1.0  0.6434000000000001  0.50317  0.01003  1.0000
  O   O19       1.0  0.76885  0.60576  0.86798  1.0000
  O   O20       1.0  0.69976  0.43453  0.85193  1.0000
  O   O21       1.0  0.88  0.22802999999999995  0.61229  1.0000
  O   O22       1.0  0.7758100000000001  0.31566999999999995  0.53849  1.0000
  O   O23       1.0  0.8578500000000002  0.69763  0.64233  1.0000
  O   O24       1.0  0.9815  0.9301699999999999  0.61611  1.0000
  O   O25       1.0  0.98665  0.8054  0.52199  1.0000
  O   O26       1.0  0.66258  0.06324  0.51871  1.0000
  O   O27       1.0  0.8567100000000001  0.001489999999999994  0.50857  1.0000
  O   O28       1.0  0.2624000000000001  0.89446  0.63403  1.0000
  O   O29       1.0  0.19469  0.06773999999999998  0.6499299999999999  1.0000
  O   O30       1.0  0.38752000000000003  0.27059999999999995  0.8871399999999999  1.0000
  O   O31       1.0  0.2874300000000001  0.18560999999999997  0.9626199999999999  1.0000
  O   O32       1.0  0.35575  0.80176  0.85894  1.0000
  O   O33       1.0  0.48332  0.5728799999999998  0.8835899999999999  1.0000
  O   O34       1.0  0.48077000000000003  0.6927799999999997  0.97976  1.0000
  O   O35       1.0  0.16267  0.4383799999999999  0.9802099999999999  1.0000
  O   O36       1.0  0.35659  0.4968299999999999  0.98997  1.0000
