data_image0
_chemical_formula_structural       Cd3H32C36N54
_chemical_formula_sum              "Cd3 H32 C36 N54"
_cell_length_a       13.24927
_cell_length_b       9.55438
_cell_length_c       13.902849999999999
_cell_angle_alpha    107.00194
_cell_angle_beta     113.7847
_cell_angle_gamma    94.17671000000001

_space_group_name_H-M_alt    "P 1"
_space_group_IT_number       1

loop_
  _space_group_symop_operation_xyz
  'x, y, z'

loop_
  _atom_site_type_symbol
  _atom_site_label
  _atom_site_symmetry_multiplicity
  _atom_site_fract_x
  _atom_site_fract_y
  _atom_site_fract_z
  _atom_site_occupancy
  Cd  Cd1       1.0  0.98758  0.04550000000000007  0.9609800000000002  1.0000
  Cd  Cd2       1.0  0.31564  0.30393  0.72111  1.0000
  Cd  Cd3       1.0  0.66034  0.6334700000000001  0.27656  1.0000
  H   H1        1.0  0.62152  0.8447799999999999  0.66079  1.0000
  H   H2        1.0  0.48987999999999987  0.8814900000000001  0.15485  1.0000
  H   H3        1.0  0.09633  0.85135  0.65281  1.0000
  H   H4        1.0  0.81848  0.97807  0.44368  1.0000
  H   H5        1.0  0.23545999999999995  0.34622  0.30774  1.0000
  H   H6        1.0  0.23929999999999996  0.47582  0.95519  1.0000
  H   H7        1.0  0.5414099999999997  0.97323  0.37562000000000006  1.0000
  H   H8        1.0  0.19461  0.20058000000000004  0.89042  1.0000
  H   H9        1.0  0.03161  0.80362  0.3588  1.0000
  H   H10       1.0  0.50876  0.08714  0.01961  1.0000
  H   H11       1.0  0.16868  0.53958  0.58474  1.0000
  H   H12       1.0  0.29446000000000006  0.7624600000000001  0.8460300000000001  1.0000
  H   H13       1.0  0.8431099999999998  0.61428  0.11319  1.0000
  H   H14       1.0  0.03979000000000002  0.26630000000000004  0.48639000000000004  1.0000
  H   H15       1.0  0.6969399999999998  0.22477  0.66596  1.0000
  H   H16       1.0  0.5885699999999998  0.85894  0.94353  1.0000
  H   H17       1.0  0.11729  0.62398  0.14668  1.0000
  H   H18       1.0  0.17234  0.83582  0.09191  1.0000
  H   H19       1.0  0.68361  0.27744  0.21656  1.0000
  H   H20       1.0  0.5488599999999999  0.06531999999999999  0.81414  1.0000
  H   H21       1.0  0.011360000000000006  0.43418999999999996  0.26949  1.0000
  H   H22       1.0  0.26918999999999993  0.25281  0.11994000000000002  1.0000
  H   H23       1.0  0.8735899999999998  0.3393  0.00488  1.0000
  H   H24       1.0  0.3964699999999999  0.50355  0.27082  1.0000
  H   H25       1.0  0.9541100000000001  0.52867  0.7433000000000002  1.0000
  H   H26       1.0  0.8808199999999999  0.009969999999999996  0.17308  1.0000
  H   H27       1.0  0.51099  0.54392  0.63338  1.0000
  H   H28       1.0  0.6028799999999999  0.34519  0.52365  1.0000
  H   H29       1.0  0.35758  0.9909999999999999  0.53931  1.0000
  H   H30       1.0  0.8146799999999997  0.47820999999999997  0.46912  1.0000
  H   H31       1.0  0.73899  0.81123  0.85807  1.0000
  H   H32       1.0  0.6122099999999999  0.4033400000000001  0.90408  1.0000
  C   C1        1.0  0.6401199999999998  0.10252  0.85276  1.0000
  C   C2        1.0  0.4489299999999999  0.76362  0.11812000000000003  1.0000
  C   C3        1.0  0.7591999999999998  0.34632  0.22805000000000003  1.0000
  C   C4        1.0  0.27644000000000013  0.17521000000000014  0.9026800000000003  1.0000
  C   C5        1.0  0.42515  0.50143  0.56753  1.0000
  C   C6        1.0  0.8694599999999998  0.58633  0.49584  1.0000
  C   C7        1.0  0.60591  0.8357  0.57585  1.0000
  C   C8        1.0  0.18143999999999993  0.83704  0.01807  1.0000
  C   C9        1.0  0.8024799999999997  0.96915  0.35869  1.0000
  C   C10       1.0  0.0674  0.16170999999999996  0.47879  1.0000
  C   C11       1.0  0.13213  0.51188  0.12029  1.0000
  C   C12       1.0  0.20844  0.32458  0.10975000000000001  1.0000
  C   C13       1.0  0.8515799999999998  0.9936999999999999  0.67955  1.0000
  C   C14       1.0  0.5620499999999999  0.7386500000000001  0.9187100000000002  1.0000
  C   C15       1.0  0.014700000000000032  0.7811200000000001  0.58969  1.0000
  C   C16       1.0  0.79171  0.7711700000000001  0.9231800000000001  1.0000
  C   C17       1.0  0.43346  0.07982000000000004  0.58301  1.0000
  C   C18       1.0  0.3202999999999999  0.55087  0.01523  1.0000
  C   C19       1.0  0.43390999999999996  0.11594000000000008  0.96584  1.0000
  C   C20       1.0  0.06450999999999998  0.92136  0.4113  1.0000
  C   C21       1.0  0.60824  0.20601  0.6486  1.0000
  C   C22       1.0  0.02433000000000002  0.50997  0.7228  1.0000
  C   C23       1.0  0.8462599999999998  0.77155  0.71484  1.0000
  C   C24       1.0  0.83408  0.98474  0.21679  1.0000
  C   C25       1.0  0.46912999999999994  0.4654600000000001  0.32154000000000005  1.0000
  C   C26       1.0  0.80258  0.24431  0.95245  1.0000
  C   C27       1.0  0.12275000000000001  0.05650000000000001  0.21731000000000003  1.0000
  C   C28       1.0  0.5747  0.38008  0.4516000000000001  1.0000
  C   C29       1.0  0.3078299999999999  0.0456  0.30173  1.0000
  C   C30       1.0  0.9244499999999999  0.42831  0.25631  1.0000
  C   C31       1.0  0.28231999999999996  0.39382000000000006  0.3985000000000001  1.0000
  C   C32       1.0  0.57415  0.50205  0.89741  1.0000
  C   C33       1.0  0.8449999999999998  0.6737  0.057300000000000004  1.0000
  C   C34       1.0  0.57041  0.9082900000000002  0.43010000000000004  1.0000
  C   C35       1.0  0.13579  0.51938  0.6405  1.0000
  C   C36       1.0  0.24214000000000002  0.79813  0.88798  1.0000
  N   N1        1.0  0.40586000000000005  0.07713  0.3288400000000001  1.0000
  N   N2        1.0  0.55249  0.29924  0.68463  1.0000
  N   N3        1.0  0.8177500000000001  0.10633000000000005  0.9098100000000001  1.0000
  N   N4        1.0  0.31966000000000006  0.17313000000000006  0.8293200000000001  1.0000
  N   N5        1.0  0.9772699999999997  0.63747  0.58182  1.0000
  N   N6        1.0  0.6326399999999998  0.73953  0.50597  1.0000
  N   N7        1.0  0.6104799999999999  0.78601  0.41482  1.0000
  N   N8        1.0  0.7113899999999997  0.012860000000000085  0.8436400000000001  1.0000
  N   N9        1.0  0.20151  0.0002200000000000109  0.27579  1.0000
  N   N10       1.0  0.49442999999999987  0.65065  0.13804  1.0000
  N   N11       1.0  0.8127599999999998  0.6458300000000001  0.7017800000000001  1.0000
  N   N12       1.0  0.7514399999999998  0.68766  0.97044  1.0000
  N   N13       1.0  0.8865999999999998  0.002470000000000009  0.32932  1.0000
  N   N14       1.0  0.051869999999999986  0.39924  0.03347  1.0000
  N   N15       1.0  0.0008699999999999703  0.028510000000000014  0.397  1.0000
  N   N16       1.0  0.44309  0.219  0.64436  1.0000
  N   N17       1.0  0.8592999999999997  0.30627  0.25073  1.0000
  N   N18       1.0  0.4142899999999999  0.51698  0.07376  1.0000
  N   N19       1.0  0.8937999999999998  0.91118  0.74046  1.0000
  N   N20       1.0  0.84328  0.6930900000000001  0.45450000000000007  1.0000
  N   N21       1.0  0.23203  0.47206  0.17119  1.0000
  N   N22       1.0  0.45831999999999995  0.6583  0.8679100000000001  1.0000
  N   N23       1.0  0.62826  0.39063  0.39198  1.0000
  N   N24       1.0  0.10187999999999998  0.27691  0.02669  1.0000
  N   N25       1.0  0.33791  0.70466  0.04093  1.0000
  N   N26       1.0  0.03947000000000006  0.55783  0.64361  1.0000
  N   N27       1.0  0.63711  0.64526  0.93849  1.0000
  N   N28       1.0  0.4665299999999999  0.50975  0.85538  1.0000
  N   N29       1.0  0.26137  0.78029  0.9885500000000002  1.0000
  N   N30       1.0  0.72468  0.9387700000000001  0.17844  1.0000
  N   N31       1.0  0.16603  0.13788000000000006  0.5389  1.0000
  N   N32       1.0  0.56341  0.94118  0.53008  1.0000
  N   N33       1.0  0.6924099999999997  0.24774999999999994  0.91902  1.0000
  N   N34       1.0  0.53593  0.06753000000000006  0.58299  1.0000
  N   N35       1.0  0.9365999999999998  0.74512  0.0618  1.0000
  N   N36       1.0  0.11879999999999989  0.8879700000000001  0.9404  1.0000
  N   N37       1.0  0.42316  0.13465000000000005  0.8706800000000001  1.0000
  N   N38       1.0  0.9348199999999995  0.81498  0.51225  1.0000
  N   N39       1.0  0.10643999999999999  0.44314000000000003  0.76417  1.0000
  N   N40       1.0  0.9023499999999998  0.80807  0.9779400000000001  1.0000
  N   N41       1.0  0.4747199999999997  0.42612  0.41047  1.0000
  N   N42       1.0  0.15583000000000002  0.86182  0.85751  1.0000
  N   N43       1.0  0.04593000000000001  0.1014  0.16441  1.0000
  N   N44       1.0  0.7046199999999998  0.92928  0.26858  1.0000
  N   N45       1.0  0.56127  0.4435299999999999  0.30962  1.0000
  N   N46       1.0  0.39852000000000004  0.4396400000000001  0.4552400000000001  1.0000
  N   N47       1.0  0.2409799999999999  0.42594999999999994  0.47195  1.0000
  N   N48       1.0  0.16476000000000002  0.98578  0.49606000000000006  1.0000
  N   N49       1.0  0.34490000000000004  0.13874000000000014  0.9895100000000002  1.0000
  N   N50       1.0  0.33135  0.4918  0.579  1.0000
  N   N51       1.0  0.7621199999999998  0.48450999999999994  0.22082000000000002  1.0000
  N   N52       1.0  0.17666  0.4503700000000001  0.7126800000000002  1.0000
  N   N53       1.0  0.8711400000000001  0.5396  0.24087000000000003  1.0000
  N   N54       1.0  0.82133  0.07761999999999998  0.63111  1.0000
