data_image0
_chemical_formula_structural       Cu8H26C64O34
_chemical_formula_sum              "Cu8 H26 C64 O34"
_cell_length_a       12.49611
_cell_length_b       12.59831
_cell_length_c       15.8311
_cell_angle_alpha    99.74043
_cell_angle_beta     92.06195999999998
_cell_angle_gamma    92.36046

_symmetry_space_group_name_H-M    'P 1'
_symmetry_Int_Tables_number       1

loop_
  _symmetry_equiv_pos_as_xyz
  'x,y,z'

loop_
  _atom_site_type_symbol
  _atom_site_label
  _atom_site_symmetry_multiplicity
  _atom_site_fract_x
  _atom_site_fract_y
  _atom_site_fract_z
  _atom_site_occupancy
  Cu  Cu1       1.0  0.9314300000000001  0.06786000000000006  0.5079800000000002  1.0000
  Cu  Cu2       1.0  0.8476600000000002  0.35062  0.0707  1.0000
  Cu  Cu3       1.0  0.07162  0.50848  0.07846000000000003  1.0000
  Cu  Cu4       1.0  0.4756  0.41988  0.06925  1.0000
  Cu  Cu5       1.0  0.06842000000000001  0.9325800000000001  0.4921000000000001  1.0000
  Cu  Cu6       1.0  0.15239000000000005  0.64792  0.9290300000000002  1.0000
  Cu  Cu7       1.0  0.9287600000000003  0.49123000000000006  0.9175800000000002  1.0000
  Cu  Cu8       1.0  0.52264  0.57864  0.93067  1.0000
  H   H1        1.0  0.005489999999999997  0.33507  0.97275  1.0000
  H   H2        1.0  0.2916  0.05906000000000001  0.31967  1.0000
  H   H3        1.0  0.25513  0.27381  0.13637  1.0000
  H   H4        1.0  0.99513  0.21711000000000003  0.2957100000000001  1.0000
  H   H5        1.0  0.67259  0.09140000000000001  0.09059  1.0000
  H   H6        1.0  0.54521  0.93621  0.10263  1.0000
  H   H7        1.0  0.36967  0.97206  0.16814000000000007  1.0000
  H   H8        1.0  0.6460800000000001  0.60912  0.14981000000000005  1.0000
  H   H9        1.0  0.6665500000000001  0.90871  0.3323000000000001  1.0000
  H   H10       1.0  0.94749  0.73184  0.27119  1.0000
  H   H11       1.0  0.20795  0.76865  0.2569900000000001  1.0000
  H   H12       1.0  0.32904000000000005  0.85509  0.38024  1.0000
  H   H13       1.0  0.5247  0.8434900000000001  0.3700000000000001  1.0000
  H   H14       1.0  0.9970900000000003  0.66728  0.02925000000000001  1.0000
  H   H15       1.0  0.7071500000000001  0.94106  0.68032  1.0000
  H   H16       1.0  0.74539  0.7263  0.8635300000000002  1.0000
  H   H17       1.0  0.004699999999999997  0.78483  0.70423  1.0000
  H   H18       1.0  0.32706  0.9076  0.90962  1.0000
  H   H19       1.0  0.4540000000000001  0.06314000000000006  0.8973000000000002  1.0000
  H   H20       1.0  0.6292900000000001  0.027520000000000055  0.8314200000000003  1.0000
  H   H21       1.0  0.35733  0.38754  0.8510400000000002  1.0000
  H   H22       1.0  0.3342000000000001  0.09032000000000001  0.66595  1.0000
  H   H23       1.0  0.05503000000000001  0.26929000000000003  0.7295900000000002  1.0000
  H   H24       1.0  0.79361  0.22966  0.74506  1.0000
  H   H25       1.0  0.67424  0.14319000000000007  0.6208700000000003  1.0000
  H   H26       1.0  0.47812  0.15404000000000007  0.6294900000000002  1.0000
  C   C1        1.0  0.09517000000000002  0.08522000000000005  0.38646000000000014  1.0000
  C   C2        1.0  0.14007  0.13452000000000006  0.3152300000000001  1.0000
  C   C3        1.0  0.24425  0.11323000000000001  0.2885900000000001  1.0000
  C   C4        1.0  0.28735  0.16384  0.22415000000000004  1.0000
  C   C5        1.0  0.22396000000000002  0.23374  0.1865  1.0000
  C   C6        1.0  0.11897000000000003  0.25197  0.21091000000000004  1.0000
  C   C7        1.0  0.07622  0.20256  0.2755  1.0000
  C   C8        1.0  0.05743000000000001  0.32613  0.16524000000000005  1.0000
  C   C9        1.0  0.39584  0.14457000000000006  0.19166000000000005  1.0000
  C   C10       1.0  0.46743  0.23267  0.18305000000000005  1.0000
  C   C11       1.0  0.56813  0.21170000000000003  0.14732  1.0000
  C   C12       1.0  0.59543  0.10518000000000004  0.11900000000000002  1.0000
  C   C13       1.0  0.5244  0.018820000000000017  0.12623000000000006  1.0000
  C   C14       1.0  0.42572000000000004  0.03893000000000002  0.16301000000000004  1.0000
  C   C15       1.0  0.4372500000000001  0.34532  0.22082000000000004  1.0000
  C   C16       1.0  0.64601  0.3001  0.13452  1.0000
  C   C17       1.0  0.86057  0.5779  0.14961  1.0000
  C   C18       1.0  0.8020600000000002  0.6672200000000001  0.20090000000000005  1.0000
  C   C19       1.0  0.69064  0.67449  0.19187000000000007  1.0000
  C   C20       1.0  0.63876  0.76129  0.23882000000000006  1.0000
  C   C21       1.0  0.70221  0.8388500000000001  0.29606  1.0000
  C   C22       1.0  0.81186  0.82631  0.30996  1.0000
  C   C23       1.0  0.86232  0.74153  0.26123  1.0000
  C   C24       1.0  0.8762900000000001  0.8972200000000001  0.3800300000000001  1.0000
  C   C25       1.0  0.51992  0.76828  0.23706000000000005  1.0000
  C   C26       1.0  0.44992  0.72523  0.16578  1.0000
  C   C27       1.0  0.3378300000000001  0.7237700000000001  0.17443000000000006  1.0000
  C   C28       1.0  0.29446  0.77087  0.25143  1.0000
  C   C29       1.0  0.36242  0.8182100000000002  0.3203200000000001  1.0000
  C   C30       1.0  0.4730100000000001  0.81407  0.3135500000000001  1.0000
  C   C31       1.0  0.25791  0.66976  0.1047  1.0000
  C   C32       1.0  0.49024  0.68112  0.08015000000000003  1.0000
  C   C33       1.0  0.9039900000000001  0.9156400000000001  0.6134300000000003  1.0000
  C   C34       1.0  0.85924  0.86675  0.6848000000000002  1.0000
  C   C35       1.0  0.75499  0.88734  0.7114800000000002  1.0000
  C   C36       1.0  0.71237  0.8363400000000001  0.7759300000000002  1.0000
  C   C37       1.0  0.7763100000000003  0.76678  0.8134900000000003  1.0000
  C   C38       1.0  0.8814200000000001  0.7494  0.7889200000000002  1.0000
  C   C39       1.0  0.9236100000000004  0.79916  0.7244900000000002  1.0000
  C   C40       1.0  0.9431100000000001  0.67418  0.8331900000000002  1.0000
  C   C41       1.0  0.6038400000000002  0.8549400000000003  0.80848  1.0000
  C   C42       1.0  0.53265  0.7665400000000001  0.8175000000000002  1.0000
  C   C43       1.0  0.43176  0.7874800000000001  0.85302  1.0000
  C   C44       1.0  0.40429  0.8939700000000002  0.8813000000000002  1.0000
  C   C45       1.0  0.47501  0.98051  0.8738600000000002  1.0000
  C   C46       1.0  0.57355  0.9605300000000002  0.8369000000000002  1.0000
  C   C47       1.0  0.56281  0.65373  0.7796800000000003  1.0000
  C   C48       1.0  0.3532900000000001  0.6993700000000002  0.8654100000000002  1.0000
  C   C49       1.0  0.14232000000000003  0.41941000000000006  0.8519400000000003  1.0000
  C   C50       1.0  0.2009  0.3315  0.79988  1.0000
  C   C51       1.0  0.31206  0.3232  0.80848  1.0000
  C   C52       1.0  0.36305000000000004  0.23667000000000005  0.7604400000000002  1.0000
  C   C53       1.0  0.29909  0.16009  0.70278  1.0000
  C   C54       1.0  0.18946  0.17357  0.68946  1.0000
  C   C55       1.0  0.14008  0.25840000000000013  0.7389500000000002  1.0000
  C   C56       1.0  0.12414000000000001  0.10299  0.61974  1.0000
  C   C57       1.0  0.4815800000000001  0.22946000000000008  0.7624600000000002  1.0000
  C   C58       1.0  0.55046  0.27259  0.8343400000000002  1.0000
  C   C59       1.0  0.66253  0.27459  0.8265700000000002  1.0000
  C   C60       1.0  0.70699  0.22727  0.75002  1.0000
  C   C61       1.0  0.63999  0.18002000000000004  0.68043  1.0000
  C   C62       1.0  0.52926  0.1839600000000001  0.6862300000000002  1.0000
  C   C63       1.0  0.74046  0.33126  0.8964300000000002  1.0000
  C   C64       1.0  0.50901  0.31570000000000004  0.9198900000000002  1.0000
  O   O1        1.0  0.011630000000000005  0.12705  0.4201200000000001  1.0000
  O   O2        1.0  0.14276  0.0049500000000000125  0.40806  1.0000
  O   O3        1.0  0.9558700000000002  0.31257  0.15807  1.0000
  O   O4        1.0  0.11707  0.39579  0.13668000000000005  1.0000
  O   O5        1.0  0.74548  0.27971  0.13702  1.0000
  O   O6        1.0  0.61475  0.39077000000000006  0.12093000000000002  1.0000
  O   O7        1.0  0.4391300000000001  0.36495000000000005  0.30055  1.0000
  O   O8        1.0  0.40685000000000004  0.41406000000000004  0.17329000000000006  1.0000
  O   O9        1.0  0.8044700000000001  0.50802  0.09655000000000002  1.0000
  O   O10       1.0  0.9619400000000002  0.58153  0.16285000000000002  1.0000
  O   O11       1.0  0.96754  0.86247  0.3995100000000001  1.0000
  O   O12       1.0  0.8362  0.9843  0.4162800000000001  1.0000
  O   O13       1.0  0.20029  0.59587  0.1289  1.0000
  O   O14       1.0  0.25323  0.70411  0.03362000000000001  1.0000
  O   O15       1.0  0.46003  0.58139  0.046190000000000016  1.0000
  O   O16       1.0  0.54719  0.73534  0.03797  1.0000
  O   O17       1.0  0.9674000000000004  0.39637000000000006  0.001  1.0000
  O   O18       1.0  0.9871  0.87318  0.57954  1.0000
  O   O19       1.0  0.8568900000000002  0.99623  0.59198  1.0000
  O   O20       1.0  0.044500000000000005  0.68806  0.84202  1.0000
  O   O21       1.0  0.88315  0.60264  0.8589500000000002  1.0000
  O   O22       1.0  0.25403  0.71999  0.8631300000000002  1.0000
  O   O23       1.0  0.38384  0.6083000000000001  0.8787200000000002  1.0000
  O   O24       1.0  0.56096  0.63489  0.69988  1.0000
  O   O25       1.0  0.5924  0.58417  0.8267700000000002  1.0000
  O   O26       1.0  0.19644  0.48733  0.9085400000000002  1.0000
  O   O27       1.0  0.041700000000000015  0.41854  0.8370100000000003  1.0000
  O   O28       1.0  0.032840000000000015  0.13773000000000002  0.6005300000000002  1.0000
  O   O29       1.0  0.16383  0.01564  0.58354  1.0000
  O   O30       1.0  0.7937300000000003  0.40893000000000007  0.87476  1.0000
  O   O31       1.0  0.7473900000000003  0.29468000000000005  0.9669000000000002  1.0000
  O   O32       1.0  0.53528  0.41678000000000004  0.9533700000000003  1.0000
  O   O33       1.0  0.45480000000000004  0.25942000000000004  0.9621200000000002  1.0000
  O   O34       1.0  0.03215000000000002  0.6056100000000001  0.9984000000000001  1.0000
