data_image0
_chemical_formula_structural       Cd3Si2H32C56O16
_chemical_formula_sum              "Cd3 Si2 H32 C56 O16"
_cell_length_a       14.03026
_cell_length_b       14.07846
_cell_length_c       14.030030000000002
_cell_angle_alpha    115.62935
_cell_angle_beta     108.60084000000002
_cell_angle_gamma    102.66345999999999

_space_group_name_H-M_alt    "P 1"
_space_group_IT_number       1

loop_
  _space_group_symop_operation_xyz
  'x, y, z'

loop_
  _atom_site_type_symbol
  _atom_site_label
  _atom_site_symmetry_multiplicity
  _atom_site_fract_x
  _atom_site_fract_y
  _atom_site_fract_z
  _atom_site_occupancy
  Cd  Cd1       1.0  0.69542  0.86988  0.88192  1.0000
  Cd  Cd2       1.0  0.30458  0.13012  0.11808  1.0000
  Cd  Cd3       1.0  0.0  0.0  0.0  1.0000
  Si  Si1       1.0  0.99083  0.65339  0.3885  1.0000
  Si  Si2       1.0  0.009169999999999928  0.34659999999999985  0.6114899999999999  1.0000
  H   H1        1.0  0.7711799999999999  0.45715999999999996  0.19214999999999996  1.0000
  H   H2        1.0  0.3001099999999998  0.7641399999999997  0.7706699999999999  1.0000
  H   H3        1.0  0.80262  0.51647  0.40844  1.0000
  H   H4        1.0  0.7100999999999998  0.24396  0.06209  1.0000
  H   H5        1.0  0.025599999999999935  0.8733599999999998  0.57949  1.0000
  H   H6        1.0  0.7203899999999998  0.58153  0.54552  1.0000
  H   H7        1.0  0.9450399999999998  0.9356299999999999  0.71786  1.0000
  H   H8        1.0  0.10640999999999999  0.70907  0.63375  1.0000
  H   H9        1.0  0.10808999999999996  0.4980699999999999  0.35602  1.0000
  H   H10       1.0  0.7846500000000001  0.82902  0.20138  1.0000
  H   H11       1.0  0.84406  0.7710299999999999  0.34707  1.0000
  H   H12       1.0  0.20853999999999998  0.7275999999999999  0.37986  1.0000
  H   H13       1.0  0.06579999999999997  0.6660699999999999  0.21397  1.0000
  H   H14       1.0  0.011870000000000006  0.73348  0.07655  1.0000
  H   H15       1.0  0.04559  0.28635  0.22109  1.0000
  H   H16       1.0  0.40174  0.78005  0.51728  1.0000
  H   H17       1.0  0.22882  0.54284  0.80785  1.0000
  H   H18       1.0  0.69989  0.23584999999999992  0.22932999999999998  1.0000
  H   H19       1.0  0.19738  0.48352  0.59156  1.0000
  H   H20       1.0  0.28989999999999994  0.7560399999999998  0.9379099999999999  1.0000
  H   H21       1.0  0.9744  0.12663999999999995  0.42051  1.0000
  H   H22       1.0  0.27961  0.41847  0.45448  1.0000
  H   H23       1.0  0.05496  0.06436  0.28214  1.0000
  H   H24       1.0  0.8935899999999999  0.29092999999999997  0.36624999999999996  1.0000
  H   H25       1.0  0.89191  0.50192  0.64398  1.0000
  H   H26       1.0  0.21534999999999993  0.1709799999999999  0.79862  1.0000
  H   H27       1.0  0.15593999999999994  0.22895999999999994  0.65293  1.0000
  H   H28       1.0  0.79146  0.2723999999999999  0.6201399999999999  1.0000
  H   H29       1.0  0.9342  0.33392  0.78603  1.0000
  H   H30       1.0  0.9881299999999998  0.2665099999999999  0.92345  1.0000
  H   H31       1.0  0.95441  0.71365  0.77891  1.0000
  H   H32       1.0  0.59827  0.21994000000000002  0.48272  1.0000
  C   C1        1.0  0.83175  0.4203099999999999  0.20038999999999998  1.0000
  C   C2        1.0  0.91969  0.69017  0.48327999999999993  1.0000
  C   C3        1.0  0.95988  0.71462  0.29252  1.0000
  C   C4        1.0  0.14202999999999996  0.7132599999999999  0.49554999999999993  1.0000
  C   C5        1.0  0.8290199999999998  0.76205  0.64054  1.0000
  C   C6        1.0  0.4781999999999999  0.8071699999999998  0.73347  1.0000
  C   C7        1.0  0.78661  0.80005  0.729  1.0000
  C   C8        1.0  0.2789099999999999  0.7551499999999998  0.6846799999999998  1.0000
  C   C9        1.0  0.36208  0.7742599999999998  0.65156  1.0000
  C   C10       1.0  0.9439799999999998  0.4934499999999999  0.28619  1.0000
  C   C11       1.0  0.8602499999999997  0.81951  0.04286  1.0000
  C   C12       1.0  0.89491  0.78464  0.13064  1.0000
  C   C13       1.0  0.8333399999999995  0.6085399999999999  0.47464  1.0000
  C   C14       1.0  0.79683  0.30094  0.1269  1.0000
  C   C15       1.0  0.95868  0.80863  0.57118  1.0000
  C   C16       1.0  0.7873999999999999  0.6441  0.55174  1.0000
  C   C17       1.0  0.91431  0.8444899999999997  0.64934  1.0000
  C   C18       1.0  0.17034  0.72472  0.60741  1.0000
  C   C19       1.0  0.020829999999999956  0.4438499999999999  0.29185  1.0000
  C   C20       1.0  0.84759  0.7953  0.20703999999999997  1.0000
  C   C21       1.0  0.8809599999999999  0.76197  0.28793  1.0000
  C   C22       1.0  0.2272  0.73494  0.46488  1.0000
  C   C23       1.0  0.00617  0.70418  0.21454  1.0000
  C   C24       1.0  0.9754599999999999  0.74007  0.13571  1.0000
  C   C25       1.0  0.8740899999999998  0.25253  0.13748  1.0000
  C   C26       1.0  0.98663  0.32501  0.21727999999999997  1.0000
  C   C27       1.0  0.33595999999999987  0.7645199999999998  0.5412  1.0000
  C   C28       1.0  0.83837  0.12424  0.06912  1.0000
  C   C29       1.0  0.1682499999999999  0.5796899999999999  0.7996099999999999  1.0000
  C   C30       1.0  0.08031000000000005  0.30983  0.51672  1.0000
  C   C31       1.0  0.040119999999999975  0.2853799999999999  0.70748  1.0000
  C   C32       1.0  0.8579700000000001  0.28674  0.50445  1.0000
  C   C33       1.0  0.17098  0.23795000000000002  0.35946  1.0000
  C   C34       1.0  0.5218000000000002  0.19283  0.26653  1.0000
  C   C35       1.0  0.21339  0.19994  0.271  1.0000
  C   C36       1.0  0.7210999999999997  0.24484000000000003  0.31532  1.0000
  C   C37       1.0  0.63792  0.22573999999999997  0.34844  1.0000
  C   C38       1.0  0.05602999999999995  0.50655  0.71381  1.0000
  C   C39       1.0  0.13974999999999993  0.18047999999999995  0.9571299999999999  1.0000
  C   C40       1.0  0.10509000000000003  0.21536  0.86936  1.0000
  C   C41       1.0  0.16665999999999997  0.39145  0.52536  1.0000
  C   C42       1.0  0.20316999999999993  0.6990599999999999  0.8731  1.0000
  C   C43       1.0  0.041319999999999996  0.19136999999999998  0.42882  1.0000
  C   C44       1.0  0.21259999999999998  0.3559  0.44825999999999994  1.0000
  C   C45       1.0  0.08569  0.15551  0.35066  1.0000
  C   C46       1.0  0.82966  0.27527999999999997  0.39258999999999994  1.0000
  C   C47       1.0  0.9791699999999998  0.55614  0.70815  1.0000
  C   C48       1.0  0.15240999999999996  0.20468999999999987  0.7929599999999999  1.0000
  C   C49       1.0  0.11905000000000002  0.23803000000000005  0.71207  1.0000
  C   C50       1.0  0.7728  0.26506  0.53512  1.0000
  C   C51       1.0  0.9938299999999999  0.2958100000000001  0.78546  1.0000
  C   C52       1.0  0.024539999999999965  0.2599299999999999  0.8642899999999999  1.0000
  C   C53       1.0  0.12591000000000002  0.74746  0.86252  1.0000
  C   C54       1.0  0.013369999999999962  0.6749899999999998  0.7827199999999999  1.0000
  C   C55       1.0  0.6640499999999998  0.23546999999999998  0.4587999999999999  1.0000
  C   C56       1.0  0.1616299999999999  0.87575  0.93087  1.0000
  O   O1        1.0  0.7055899999999998  0.7270399999999999  0.71793  1.0000
  O   O2        1.0  0.8334  0.90792  0.81624  1.0000
  O   O3        1.0  0.55627  0.86688  0.72727  1.0000
  O   O4        1.0  0.50006  0.77732  0.8091  1.0000
  O   O5        1.0  0.7647399999999999  0.8214599999999999  0.012569999999999998  1.0000
  O   O6        1.0  0.7365299999999999  0.06019999999999988  0.9919999999999998  1.0000
  O   O7        1.0  0.9264899999999999  0.84167  0.00353  1.0000
  O   O8        1.0  0.9103099999999998  0.08527999999999998  0.09442999999999999  1.0000
  O   O9        1.0  0.29440999999999995  0.27295  0.28207  1.0000
  O   O10       1.0  0.16659999999999997  0.09207999999999998  0.18376  1.0000
  O   O11       1.0  0.44373  0.13311999999999996  0.2727299999999999  1.0000
  O   O12       1.0  0.4999399999999999  0.22267  0.1909  1.0000
  O   O13       1.0  0.23525999999999989  0.17853  0.98743  1.0000
  O   O14       1.0  0.26346999999999987  0.9397999999999997  0.008  1.0000
  O   O15       1.0  0.07351000000000005  0.15831999999999996  0.99647  1.0000
  O   O16       1.0  0.08968999999999988  0.9147199999999996  0.9055699999999999  1.0000
