data_image0
_chemical_formula_structural       Mg6H36C72O24
_chemical_formula_sum              "Mg6 H36 C72 O24"
_cell_length_a       11.45379
_cell_length_b       12.126690000000002
_cell_length_c       17.374609999999997
_cell_angle_alpha    87.09776
_cell_angle_beta     83.26295999999999
_cell_angle_gamma    70.60764

_space_group_name_H-M_alt    "P 1"
_space_group_IT_number       1

loop_
  _space_group_symop_operation_xyz
  'x, y, z'

loop_
  _atom_site_type_symbol
  _atom_site_label
  _atom_site_symmetry_multiplicity
  _atom_site_fract_x
  _atom_site_fract_y
  _atom_site_fract_z
  _atom_site_occupancy
  Mg  Mg1       1.0  0.7005600000000002  0.3022099999999999  0.7427899999999997  1.0000
  Mg  Mg2       1.0  0.70129  0.41979  0.5737  1.0000
  Mg  Mg3       1.0  0.6917399999999999  0.17469999999999997  0.90756  1.0000
  Mg  Mg4       1.0  0.29944  0.6977999999999999  0.25721  1.0000
  Mg  Mg5       1.0  0.2987100000000001  0.58021  0.4263  1.0000
  Mg  Mg6       1.0  0.30826  0.82531  0.09244  1.0000
  H   H1        1.0  0.35449  0.69955  0.60952  1.0000
  H   H2        1.0  0.43410000000000015  0.5856399999999999  0.8416099999999997  1.0000
  H   H3        1.0  0.23724  0.73504  0.8952799999999997  1.0000
  H   H4        1.0  0.03652999999999999  0.89162  0.8726999999999998  1.0000
  H   H5        1.0  0.96896  0.0198  0.6414099999999999  1.0000
  H   H6        1.0  0.16738  0.87026  0.58789  1.0000
  H   H7        1.0  0.38943  0.38613  0.76052  1.0000
  H   H8        1.0  0.36867999999999995  0.057419999999999985  0.85445  1.0000
  H   H9        1.0  0.17884  0.08302  0.7881199999999998  1.0000
  H   H10       1.0  0.014180000000000017  0.20847999999999997  0.70987  1.0000
  H   H11       1.0  0.037619999999999994  0.53542  0.61306  1.0000
  H   H12       1.0  0.22681000000000007  0.50956  0.68054  1.0000
  H   H13       1.0  0.8374200000000002  0.3781499999999999  0.05065  1.0000
  H   H14       1.0  0.9326100000000002  0.44570999999999994  0.8104199999999998  1.0000
  H   H15       1.0  0.07102000000000006  0.5515799999999998  0.84698  1.0000
  H   H16       1.0  0.57404  0.1865  0.44046  1.0000
  H   H17       1.0  0.4828200000000001  0.92745  0.65458  1.0000
  H   H18       1.0  0.55928  0.09097  0.68203  1.0000
  H   H19       1.0  0.64551  0.30045999999999995  0.39049  1.0000
  H   H20       1.0  0.5659  0.41437  0.15838999999999995  1.0000
  H   H21       1.0  0.76276  0.26496999999999993  0.10472  1.0000
  H   H22       1.0  0.96347  0.10839  0.12731  1.0000
  H   H23       1.0  0.031040000000000068  0.98021  0.3585899999999999  1.0000
  H   H24       1.0  0.8326199999999999  0.12975  0.41211  1.0000
  H   H25       1.0  0.6105700000000001  0.61387  0.23947999999999997  1.0000
  H   H26       1.0  0.63132  0.9425799999999999  0.14555  1.0000
  H   H27       1.0  0.8211600000000001  0.9169799999999999  0.21187999999999996  1.0000
  H   H28       1.0  0.98582  0.79153  0.29013  1.0000
  H   H29       1.0  0.9623699999999997  0.46458  0.38694  1.0000
  H   H30       1.0  0.77319  0.4904399999999999  0.31946999999999987  1.0000
  H   H31       1.0  0.16258  0.6218599999999999  0.94935  1.0000
  H   H32       1.0  0.06739000000000003  0.5543  0.18957999999999994  1.0000
  H   H33       1.0  0.9289800000000001  0.4484299999999999  0.15302  1.0000
  H   H34       1.0  0.4259599999999998  0.8135  0.55955  1.0000
  H   H35       1.0  0.51718  0.07256  0.34542  1.0000
  H   H36       1.0  0.44071999999999995  0.90903  0.31797  1.0000
  C   C1        1.0  0.32884000000000013  0.70927  0.6717699999999998  1.0000
  C   C2        1.0  0.40552000000000005  0.63534  0.7222299999999998  1.0000
  C   C3        1.0  0.3716600000000001  0.6447399999999999  0.8035999999999998  1.0000
  C   C4        1.0  0.26219000000000003  0.7270199999999999  0.83284  1.0000
  C   C5        1.0  0.06643000000000004  0.8868699999999999  0.8107699999999999  1.0000
  C   C6        1.0  0.9913299999999999  0.96288  0.76038  1.0000
  C   C7        1.0  0.028850000000000108  0.9577899999999998  0.6792699999999998  1.0000
  C   C8        1.0  0.13829999999999995  0.87542  0.64994  1.0000
  C   C9        1.0  0.21652000000000002  0.7957199999999999  0.70027  1.0000
  C   C10       1.0  0.1810100000000001  0.8035399999999999  0.7824599999999998  1.0000
  C   C11       1.0  0.8726600000000002  0.05245  0.7915799999999997  1.0000
  C   C12       1.0  0.5234600000000001  0.54479  0.69133  1.0000
  C   C13       1.0  0.34222  0.32121  0.76647  1.0000
  C   C14       1.0  0.38871  0.22101999999999994  0.81091  1.0000
  C   C15       1.0  0.32892  0.13477  0.8194  1.0000
  C   C16       1.0  0.2242500000000001  0.14947  0.7829199999999997  1.0000
  C   C17       1.0  0.06312999999999998  0.27203  0.70231  1.0000
  C   C18       1.0  0.01629000000000006  0.37240999999999996  0.6580799999999999  1.0000
  C   C19       1.0  0.07689999999999998  0.45804  0.6483599999999998  1.0000
  C   C20       1.0  0.18183000000000002  0.44279  0.68491  1.0000
  C   C21       1.0  0.23331000000000002  0.3398  0.7296799999999998  1.0000
  C   C22       1.0  0.17334000000000002  0.25218  0.7379  1.0000
  C   C23       1.0  0.8992  0.39042  0.6237  1.0000
  C   C24       1.0  0.5007000000000001  0.20517  0.85021  1.0000
  C   C25       1.0  0.8884600000000001  0.41614999999999996  0.00651  1.0000
  C   C26       1.0  0.87697  0.40598  0.92883  1.0000
  C   C27       1.0  0.9431400000000002  0.45593  0.8707299999999998  1.0000
  C   C28       1.0  0.01972  0.5138  0.8913  1.0000
  C   C29       1.0  0.9662900000000001  0.4751599999999999  0.029399999999999996  1.0000
  C   C30       1.0  0.799  0.33915  0.90539  1.0000
  C   C31       1.0  0.55588  0.12854  0.48656  1.0000
  C   C32       1.0  0.5733400000000002  0.14621  0.56197  1.0000
  C   C33       1.0  0.50394  0.9838999999999998  0.60816  1.0000
  C   C34       1.0  0.54598  0.07364  0.6235  1.0000
  C   C35       1.0  0.51296  0.037070000000000006  0.46896999999999994  1.0000
  C   C36       1.0  0.62005  0.24167999999999995  0.57928  1.0000
  C   C37       1.0  0.67116  0.29074  0.32823  1.0000
  C   C38       1.0  0.5944700000000003  0.36467  0.27778  1.0000
  C   C39       1.0  0.6283400000000001  0.3552699999999999  0.1964  1.0000
  C   C40       1.0  0.73781  0.27298  0.16715999999999995  1.0000
  C   C41       1.0  0.93357  0.11313999999999999  0.18923  1.0000
  C   C42       1.0  0.008670000000000002  0.03713  0.23962  1.0000
  C   C43       1.0  0.9711399999999999  0.04222  0.32072999999999996  1.0000
  C   C44       1.0  0.8616999999999999  0.12459  0.35006  1.0000
  C   C45       1.0  0.7834799999999998  0.20428999999999997  0.29973  1.0000
  C   C46       1.0  0.8189900000000001  0.19647  0.21754  1.0000
  C   C47       1.0  0.12733000000000008  0.9475499999999998  0.20841999999999994  1.0000
  C   C48       1.0  0.47654  0.45521999999999996  0.30867  1.0000
  C   C49       1.0  0.6577800000000001  0.6788  0.23352999999999996  1.0000
  C   C50       1.0  0.6112900000000002  0.77899  0.18909  1.0000
  C   C51       1.0  0.67108  0.86524  0.1806  1.0000
  C   C52       1.0  0.77574  0.8505399999999997  0.21708  1.0000
  C   C53       1.0  0.9368699999999999  0.7279799999999998  0.29769  1.0000
  C   C54       1.0  0.98371  0.6276  0.3419199999999999  1.0000
  C   C55       1.0  0.9231  0.54197  0.35164  1.0000
  C   C56       1.0  0.8181600000000002  0.5572199999999999  0.31509  1.0000
  C   C57       1.0  0.76669  0.66021  0.27033  1.0000
  C   C58       1.0  0.82666  0.74783  0.2621  1.0000
  C   C59       1.0  0.10079999999999997  0.60959  0.3763  1.0000
  C   C60       1.0  0.49929  0.79483  0.14978999999999998  1.0000
  C   C61       1.0  0.11154000000000008  0.58386  0.9934899999999999  1.0000
  C   C62       1.0  0.12303000000000007  0.59403  0.07116999999999998  1.0000
  C   C63       1.0  0.05686000000000004  0.5440799999999999  0.12927  1.0000
  C   C64       1.0  0.98028  0.48621  0.1087  1.0000
  C   C65       1.0  0.03370999999999998  0.5248400000000001  0.9705999999999999  1.0000
  C   C66       1.0  0.20099999999999998  0.6608499999999999  0.09460999999999997  1.0000
  C   C67       1.0  0.44412  0.8714699999999999  0.51344  1.0000
  C   C68       1.0  0.4266599999999999  0.85379  0.43802999999999986  1.0000
  C   C69       1.0  0.49606  0.016109999999999992  0.39184  1.0000
  C   C70       1.0  0.4540200000000001  0.9263699999999998  0.3765  1.0000
  C   C71       1.0  0.4870399999999999  0.96294  0.53103  1.0000
  C   C72       1.0  0.37995  0.7583299999999998  0.42072  1.0000
  O   O1        1.0  0.8118199999999999  0.12782  0.74503  1.0000
  O   O2        1.0  0.83948  0.04906999999999999  0.86496  1.0000
  O   O3        1.0  0.55477  0.54484  0.61746  1.0000
  O   O4        1.0  0.5851499999999997  0.4728299999999999  0.73913  1.0000
  O   O5        1.0  0.8688000000000001  0.4559999999999999  0.5644599999999999  1.0000
  O   O6        1.0  0.8237499999999999  0.33692  0.65469  1.0000
  O   O7        1.0  0.5308900000000001  0.13163  0.9057599999999998  1.0000
  O   O8        1.0  0.57126  0.26837  0.8289799999999998  1.0000
  O   O9        1.0  0.7886499999999997  0.33297  0.83384  1.0000
  O   O10       1.0  0.74795  0.2862100000000001  0.9589799999999999  1.0000
  O   O11       1.0  0.61692  0.26858  0.64948  1.0000
  O   O12       1.0  0.66196  0.29614  0.52218  1.0000
  O   O13       1.0  0.18818000000000007  0.8721899999999998  0.25497  1.0000
  O   O14       1.0  0.16051999999999997  0.95094  0.13504  1.0000
  O   O15       1.0  0.44523  0.45517  0.38254  1.0000
  O   O16       1.0  0.41485000000000005  0.52718  0.26087  1.0000
  O   O17       1.0  0.13120000000000004  0.54401  0.43553999999999987  1.0000
  O   O18       1.0  0.17624999999999996  0.66309  0.34531  1.0000
  O   O19       1.0  0.4691099999999999  0.86838  0.09423999999999999  1.0000
  O   O20       1.0  0.42874000000000007  0.73164  0.17102  1.0000
  O   O21       1.0  0.21135000000000004  0.66703  0.16616  1.0000
  O   O22       1.0  0.25205  0.7138  0.04102  1.0000
  O   O23       1.0  0.38308  0.73143  0.3505199999999999  1.0000
  O   O24       1.0  0.33804  0.70386  0.47782  1.0000
