data_image0
_chemical_formula_structural       Cu4H44C80O16
_chemical_formula_sum              "Cu4 H44 C80 O16"
_cell_length_a       13.67309
_cell_length_b       16.17028
_cell_length_c       30.00613
_cell_angle_alpha    90.0
_cell_angle_beta     90.0
_cell_angle_gamma    114.54067

_space_group_name_H-M_alt    "P 1"
_space_group_IT_number       1

loop_
  _space_group_symop_operation_xyz
  'x, y, z'

loop_
  _atom_site_type_symbol
  _atom_site_label
  _atom_site_symmetry_multiplicity
  _atom_site_fract_x
  _atom_site_fract_y
  _atom_site_fract_z
  _atom_site_occupancy
  Cu  Cu1       1.0  0.5510599999999999  0.4534699999999999  0.0  1.0000
  Cu  Cu2       1.0  0.44894  0.5465299999999997  0.0  1.0000
  Cu  Cu3       1.0  0.9033400000000001  0.45372  0.5  1.0000
  Cu  Cu4       1.0  0.09666  0.54628  0.5  1.0000
  H   H1        1.0  0.7326400000000002  0.84543  0.15917  1.0000
  H   H2        1.0  0.9118500000000003  0.93857  0.18289000000000005  1.0000
  H   H3        1.0  0.8708000000000001  0.65178  0.17645  1.0000
  H   H4        1.0  0.62669  0.7560399999999999  0.09472  1.0000
  H   H5        1.0  0.7658700000000003  0.5638  0.11153  1.0000
  H   H6        1.0  0.26736  0.15456999999999996  0.15917  1.0000
  H   H7        1.0  0.08815  0.061429999999999985  0.18289000000000005  1.0000
  H   H8        1.0  0.12920000000000006  0.34822  0.17645  1.0000
  H   H9        1.0  0.37331  0.24396  0.09472  1.0000
  H   H10       1.0  0.23413  0.4361999999999999  0.11153  1.0000
  H   H11       1.0  0.11112999999999995  0.8445799999999998  0.34049000000000007  1.0000
  H   H12       1.0  0.02610000000000005  0.93814  0.31647  1.0000
  H   H13       1.0  0.7819700000000003  0.6528899999999999  0.3231900000000001  1.0000
  H   H14       1.0  0.12776  0.75497  0.40537  1.0000
  H   H15       1.0  0.7993399999999999  0.5647999999999997  0.38854  1.0000
  H   H16       1.0  0.8888700000000003  0.15542  0.34049000000000007  1.0000
  H   H17       1.0  0.9739000000000002  0.06186  0.31647  1.0000
  H   H18       1.0  0.21803000000000003  0.34710999999999986  0.3231900000000001  1.0000
  H   H19       1.0  0.8722399999999999  0.24503  0.40537  1.0000
  H   H20       1.0  0.20066000000000006  0.4352  0.38854  1.0000
  H   H21       1.0  0.26736  0.15456999999999996  0.84083  1.0000
  H   H22       1.0  0.08815  0.061429999999999985  0.8171  1.0000
  H   H23       1.0  0.12920000000000006  0.34822  0.82355  1.0000
  H   H24       1.0  0.37331  0.24396  0.90528  1.0000
  H   H25       1.0  0.23413  0.4361999999999999  0.88847  1.0000
  H   H26       1.0  0.7326400000000002  0.84543  0.84083  1.0000
  H   H27       1.0  0.9118500000000003  0.93857  0.8171  1.0000
  H   H28       1.0  0.8708000000000001  0.65178  0.82355  1.0000
  H   H29       1.0  0.62669  0.7560399999999999  0.90528  1.0000
  H   H30       1.0  0.7658700000000003  0.5638  0.88847  1.0000
  H   H31       1.0  0.8888700000000003  0.15542  0.6595  1.0000
  H   H32       1.0  0.9739000000000002  0.06186  0.68353  1.0000
  H   H33       1.0  0.21803000000000003  0.34710999999999986  0.6768  1.0000
  H   H34       1.0  0.8722399999999999  0.24503  0.59463  1.0000
  H   H35       1.0  0.20066000000000006  0.4352  0.61145  1.0000
  H   H36       1.0  0.11112999999999995  0.8445799999999998  0.6595  1.0000
  H   H37       1.0  0.02610000000000005  0.93814  0.68353  1.0000
  H   H38       1.0  0.7819700000000003  0.6528899999999999  0.6768  1.0000
  H   H39       1.0  0.12776  0.75497  0.59463  1.0000
  H   H40       1.0  0.7993399999999999  0.5647999999999997  0.61145  1.0000
  H   H41       1.0  0.8426200000000003  0.68529  0.24996  1.0000
  H   H42       1.0  0.15738  0.31471  0.24996  1.0000
  H   H43       1.0  0.15738  0.31471  0.7500300000000002  1.0000
  H   H44       1.0  0.8426200000000003  0.68529  0.7500300000000002  1.0000
  C   C1        1.0  0.6224  0.59921  0.06148  1.0000
  C   C2        1.0  0.8091900000000002  0.75487  0.17257000000000006  1.0000
  C   C3        1.0  0.6892800000000001  0.6542  0.09911  1.0000
  C   C4        1.0  0.74101  0.7843  0.14858  1.0000
  C   C5        1.0  0.91829  0.9014  0.21215  1.0000
  C   C6        1.0  0.8170700000000002  0.67461  0.15872  1.0000
  C   C7        1.0  0.6811700000000003  0.73436  0.11256  1.0000
  C   C8        1.0  0.8699400000000003  0.80595  0.21186  1.0000
  C   C9        1.0  0.75857  0.6251899999999998  0.12233  1.0000
  C   C10       1.0  0.3776  0.40079  0.06148  1.0000
  C   C11       1.0  0.19080999999999998  0.24512999999999993  0.17257000000000006  1.0000
  C   C12       1.0  0.3107200000000001  0.3458  0.09911  1.0000
  C   C13       1.0  0.25899000000000005  0.21569999999999995  0.14858  1.0000
  C   C14       1.0  0.08171  0.0986  0.21215  1.0000
  C   C15       1.0  0.18293  0.32539  0.15872  1.0000
  C   C16       1.0  0.31883  0.26564  0.11256  1.0000
  C   C17       1.0  0.13006  0.19404999999999994  0.21186  1.0000
  C   C18       1.0  0.24143  0.37481  0.12233  1.0000
  C   C19       1.0  0.9764000000000004  0.5996  0.43861  1.0000
  C   C20       1.0  0.94536  0.7548299999999998  0.32712  1.0000
  C   C21       1.0  0.96463  0.6545099999999998  0.4008400000000001  1.0000
  C   C22       1.0  0.042330000000000007  0.78385  0.35117  1.0000
  C   C23       1.0  0.98272  0.9012299999999999  0.28723  1.0000
  C   C24       1.0  0.85792  0.67517  0.34101  1.0000
  C   C25       1.0  0.052280000000000035  0.73401  0.38737  1.0000
  C   C26       1.0  0.9356400000000002  0.8058499999999997  0.28771  1.0000
  C   C27       1.0  0.86709  0.6258399999999997  0.37756  1.0000
  C   C28       1.0  0.023599999999999954  0.40039999999999987  0.43861  1.0000
  C   C29       1.0  0.05464000000000003  0.24517  0.32712  1.0000
  C   C30       1.0  0.03537  0.34549  0.4008400000000001  1.0000
  C   C31       1.0  0.9576700000000002  0.21614999999999995  0.35117  1.0000
  C   C32       1.0  0.01728  0.09877  0.28723  1.0000
  C   C33       1.0  0.14208  0.32483  0.34101  1.0000
  C   C34       1.0  0.9477200000000002  0.26599  0.38737  1.0000
  C   C35       1.0  0.06435999999999997  0.19414999999999996  0.28771  1.0000
  C   C36       1.0  0.13291  0.37416  0.37756  1.0000
  C   C37       1.0  0.3776  0.40079  0.93852  1.0000
  C   C38       1.0  0.19080999999999998  0.24512999999999993  0.82743  1.0000
  C   C39       1.0  0.3107200000000001  0.3458  0.90089  1.0000
  C   C40       1.0  0.25899000000000005  0.21569999999999995  0.85142  1.0000
  C   C41       1.0  0.08171  0.0986  0.78785  1.0000
  C   C42       1.0  0.18293  0.32539  0.84128  1.0000
  C   C43       1.0  0.31883  0.26564  0.8874300000000002  1.0000
  C   C44       1.0  0.13006  0.19404999999999994  0.78814  1.0000
  C   C45       1.0  0.24143  0.37481  0.87767  1.0000
  C   C46       1.0  0.6224  0.59921  0.93852  1.0000
  C   C47       1.0  0.8091900000000002  0.75487  0.82743  1.0000
  C   C48       1.0  0.6892800000000001  0.6542  0.90089  1.0000
  C   C49       1.0  0.74101  0.7843  0.85142  1.0000
  C   C50       1.0  0.91829  0.9014  0.78785  1.0000
  C   C51       1.0  0.8170700000000002  0.67461  0.84128  1.0000
  C   C52       1.0  0.6811700000000003  0.73436  0.8874300000000002  1.0000
  C   C53       1.0  0.8699400000000003  0.80595  0.78814  1.0000
  C   C54       1.0  0.75857  0.6251899999999998  0.87767  1.0000
  C   C55       1.0  0.023599999999999954  0.40039999999999987  0.56139  1.0000
  C   C56       1.0  0.05464000000000003  0.24517  0.67287  1.0000
  C   C57       1.0  0.03537  0.34549  0.59916  1.0000
  C   C58       1.0  0.9576700000000002  0.21614999999999995  0.64882  1.0000
  C   C59       1.0  0.01728  0.09877  0.71277  1.0000
  C   C60       1.0  0.14208  0.32483  0.65899  1.0000
  C   C61       1.0  0.9477200000000002  0.26599  0.6126300000000002  1.0000
  C   C62       1.0  0.06435999999999997  0.19414999999999996  0.71229  1.0000
  C   C63       1.0  0.13291  0.37416  0.6224400000000001  1.0000
  C   C64       1.0  0.9764000000000004  0.5996  0.56139  1.0000
  C   C65       1.0  0.94536  0.7548299999999998  0.67287  1.0000
  C   C66       1.0  0.96463  0.6545099999999998  0.59916  1.0000
  C   C67       1.0  0.042330000000000007  0.78385  0.64882  1.0000
  C   C68       1.0  0.98272  0.9012299999999999  0.71277  1.0000
  C   C69       1.0  0.85792  0.67517  0.65899  1.0000
  C   C70       1.0  0.052280000000000035  0.73401  0.6126300000000002  1.0000
  C   C71       1.0  0.9356400000000002  0.8058499999999997  0.71229  1.0000
  C   C72       1.0  0.86709  0.6258399999999997  0.6224400000000001  1.0000
  C   C73       1.0  0.97476  0.94966  0.24963  1.0000
  C   C74       1.0  0.8794899999999999  0.7592299999999997  0.24984  1.0000
  C   C75       1.0  0.02524  0.05034  0.24963  1.0000
  C   C76       1.0  0.12051  0.24076999999999996  0.24984  1.0000
  C   C77       1.0  0.02524  0.05034  0.75036  1.0000
  C   C78       1.0  0.12051  0.24076999999999996  0.75016  1.0000
  C   C79       1.0  0.97476  0.94966  0.75036  1.0000
  C   C80       1.0  0.8794899999999999  0.7592299999999997  0.75016  1.0000
  O   O1        1.0  0.6430700000000003  0.53356  0.047  1.0000
  O   O2        1.0  0.54839  0.62124  0.04676  1.0000
  O   O3        1.0  0.35693  0.4664399999999999  0.047  1.0000
  O   O4        1.0  0.45161  0.37876  0.04676  1.0000
  O   O5        1.0  0.8908700000000003  0.53439  0.4530900000000001  1.0000
  O   O6        1.0  0.07193999999999993  0.6212799999999998  0.45333  1.0000
  O   O7        1.0  0.10913000000000005  0.46561  0.4530900000000001  1.0000
  O   O8        1.0  0.9280599999999999  0.3787199999999999  0.45333  1.0000
  O   O9        1.0  0.35693  0.4664399999999999  0.95299  1.0000
  O   O10       1.0  0.45161  0.37876  0.95323  1.0000
  O   O11       1.0  0.6430700000000003  0.53356  0.95299  1.0000
  O   O12       1.0  0.54839  0.62124  0.95323  1.0000
  O   O13       1.0  0.10913000000000005  0.46561  0.5469  1.0000
  O   O14       1.0  0.9280599999999999  0.3787199999999999  0.54667  1.0000
  O   O15       1.0  0.8908700000000003  0.53439  0.5469  1.0000
  O   O16       1.0  0.07193999999999993  0.6212799999999998  0.54667  1.0000
