data_image0
_chemical_formula_structural       Co2H40C56N4O8
_chemical_formula_sum              "Co2 H40 C56 N4 O8"
_cell_length_a       8.63069
_cell_length_b       13.179720000000001
_cell_length_c       14.205079999999999
_cell_angle_alpha    62.09496
_cell_angle_beta     84.46969
_cell_angle_gamma    78.0651

_symmetry_space_group_name_H-M    'P 1'
_symmetry_Int_Tables_number       1

loop_
  _symmetry_equiv_pos_as_xyz
  'x,y,z'

loop_
  _atom_site_type_symbol
  _atom_site_label
  _atom_site_symmetry_multiplicity
  _atom_site_fract_x
  _atom_site_fract_y
  _atom_site_fract_z
  _atom_site_occupancy
  Co  Co1       1.0  0.7970300000000001  0.5111000000000001  0.18253999999999995  1.0000
  Co  Co2       1.0  0.3012599999999999  0.6942700000000002  0.8168999999999998  1.0000
  H   H1        1.0  0.5461  0.16312  0.82298  1.0000
  H   H2        1.0  0.6897800000000001  0.5631200000000001  0.9636399999999998  1.0000
  H   H3        1.0  0.44165999999999994  0.04654000000000005  0.7568999999999999  1.0000
  H   H4        1.0  0.59858  0.06311  0.11852  1.0000
  H   H5        1.0  0.9274799999999997  0.9836200000000005  0.51124  1.0000
  H   H6        1.0  0.21116999999999997  0.58581  0.52278  1.0000
  H   H7        1.0  0.42654  0.49210999999999994  0.4879  1.0000
  H   H8        1.0  0.9637100000000001  0.7026800000000001  0.89176  1.0000
  H   H9        1.0  0.9391399999999999  0.80337  0.24368999999999996  1.0000
  H   H10       1.0  0.72989  0.13883  0.1788  1.0000
  H   H11       1.0  0.1041  0.33922  0.11528  1.0000
  H   H12       1.0  0.80194  0.6396200000000002  0.40406  1.0000
  H   H13       1.0  0.045550000000000035  0.9858100000000001  0.17711999999999994  1.0000
  H   H14       1.0  0.31333  0.37585000000000013  0.23657  1.0000
  H   H15       1.0  0.57106  0.2714000000000001  0.89364  1.0000
  H   H16       1.0  0.9734499999999999  0.057070000000000023  0.85402  1.0000
  H   H17       1.0  0.19158999999999993  0.52858  0.03373  1.0000
  H   H18       1.0  0.8667699999999999  0.8739600000000001  0.92221  1.0000
  H   H19       1.0  0.46055  0.59186  0.10811  1.0000
  H   H20       1.0  0.60662  0.4540100000000001  0.88288  1.0000
  H   H21       1.0  0.06892  0.16601000000000002  0.10567  1.0000
  H   H22       1.0  0.19598  0.62376  0.18471  1.0000
  H   H23       1.0  0.69904  0.81279  0.8154  1.0000
  H   H24       1.0  0.5334200000000001  0.93712  0.6593599999999998  1.0000
  H   H25       1.0  0.05271000000000001  0.16421  0.50579  1.0000
  H   H26       1.0  0.5664499999999999  0.25725  0.33006  1.0000
  H   H27       1.0  0.30478  0.04116000000000003  0.59947  1.0000
  H   H28       1.0  0.36525999999999986  0.7950200000000001  0.07868  1.0000
  H   H29       1.0  0.31594  0.5097300000000001  0.75245  1.0000
  H   H30       1.0  0.47071999999999986  0.9105100000000003  0.1463  1.0000
  H   H31       1.0  0.68211  0.46182000000000023  0.39924  1.0000
  H   H32       1.0  0.23185999999999998  0.3180700000000001  0.82174  1.0000
  H   H33       1.0  0.030589999999999933  0.5929800000000001  0.34176999999999996  1.0000
  H   H34       1.0  0.07384000000000002  0.58945  0.6671199999999999  1.0000
  H   H35       1.0  0.8115199999999999  0.2620500000000001  0.2473  1.0000
  H   H36       1.0  0.8246199999999999  0.6158100000000002  0.7629599999999999  1.0000
  H   H37       1.0  0.7091399999999999  0.11273000000000002  0.47496999999999995  1.0000
  H   H38       1.0  0.18349  0.8631099999999999  0.59925  1.0000
  H   H39       1.0  0.55381  0.67029  0.5  1.0000
  H   H40       1.0  0.1004  0.18239999999999998  0.88167  1.0000
  C   C1        1.0  0.31271  0.30292000000000013  0.3158  1.0000
  C   C2        1.0  0.45387  0.23620000000000002  0.36796  1.0000
  C   C3        1.0  0.5046  0.08358000000000011  0.8793799999999999  1.0000
  C   C4        1.0  0.89706  0.8267000000000002  0.08683999999999999  1.0000
  C   C5        1.0  0.6739699999999998  0.64473  0.63735  1.0000
  C   C6        1.0  0.8035499999999999  0.8280800000000001  0.7649199999999999  1.0000
  C   C7        1.0  0.71793  0.23252  0.12815  1.0000
  C   C8        1.0  0.51491  0.04568000000000007  0.9898299999999998  1.0000
  C   C9        1.0  0.6077099999999999  0.07470999999999997  0.51925  1.0000
  C   C10       1.0  0.9570099999999999  0.6112100000000001  0.52959  1.0000
  C   C11       1.0  0.26742  0.46776000000000006  0.8322699999999998  1.0000
  C   C12       1.0  0.1666  0.18251000000000003  0.46814999999999996  1.0000
  C   C13       1.0  0.46353999999999995  0.9407000000000002  0.06091999999999999  1.0000
  C   C14       1.0  0.34898000000000007  0.83995  0.87195  1.0000
  C   C15       1.0  0.07637000000000001  0.14388999999999996  0.96697  1.0000
  C   C16       1.0  0.8457700000000001  0.71217  0.12887  1.0000
  C   C17       1.0  0.80813  0.63403  0.48266  1.0000
  C   C18       1.0  0.76441  0.29997  0.16715  1.0000
  C   C19       1.0  0.30777000000000004  0.11430999999999998  0.52003  1.0000
  C   C20       1.0  0.015469999999999998  0.03584  0.010429999999999998  1.0000
  C   C21       1.0  0.09966  0.20071  0.02156  1.0000
  C   C22       1.0  0.19938999999999998  0.47918999999999995  0.98928  1.0000
  C   C23       1.0  0.13135  0.58322  0.38809999999999995  1.0000
  C   C24       1.0  0.45466000000000006  0.14073999999999998  0.47058  1.0000
  C   C25       1.0  0.10819999999999998  0.5922  0.47987  1.0000
  C   C26       1.0  0.28654  0.5634200000000001  0.3433199999999999  1.0000
  C   C27       1.0  0.44852  0.57014  0.19221  1.0000
  C   C28       1.0  0.57569  0.11017  0.03305  1.0000
  C   C29       1.0  0.07317999999999988  0.8571800000000003  0.64388  1.0000
  C   C30       1.0  0.42796  0.51704  0.4032399999999999  1.0000
  C   C31       1.0  0.004169999999999933  0.9628000000000001  0.12091  1.0000
  C   C32       1.0  0.82115  0.6208300000000002  0.68467  1.0000
  C   C33       1.0  0.9455100000000001  0.8601299999999998  0.15852  1.0000
  C   C34       1.0  0.16738999999999998  0.2777  0.36573  1.0000
  C   C35       1.0  0.9515099999999999  0.7653700000000002  0.80756  1.0000
  C   C36       1.0  0.30062  0.5892900000000001  0.23505  1.0000
  C   C37       1.0  0.69813  0.4689  0.00899  1.0000
  C   C38       1.0  0.78896  0.9104700000000001  0.65639  1.0000
  C   C39       1.0  0.3984599999999999  0.9127500000000001  0.91376  1.0000
  C   C40       1.0  0.15039  0.37218  0.03455  1.0000
  C   C41       1.0  0.52572  0.6646  0.69384  1.0000
  C   C42       1.0  0.6004699999999998  0.22166000000000005  0.97801  1.0000
  C   C43       1.0  0.21953  0.36145  0.8717  1.0000
  C   C44       1.0  0.6690999999999999  0.6510300000000002  0.53589  1.0000
  C   C45       1.0  0.5711500000000002  0.49951  0.35524999999999995  1.0000
  C   C46       1.0  0.6332199999999999  0.9744100000000003  0.61202  1.0000
  C   C47       1.0  0.90595  0.8994000000000002  0.97711  1.0000
  C   C48       1.0  0.6511700000000001  0.40648  0.96406  1.0000
  C   C49       1.0  0.92986  0.92356  0.59605  1.0000
  C   C50       1.0  0.65729  0.28519  0.023749999999999997  1.0000
  C   C51       1.0  0.44699000000000005  0.018290000000000004  0.84197  1.0000
  C   C52       1.0  0.9601  0.60568  0.63099  1.0000
  C   C53       1.0  0.4051199999999999  0.8755500000000003  0.02353  1.0000
  C   C54       1.0  0.96526  0.0019399999999999903  0.93947  1.0000
  C   C55       1.0  0.15711  0.31013000000000013  0.9756699999999999  1.0000
  C   C56       1.0  0.016900000000000012  0.35256  0.31077  1.0000
  N   N1        1.0  0.08554999999999997  0.77869  0.74855  1.0000
  N   N2        1.0  0.7538799999999999  0.4176100000000001  0.10987999999999999  1.0000
  N   N3        1.0  0.25709000000000004  0.52825  0.88888  1.0000
  N   N4        1.0  0.58288  0.5255899999999999  0.25085  1.0000
  O   O1        1.0  0.39047999999999994  0.6781399999999999  0.65695  1.0000
  O   O2        1.0  0.34174999999999994  0.8769800000000001  0.7720099999999999  1.0000
  O   O3        1.0  0.53786  0.66658  0.78296  1.0000
  O   O4        1.0  0.83434  0.65045  0.22868999999999998  1.0000
  O   O5        1.0  0.88289  0.32751000000000013  0.34835  1.0000
  O   O6        1.0  0.02774999999999998  0.44514  0.22161  1.0000
  O   O7        1.0  0.3203500000000001  0.7369399999999999  0.93735  1.0000
  O   O8        1.0  0.81996  0.67345  0.06399  1.0000
