data_image0
_chemical_formula_structural       Mn10H28C56N8O44
_chemical_formula_sum              "Mn10 H28 C56 N8 O44"
_cell_length_a       10.94676
_cell_length_b       11.12583
_cell_length_c       16.83945
_cell_angle_alpha    99.12064
_cell_angle_beta     109.09266000000001
_cell_angle_gamma    91.23933

_space_group_name_H-M_alt    "P 1"
_space_group_IT_number       1

loop_
  _space_group_symop_operation_xyz
  'x, y, z'

loop_
  _atom_site_type_symbol
  _atom_site_label
  _atom_site_symmetry_multiplicity
  _atom_site_fract_x
  _atom_site_fract_y
  _atom_site_fract_z
  _atom_site_occupancy
  Mn  Mn1       1.0  0.59908  0.7301499999999999  0.96614  1.0000
  Mn  Mn2       1.0  0.6650299999999998  0.31235  0.44236  1.0000
  Mn  Mn3       1.0  0.7538299999999999  0.59761  0.4624  1.0000
  Mn  Mn4       1.0  0.67773  0.37265  0.24994  1.0000
  Mn  Mn5       1.0  0.3032299999999998  0.7906199999999999  0.9408099999999998  1.0000
  Mn  Mn6       1.0  0.40092  0.26985000000000003  0.03386  1.0000
  Mn  Mn7       1.0  0.3349599999999998  0.6876499999999999  0.5576299999999997  1.0000
  Mn  Mn8       1.0  0.24615999999999996  0.40239  0.5376  1.0000
  Mn  Mn9       1.0  0.32225999999999994  0.6273499999999999  0.7500599999999998  1.0000
  Mn  Mn10      1.0  0.6967599999999999  0.20938  0.05919  1.0000
  H   H1        1.0  0.8865899999999999  0.003009999999999997  0.13738  1.0000
  H   H2        1.0  0.9327099999999999  0.046729999999999994  0.29901  1.0000
  H   H3        1.0  0.8842799999999995  0.8764  0.3677999999999999  1.0000
  H   H4        1.0  0.5841500000000001  0.9074499999999999  0.37913  1.0000
  H   H5        1.0  0.5093099999999999  0.69403  0.29726  1.0000
  H   H6        1.0  0.45326999999999995  0.65918  0.13551  1.0000
  H   H7        1.0  0.88052  0.53818  0.87607  1.0000
  H   H8        1.0  0.03282999999999994  0.46273999999999993  0.79996  1.0000
  H   H9        1.0  0.9467199999999998  0.4232199999999999  0.6355299999999998  1.0000
  H   H10       1.0  0.5995899999999998  0.8558899999999999  0.61844  1.0000
  H   H11       1.0  0.66754  0.88261  0.78043  1.0000
  H   H12       1.0  0.88984  0.8278299999999997  0.8608199999999998  1.0000
  H   H13       1.0  0.8566799999999999  0.40464  0.4097  1.0000
  H   H14       1.0  0.38771  0.5813499999999999  0.9093  1.0000
  H   H15       1.0  0.11340000000000004  0.99698  0.86262  1.0000
  H   H16       1.0  0.06728999999999986  0.95327  0.7009899999999998  1.0000
  H   H17       1.0  0.11570999999999997  0.12360000000000002  0.6322  1.0000
  H   H18       1.0  0.4158399999999999  0.09255000000000002  0.62087  1.0000
  H   H19       1.0  0.49068999999999996  0.30597  0.70273  1.0000
  H   H20       1.0  0.5467299999999999  0.34082  0.86449  1.0000
  H   H21       1.0  0.11947999999999999  0.46181999999999995  0.12392  1.0000
  H   H22       1.0  0.9671599999999998  0.53725  0.20002999999999996  1.0000
  H   H23       1.0  0.053279999999999966  0.57678  0.36446  1.0000
  H   H24       1.0  0.4004  0.14411  0.38156  1.0000
  H   H25       1.0  0.33244999999999997  0.11739  0.21957  1.0000
  H   H26       1.0  0.11014999999999998  0.17217  0.13918  1.0000
  H   H27       1.0  0.14331  0.59536  0.5903  1.0000
  H   H28       1.0  0.61228  0.41864999999999997  0.09069999999999998  1.0000
  C   C1        1.0  0.8726799999999995  0.93532  0.17401  1.0000
  C   C2        1.0  0.8980099999999999  0.95632  0.26116  1.0000
  C   C3        1.0  0.8701999999999998  0.86258  0.29988  1.0000
  C   C4        1.0  0.8205599999999997  0.7479799999999998  0.2503  1.0000
  C   C5        1.0  0.7816899999999999  0.65023  0.29109  1.0000
  C   C6        1.0  0.7988299999999999  0.72732  0.16226999999999994  1.0000
  C   C7        1.0  0.74531  0.60862  0.09889  1.0000
  C   C8        1.0  0.5285199999999999  0.9593799999999998  0.17669  1.0000
  C   C9        1.0  0.53173  0.05391  0.12130999999999997  1.0000
  C   C10       1.0  0.60625  0.11248  0.31236  1.0000
  C   C11       1.0  0.5631  0.9837799999999998  0.2659  1.0000
  C   C12       1.0  0.55518  0.88849  0.30978  1.0000
  C   C13       1.0  0.51361  0.77006  0.26437  1.0000
  C   C14       1.0  0.48147999999999996  0.7480999999999999  0.17648  1.0000
  C   C15       1.0  0.5370699999999999  0.51301  0.61544  1.0000
  C   C16       1.0  0.6750299999999999  0.50069  0.67134  1.0000
  C   C17       1.0  0.6274800000000001  0.58165  0.80429  1.0000
  C   C18       1.0  0.71891  0.5293799999999999  0.76042  1.0000
  C   C19       1.0  0.84749  0.5141899999999999  0.80673  1.0000
  C   C20       1.0  0.93183  0.4723099999999999  0.7635799999999998  1.0000
  C   C21       1.0  0.88769  0.44915  0.6753399999999998  1.0000
  C   C22       1.0  0.6938799999999999  0.8362699999999998  0.65893  1.0000
  C   C23       1.0  0.73382  0.85083  0.74697  1.0000
  C   C24       1.0  0.8572399999999999  0.8206099999999997  0.79185  1.0000
  C   C25       1.0  0.9403  0.77876  0.74725  1.0000
  C   C26       1.0  0.07441999999999993  0.7491  0.79538  1.0000
  C   C27       1.0  0.89768  0.76488  0.65791  1.0000
  C   C28       1.0  0.9775  0.72845  0.6002799999999998  1.0000
  C   C29       1.0  0.12731  0.06468000000000003  0.82599  1.0000
  C   C30       1.0  0.10197999999999992  0.04366999999999993  0.7388399999999998  1.0000
  C   C31       1.0  0.12978999999999988  0.13740999999999992  0.7001099999999998  1.0000
  C   C32       1.0  0.17944  0.25201999999999997  0.7497  1.0000
  C   C33       1.0  0.21829999999999986  0.34976999999999997  0.7088999999999998  1.0000
  C   C34       1.0  0.2011599999999999  0.27267999999999987  0.8377299999999998  1.0000
  C   C35       1.0  0.25467999999999985  0.3913799999999999  0.9010999999999998  1.0000
  C   C36       1.0  0.47147999999999995  0.040619999999999976  0.82331  1.0000
  C   C37       1.0  0.46827  0.94609  0.87868  1.0000
  C   C38       1.0  0.3937399999999998  0.8875199999999999  0.6876399999999998  1.0000
  C   C39       1.0  0.4369  0.016220000000000026  0.7341  1.0000
  C   C40       1.0  0.4448199999999998  0.11150999999999991  0.6902099999999998  1.0000
  C   C41       1.0  0.48637999999999976  0.22993999999999992  0.7356299999999998  1.0000
  C   C42       1.0  0.51852  0.2519  0.82352  1.0000
  C   C43       1.0  0.46292999999999995  0.48699  0.38455  1.0000
  C   C44       1.0  0.32496  0.49931  0.32866  1.0000
  C   C45       1.0  0.37251  0.4183399999999999  0.19571  1.0000
  C   C46       1.0  0.2810799999999999  0.47062  0.23956999999999995  1.0000
  C   C47       1.0  0.15250999999999995  0.48580999999999996  0.19326999999999994  1.0000
  C   C48       1.0  0.06816999999999995  0.52769  0.23640999999999995  1.0000
  C   C49       1.0  0.11229999999999993  0.5508399999999999  0.3246599999999999  1.0000
  C   C50       1.0  0.30612  0.16373  0.34107  1.0000
  C   C51       1.0  0.26617  0.14917  0.25303  1.0000
  C   C52       1.0  0.14274999999999993  0.17938999999999994  0.20814999999999995  1.0000
  C   C53       1.0  0.05969000000000002  0.22124  0.25274  1.0000
  C   C54       1.0  0.92558  0.2509  0.20462  1.0000
  C   C55       1.0  0.10231999999999998  0.23512  0.34209  1.0000
  C   C56       1.0  0.022499999999999912  0.2715499999999999  0.3997199999999999  1.0000
  N   N1        1.0  0.82053  0.82412  0.12579  1.0000
  N   N2        1.0  0.48831999999999975  0.84238  0.13472  1.0000
  N   N3        1.0  0.76137  0.46337  0.63152  1.0000
  N   N4        1.0  0.7731499999999999  0.7900999999999999  0.61556  1.0000
  N   N5        1.0  0.17946999999999985  0.17587999999999995  0.8741999999999998  1.0000
  N   N6        1.0  0.5116699999999997  0.15761999999999995  0.8652799999999998  1.0000
  N   N7        1.0  0.23863  0.53663  0.36847  1.0000
  N   N8        1.0  0.22683999999999999  0.2099  0.38444  1.0000
  O   O1        1.0  0.7873499999999998  0.8116299999999999  0.04157  1.0000
  O   O2        1.0  0.62382  0.6072699999999999  0.05444  1.0000
  O   O3        1.0  0.81866  0.52732  0.09163  1.0000
  O   O4        1.0  0.73649  0.54877  0.24256  1.0000
  O   O5        1.0  0.79481  0.6792  0.36978  1.0000
  O   O6        1.0  0.46054  0.8189899999999999  0.04977  1.0000
  O   O7        1.0  0.6374499999999999  0.06606  0.10651  1.0000
  O   O8        1.0  0.43009  0.10816  0.09540999999999997  1.0000
  O   O9        1.0  0.61756  0.19313  0.26986  1.0000
  O   O10       1.0  0.62422  0.13248  0.39309  1.0000
  O   O11       1.0  0.72183  0.44866  0.54598  1.0000
  O   O12       1.0  0.46021  0.41815  0.59124  1.0000
  O   O13       1.0  0.51515  0.61971  0.59894  1.0000
  O   O14       1.0  0.50809  0.56664  0.76006  1.0000
  O   O15       1.0  0.67944  0.63591  0.88085  1.0000
  O   O16       1.0  0.72777  0.76982  0.53099  1.0000
  O   O17       1.0  0.11397999999999997  0.78798  0.87696  1.0000
  O   O18       1.0  0.13881  0.69107  0.7545  1.0000
  O   O19       1.0  0.06083999999999991  0.80518  0.5995699999999998  1.0000
  O   O20       1.0  0.9468099999999999  0.6196599999999998  0.5553299999999998  1.0000
  O   O21       1.0  0.7638999999999999  0.41897999999999996  0.39244  1.0000
  O   O22       1.0  0.40066999999999997  0.66071  0.89348  1.0000
  O   O23       1.0  0.2126500000000001  0.18836999999999998  0.95843  1.0000
  O   O24       1.0  0.37616999999999995  0.39273  0.94556  1.0000
  O   O25       1.0  0.18132999999999994  0.47268  0.9083699999999998  1.0000
  O   O26       1.0  0.26349999999999996  0.45123  0.75744  1.0000
  O   O27       1.0  0.2051799999999999  0.3207899999999999  0.6302199999999998  1.0000
  O   O28       1.0  0.53945  0.18101  0.95023  1.0000
  O   O29       1.0  0.36255  0.9339399999999999  0.89348  1.0000
  O   O30       1.0  0.5699  0.89184  0.90459  1.0000
  O   O31       1.0  0.38243  0.8068699999999999  0.73013  1.0000
  O   O32       1.0  0.37576999999999994  0.8675199999999998  0.6068999999999998  1.0000
  O   O33       1.0  0.27816  0.55134  0.45402  1.0000
  O   O34       1.0  0.5397799999999999  0.58185  0.4087599999999999  1.0000
  O   O35       1.0  0.48484999999999995  0.38028  0.40106  1.0000
  O   O36       1.0  0.4919  0.43336  0.23994  1.0000
  O   O37       1.0  0.32055  0.36407999999999996  0.11915  1.0000
  O   O38       1.0  0.2722199999999999  0.23018  0.469  1.0000
  O   O39       1.0  0.8860199999999999  0.21202  0.12304  1.0000
  O   O40       1.0  0.8611799999999997  0.30892999999999987  0.2455  1.0000
  O   O41       1.0  0.9391499999999999  0.19480999999999998  0.4004299999999999  1.0000
  O   O42       1.0  0.05317999999999997  0.38034  0.4446699999999999  1.0000
  O   O43       1.0  0.23608999999999997  0.58102  0.60755  1.0000
  O   O44       1.0  0.5993199999999999  0.3392899999999999  0.10651999999999998  1.0000
