data_image0
_chemical_formula_structural       Fe8P12H12C8O64
_chemical_formula_sum              "Fe8 P12 H12 C8 O64"
_cell_length_a       11.10445
_cell_length_b       12.293259999999998
_cell_length_c       12.4689
_cell_angle_alpha    89.78411
_cell_angle_beta     89.99357
_cell_angle_gamma    96.16028

_symmetry_space_group_name_H-M    'P 1'
_symmetry_Int_Tables_number       1

loop_
  _symmetry_equiv_pos_as_xyz
  'x,y,z'

loop_
  _atom_site_type_symbol
  _atom_site_label
  _atom_site_symmetry_multiplicity
  _atom_site_fract_x
  _atom_site_fract_y
  _atom_site_fract_z
  _atom_site_occupancy
  Fe  Fe1       1.0  0.97182  0.3350100000000001  0.12213  1.0000
  Fe  Fe2       1.0  0.49846  0.14612000000000003  0.1248  1.0000
  Fe  Fe3       1.0  0.53023  0.16667  0.62143  1.0000
  Fe  Fe4       1.0  0.0040799999999999986  0.35482  0.62562  1.0000
  Fe  Fe5       1.0  0.028160000000000025  0.6649800000000002  0.8778500000000001  1.0000
  Fe  Fe6       1.0  0.50154  0.8538600000000001  0.8752000000000001  1.0000
  Fe  Fe7       1.0  0.46976  0.8333200000000002  0.37858  1.0000
  Fe  Fe8       1.0  0.9958999999999998  0.64513  0.37436  1.0000
  P   P1        1.0  0.4333299999999999  0.88025  0.12372  1.0000
  P   P2        1.0  0.5726599999999998  0.10547  0.37123000000000006  1.0000
  P   P3        1.0  0.26114  0.29768  0.1675  1.0000
  P   P4        1.0  0.06506999999999999  0.6206000000000002  0.62237  1.0000
  P   P5        1.0  0.92648  0.3934  0.8718100000000001  1.0000
  P   P6        1.0  0.24188  0.20477  0.66998  1.0000
  P   P7        1.0  0.5667  0.11973000000000002  0.8762900000000001  1.0000
  P   P8        1.0  0.4273399999999999  0.8945300000000003  0.62877  1.0000
  P   P9        1.0  0.73886  0.7023300000000001  0.8325  1.0000
  P   P10       1.0  0.9349099999999998  0.37935  0.37761  1.0000
  P   P11       1.0  0.07352  0.60659  0.12818  1.0000
  P   P12       1.0  0.7581399999999999  0.7952300000000002  0.33002  1.0000
  H   H1        1.0  0.28871  0.74333  0.12277  1.0000
  H   H2        1.0  0.7495499999999998  0.03774000000000001  0.35525  1.0000
  H   H3        1.0  0.16417999999999996  0.3053100000000001  0.316  1.0000
  H   H4        1.0  0.20835000000000004  0.7597700000000002  0.62148  1.0000
  H   H5        1.0  0.74872  0.4596200000000001  0.85501  1.0000
  H   H6        1.0  0.33982  0.1978  0.81774  1.0000
  H   H7        1.0  0.7113199999999998  0.25663  0.87722  1.0000
  H   H8        1.0  0.25042  0.9622200000000001  0.64475  1.0000
  H   H9        1.0  0.83581  0.69468  0.68399  1.0000
  H   H10       1.0  0.7916799999999999  0.24014  0.37850000000000006  1.0000
  H   H11       1.0  0.25128  0.54038  0.14499000000000004  1.0000
  H   H12       1.0  0.6601899999999999  0.8022100000000001  0.18227  1.0000
  C   C1        1.0  0.7113599999999999  0.29388  0.12327  1.0000
  C   C2        1.0  0.7582799999999998  0.17906  0.12707  1.0000
  C   C3        1.0  0.79067  0.20806  0.62438  1.0000
  C   C4        1.0  0.7441699999999998  0.32302000000000003  0.62406  1.0000
  C   C5        1.0  0.28863999999999995  0.7061000000000002  0.8767200000000002  1.0000
  C   C6        1.0  0.24171999999999993  0.82092  0.87293  1.0000
  C   C7        1.0  0.20931000000000005  0.7919400000000002  0.37561  1.0000
  C   C8        1.0  0.25582  0.67698  0.37594  1.0000
  O   O1        1.0  0.5268499999999999  0.98487  0.38122000000000006  1.0000
  O   O2        1.0  0.13921000000000003  0.27481000000000005  0.10563  1.0000
  O   O3        1.0  0.54567  0.17623  0.46787000000000006  1.0000
  O   O4        1.0  0.49679999999999974  0.82958  0.21969  1.0000
  O   O5        1.0  0.78886  0.37603  0.1322  1.0000
  O   O6        1.0  0.8717  0.17918  0.13699  1.0000
  O   O7        1.0  0.35203999999999996  0.222  0.13187  1.0000
  O   O8        1.0  0.41864  0.0018400000000000003  0.13815  1.0000
  O   O9        1.0  0.52112  0.16424000000000002  0.27452  1.0000
  O   O10       1.0  0.51412  0.8570200000000002  0.0262  1.0000
  O   O11       1.0  0.67852  0.09791000000000002  0.12167000000000001  1.0000
  O   O12       1.0  0.59854  0.29546  0.111  1.0000
  O   O13       1.0  0.2993799999999999  0.82413  0.11079  1.0000
  O   O14       1.0  0.71737  0.1118  0.35981  1.0000
  O   O15       1.0  0.24171999999999993  0.28032  0.29237  1.0000
  O   O16       1.0  0.29721  0.4191  0.13725  1.0000
  O   O17       1.0  0.9703599999999999  0.5140900000000002  0.8840700000000001  1.0000
  O   O18       1.0  0.36364  0.22798000000000004  0.60777  1.0000
  O   O19       1.0  0.95179  0.3218  0.9687200000000001  1.0000
  O   O20       1.0  0.0002099999999999919  0.66744  0.71931  1.0000
  O   O21       1.0  0.7126599999999998  0.12628  0.63428  1.0000
  O   O22       1.0  0.63056  0.32345  0.62983  1.0000
  O   O23       1.0  0.15088  0.28051  0.63428  1.0000
  O   O24       1.0  0.08345  0.49938  0.63522  1.0000
  O   O25       1.0  0.98164  0.33785  0.7754400000000001  1.0000
  O   O26       1.0  0.9834299999999998  0.64485  0.52551  1.0000
  O   O27       1.0  0.82467  0.40364  0.61926  1.0000
  O   O28       1.0  0.90365  0.20615  0.61392  1.0000
  O   O29       1.0  0.19807999999999998  0.6792000000000002  0.60889  1.0000
  O   O30       1.0  0.7819  0.38585  0.8571700000000001  1.0000
  O   O31       1.0  0.26161  0.22206000000000006  0.79465  1.0000
  O   O32       1.0  0.20579999999999996  0.08357000000000002  0.64002  1.0000
  O   O33       1.0  0.47314  0.015120000000000003  0.61878  1.0000
  O   O34       1.0  0.86078  0.7252  0.89437  1.0000
  O   O35       1.0  0.45432999999999996  0.82377  0.53213  1.0000
  O   O36       1.0  0.5032099999999999  0.17042000000000004  0.78034  1.0000
  O   O37       1.0  0.21115  0.62395  0.8678  1.0000
  O   O38       1.0  0.12831  0.8208200000000001  0.86302  1.0000
  O   O39       1.0  0.6479599999999999  0.7780100000000001  0.86813  1.0000
  O   O40       1.0  0.5813599999999999  0.99814  0.86186  1.0000
  O   O41       1.0  0.47887999999999986  0.83576  0.72547  1.0000
  O   O42       1.0  0.48589  0.14296  0.9738100000000001  1.0000
  O   O43       1.0  0.32149  0.9020400000000001  0.87833  1.0000
  O   O44       1.0  0.40146  0.70452  0.8890000000000001  1.0000
  O   O45       1.0  0.70066  0.17584000000000005  0.88921  1.0000
  O   O46       1.0  0.2826199999999999  0.8881700000000002  0.64018  1.0000
  O   O47       1.0  0.7582799999999998  0.71969  0.70763  1.0000
  O   O48       1.0  0.70278  0.5809  0.86275  1.0000
  O   O49       1.0  0.029629999999999997  0.48590000000000005  0.11593  1.0000
  O   O50       1.0  0.6363799999999998  0.77203  0.39224  1.0000
  O   O51       1.0  0.048209999999999996  0.67819  0.03127  1.0000
  O   O52       1.0  0.9997999999999999  0.33255  0.28067  1.0000
  O   O53       1.0  0.28731000000000007  0.8737300000000002  0.36573  1.0000
  O   O54       1.0  0.36943  0.6765600000000002  0.37018  1.0000
  O   O55       1.0  0.84912  0.7194800000000001  0.36572  1.0000
  O   O56       1.0  0.91652  0.5005600000000001  0.36478  1.0000
  O   O57       1.0  0.018360000000000008  0.66215  0.22453000000000004  1.0000
  O   O58       1.0  0.01657  0.35513  0.47449  1.0000
  O   O59       1.0  0.17533  0.59635  0.3807400000000001  1.0000
  O   O60       1.0  0.09632999999999997  0.7938400000000001  0.38606  1.0000
  O   O61       1.0  0.8019199999999999  0.32071  0.3911000000000001  1.0000
  O   O62       1.0  0.2181  0.61415  0.14282  1.0000
  O   O63       1.0  0.73839  0.77795  0.20536000000000004  1.0000
  O   O64       1.0  0.7942099999999997  0.91643  0.35999  1.0000
