data_image0
_chemical_formula_structural       Zn2H60C72N12
_chemical_formula_sum              "Zn2 H60 C72 N12"
_cell_length_a       9.651
_cell_length_b       9.662120000000002
_cell_length_c       18.375259999999997
_cell_angle_alpha    97.66076
_cell_angle_beta     97.52905
_cell_angle_gamma    97.20415

_space_group_name_H-M_alt    "P 1"
_space_group_IT_number       1

loop_
  _space_group_symop_operation_xyz
  'x, y, z'

loop_
  _atom_site_type_symbol
  _atom_site_label
  _atom_site_symmetry_multiplicity
  _atom_site_fract_x
  _atom_site_fract_y
  _atom_site_fract_z
  _atom_site_occupancy
  Zn  Zn1       1.0  0.9413700000000003  0.05928  0.2497  1.0000
  Zn  Zn2       1.0  0.059179999999999996  0.94089  0.75053  1.0000
  H   H1        1.0  0.89556  0.3589  0.23078  1.0000
  H   H2        1.0  0.93525  0.51324  0.13817  1.0000
  H   H3        1.0  0.08079  0.16599  0.0078000000000000005  1.0000
  H   H4        1.0  0.047619999999999996  0.0292  0.10897  1.0000
  H   H5        1.0  0.05627  0.37928  0.95332  1.0000
  H   H6        1.0  0.64307  0.10804  0.26997  1.0000
  H   H7        1.0  0.48813  0.06766  0.36244  1.0000
  H   H8        1.0  0.8338  0.9174799999999999  0.49127000000000004  1.0000
  H   H9        1.0  0.9715500000000001  0.95196  0.39044  1.0000
  H   H10       1.0  0.62031  0.94253  0.54614  1.0000
  H   H11       1.0  0.10584000000000003  0.64133  0.76965  1.0000
  H   H12       1.0  0.06554000000000007  0.487  0.86223  1.0000
  H   H13       1.0  0.9176200000000002  0.8338000000000001  0.9917800000000001  1.0000
  H   H14       1.0  0.95181  0.97058  0.89073  1.0000
  H   H15       1.0  0.9438000000000001  0.62111  0.04685  1.0000
  H   H16       1.0  0.3570400000000001  0.89148  0.72994  1.0000
  H   H17       1.0  0.51192  0.9324199999999999  0.6375  1.0000
  H   H18       1.0  0.16613000000000003  0.08278  0.50895  1.0000
  H   H19       1.0  0.028590000000000004  0.048  0.60977  1.0000
  H   H20       1.0  0.37954  0.05765000000000003  0.45391000000000004  1.0000
  H   H21       1.0  0.025299999999999993  0.19292999999999996  0.40297  1.0000
  H   H22       1.0  0.22137  0.35653  0.48099  1.0000
  H   H23       1.0  0.46969  0.28676  0.30398  1.0000
  H   H24       1.0  0.26146  0.12058  0.23230000000000003  1.0000
  H   H25       1.0  0.58511  0.40894  0.42098  1.0000
  H   H26       1.0  0.5825  0.64929  0.455  1.0000
  H   H27       1.0  0.2203  0.6082500000000001  0.51496  1.0000
  H   H28       1.0  0.03002000000000002  0.72036  0.45305000000000006  1.0000
  H   H29       1.0  0.2788900000000001  0.85035  0.30109  1.0000
  H   H30       1.0  0.47622  0.73457  0.35242  1.0000
  H   H31       1.0  0.9746100000000001  0.80655  0.597  1.0000
  H   H32       1.0  0.7783300000000001  0.64332  0.519  1.0000
  H   H33       1.0  0.5303199999999999  0.71401  0.69602  1.0000
  H   H34       1.0  0.7388100000000003  0.8799700000000001  0.76755  1.0000
  H   H35       1.0  0.4147700000000001  0.59131  0.57914  1.0000
  H   H36       1.0  0.41747  0.35093  0.5451  1.0000
  H   H37       1.0  0.77929  0.39195  0.48485  1.0000
  H   H38       1.0  0.9698700000000001  0.28004  0.54661  1.0000
  H   H39       1.0  0.7216399999999998  0.14991000000000002  0.69885  1.0000
  H   H40       1.0  0.52404  0.26558  0.64766  1.0000
  H   H41       1.0  0.8064299999999999  0.9759899999999999  0.09685  1.0000
  H   H42       1.0  0.6429800000000001  0.77971  0.01884  1.0000
  H   H43       1.0  0.71449  0.53154  0.19514  1.0000
  H   H44       1.0  0.8808300000000001  0.73961  0.26684  1.0000
  H   H45       1.0  0.5916600000000001  0.41643  0.07918  1.0000
  H   H46       1.0  0.35103000000000006  0.41814  0.04579  1.0000
  H   H47       1.0  0.3894000000000001  0.77785  0.9836100000000001  1.0000
  H   H48       1.0  0.27632  0.96847  0.04476  1.0000
  H   H49       1.0  0.15101  0.7243  0.1994  1.0000
  H   H50       1.0  0.26763  0.52679  0.14869  1.0000
  H   H51       1.0  0.19349  0.02385  0.90322  1.0000
  H   H52       1.0  0.35677  0.22032  0.98116  1.0000
  H   H53       1.0  0.2843300000000001  0.46839  0.8050200000000001  1.0000
  H   H54       1.0  0.11798  0.26035  0.73334  1.0000
  H   H55       1.0  0.40792  0.58364  0.9207599999999999  1.0000
  H   H56       1.0  0.64845  0.58197  0.95417  1.0000
  H   H57       1.0  0.6097700000000001  0.2219  0.01616  1.0000
  H   H58       1.0  0.72301  0.03143000000000001  0.95495  1.0000
  H   H59       1.0  0.84882  0.27615  0.80057  1.0000
  H   H60       1.0  0.73219  0.4736099999999999  0.85139  1.0000
  C   C1        1.0  0.93305  0.3195  0.17966  1.0000
  C   C2        1.0  0.95552  0.40508  0.12759  1.0000
  C   C3        1.0  0.004470000000000009  0.35423  0.05920000000000001  1.0000
  C   C4        1.0  0.03902  0.21302  0.05595  1.0000
  C   C5        1.0  0.017359999999999993  0.13442  0.11108999999999998  1.0000
  C   C6        1.0  0.017860000000000008  0.4318699999999999  0.0013  1.0000
  C   C7        1.0  0.68203  0.06927  0.3207  1.0000
  C   C8        1.0  0.59615  0.046790000000000005  0.37281  1.0000
  C   C9        1.0  0.64643  0.99635  0.44074  1.0000
  C   C10       1.0  0.7874  0.96076  0.44357  1.0000
  C   C11       1.0  0.86636  0.9826900000000001  0.3885100000000001  1.0000
  C   C12       1.0  0.56824  0.98204  0.49851999999999996  1.0000
  C   C13       1.0  0.06764999999999999  0.68062  0.82059  1.0000
  C   C14       1.0  0.04502999999999999  0.59512  0.87267  1.0000
  C   C15       1.0  0.99537  0.64598  0.9408600000000001  1.0000
  C   C16       1.0  0.9602400000000002  0.78695  0.94389  1.0000
  C   C17       1.0  0.9822400000000002  0.86548  0.88874  1.0000
  C   C18       1.0  0.9822500000000001  0.56859  0.99886  1.0000
  C   C19       1.0  0.31807  0.9303800000000001  0.67921  1.0000
  C   C20       1.0  0.40379  0.9530599999999999  0.62714  1.0000
  C   C21       1.0  0.35354  0.0036700000000000153  0.55926  1.0000
  C   C22       1.0  0.21257  0.03923999999999999  0.55653  1.0000
  C   C23       1.0  0.13368  0.017100000000000004  0.61159  1.0000
  C   C24       1.0  0.43167  0.018100000000000015  0.5015  1.0000
  C   C25       1.0  0.12564  0.21574  0.38304  1.0000
  C   C26       1.0  0.23619  0.30914  0.42602  1.0000
  C   C27       1.0  0.36544  0.33536  0.39975  1.0000
  C   C28       1.0  0.37244  0.26944  0.32766  1.0000
  C   C29       1.0  0.25765  0.17581  0.28759  1.0000
  C   C30       1.0  0.4913  0.4256  0.44686  1.0000
  C   C31       1.0  0.48761  0.59024  0.4691  1.0000
  C   C32       1.0  0.36474999999999996  0.65564  0.4371  1.0000
  C   C33       1.0  0.23716  0.65533  0.46566  1.0000
  C   C34       1.0  0.13003  0.7203  0.43147  1.0000
  C   C35       1.0  0.26668000000000003  0.79062  0.34666  1.0000
  C   C36       1.0  0.37774  0.72497  0.37547  1.0000
  C   C37       1.0  0.87427  0.784  0.61693  1.0000
  C   C38       1.0  0.7635500000000002  0.69075  0.57396  1.0000
  C   C39       1.0  0.63429  0.66478  0.60023  1.0000
  C   C40       1.0  0.6275500000000003  0.73096  0.6723  1.0000
  C   C41       1.0  0.74252  0.82459  0.71231  1.0000
  C   C42       1.0  0.50841  0.57458  0.55311  1.0000
  C   C43       1.0  0.5122100000000002  0.4099499999999999  0.53085  1.0000
  C   C44       1.0  0.63527  0.34468  0.56283  1.0000
  C   C45       1.0  0.7627700000000001  0.34486  0.53418  1.0000
  C   C46       1.0  0.8700100000000001  0.2799  0.56836  1.0000
  C   C47       1.0  0.7334700000000001  0.20962  0.65325  1.0000
  C   C48       1.0  0.62236  0.27532  0.62446  1.0000
  C   C49       1.0  0.7840700000000002  0.87553  0.11659999999999998  1.0000
  C   C50       1.0  0.69082  0.76483  0.07361  1.0000
  C   C51       1.0  0.6649200000000002  0.63567  0.09979  1.0000
  C   C52       1.0  0.73165  0.62878  0.17163  1.0000
  C   C53       1.0  0.82531  0.74355  0.2117  1.0000
  C   C54       1.0  0.57459  0.50957  0.05297  1.0000
  C   C55       1.0  0.4097  0.51255  0.03104  1.0000
  C   C56       1.0  0.34430000000000005  0.63582  0.06274  1.0000
  C   C57       1.0  0.34305  0.76219  0.03328  1.0000
  C   C58       1.0  0.27758  0.86947  0.0671  1.0000
  C   C59       1.0  0.20982  0.7353  0.15332  1.0000
  C   C60       1.0  0.27596  0.62426  0.12486  1.0000
  C   C61       1.0  0.21565  0.12436  0.8835  1.0000
  C   C62       1.0  0.30884  0.23513999999999996  0.92642  1.0000
  C   C63       1.0  0.33446  0.36432  0.90021  1.0000
  C   C64       1.0  0.26749  0.37109  0.82844  1.0000
  C   C65       1.0  0.17379  0.25632  0.7884  1.0000
  C   C66       1.0  0.4249200000000001  0.49045999999999995  0.9469499999999998  1.0000
  C   C67       1.0  0.58981  0.48748  0.96888  1.0000
  C   C68       1.0  0.6553100000000001  0.3642500000000001  0.9371900000000001  1.0000
  C   C69       1.0  0.65636  0.23775999999999997  0.9665599999999999  1.0000
  C   C70       1.0  0.7218700000000001  0.13054000000000004  0.9326900000000001  1.0000
  C   C71       1.0  0.78995  0.265  0.84661  1.0000
  C   C72       1.0  0.7238  0.37602  0.87513  1.0000
  N   N1        1.0  0.95733  0.18098  0.17274  1.0000
  N   N2        1.0  0.82033  0.04392000000000001  0.32727  1.0000
  N   N3        1.0  0.043070000000000025  0.81904  0.82735  1.0000
  N   N4        1.0  0.17978  0.95578  0.67276  1.0000
  N   N5        1.0  0.13584  0.14646  0.31532  1.0000
  N   N6        1.0  0.1422  0.78761  0.37267  1.0000
  N   N7        1.0  0.86441  0.8535899999999998  0.6846  1.0000
  N   N8        1.0  0.8579500000000001  0.21273  0.62721  1.0000
  N   N9        1.0  0.8537800000000001  0.8655099999999999  0.18416  1.0000
  N   N10       1.0  0.21140000000000003  0.85866  0.12646  1.0000
  N   N11       1.0  0.14568  0.13433  0.816  1.0000
  N   N12       1.0  0.7882100000000001  0.14154999999999995  0.8734  1.0000
