data_image0
_chemical_formula_structural       La2H54C60N6O12
_chemical_formula_sum              "La2 H54 C60 N6 O12"
_cell_length_a       9.55674
_cell_length_b       12.44549
_cell_length_c       18.9539
_cell_angle_alpha    106.68166
_cell_angle_beta     98.35836
_cell_angle_gamma    100.45232

_space_group_name_H-M_alt    "P 1"
_space_group_IT_number       1

loop_
  _space_group_symop_operation_xyz
  'x, y, z'

loop_
  _atom_site_type_symbol
  _atom_site_label
  _atom_site_symmetry_multiplicity
  _atom_site_fract_x
  _atom_site_fract_y
  _atom_site_fract_z
  _atom_site_occupancy
  La  La1       1.0  0.78617  0.9870599999999999  0.99292  1.0000
  La  La2       1.0  0.21381999999999998  0.012939999999999998  0.007070000000000001  1.0000
  H   H1        1.0  0.34302  0.16119000000000003  0.33217  1.0000
  H   H2        1.0  0.332  0.08391  0.19446  1.0000
  H   H3        1.0  0.78677  0.07718  0.24504000000000004  1.0000
  H   H4        1.0  0.78121  0.14019  0.66151  1.0000
  H   H5        1.0  0.78497  0.15306  0.38095  1.0000
  H   H6        1.0  0.15399  0.33156  0.68104  1.0000
  H   H7        1.0  0.10651999999999996  0.4652499999999999  0.70098  1.0000
  H   H8        1.0  0.20733  0.42601  0.6303  1.0000
  H   H9        1.0  0.7697999999999998  0.12334000000000006  0.78911  1.0000
  H   H10       1.0  0.11976999999999996  0.16976999999999995  0.59325  1.0000
  H   H11       1.0  0.9669499999999999  0.05280999999999999  0.55615  1.0000
  H   H12       1.0  0.22845000000000007  0.12875000000000006  0.8240100000000002  1.0000
  H   H13       1.0  0.13987000000000008  0.8020400000000001  0.8323200000000002  1.0000
  H   H14       1.0  0.09362000000000001  0.55325  0.60179  1.0000
  H   H15       1.0  0.9428800000000002  0.5811199999999999  0.5526000000000001  1.0000
  H   H16       1.0  0.72135  0.545  0.63337  1.0000
  H   H17       1.0  0.6141200000000001  0.017610000000000018  0.4546700000000001  1.0000
  H   H18       1.0  0.71267  0.0074499999999999775  0.53842  1.0000
  H   H19       1.0  0.79223  0.9989199999999999  0.45892  1.0000
  H   H20       1.0  0.6744  0.6648499999999999  0.75475  1.0000
  H   H21       1.0  0.2247900000000001  0.13583000000000003  0.6929700000000002  1.0000
  H   H22       1.0  0.4972  0.12559  0.45608  1.0000
  H   H23       1.0  0.4942799999999999  0.26375999999999994  0.45150000000000007  1.0000
  H   H24       1.0  0.1737  0.67882  0.71019  1.0000
  H   H25       1.0  0.6535499999999999  0.3998299999999999  0.42121  1.0000
  H   H26       1.0  0.75582  0.52643  0.49389000000000005  1.0000
  H   H27       1.0  0.5915100000000001  0.44978000000000007  0.5055400000000001  1.0000
  H   H28       1.0  0.65697  0.83881  0.6678300000000003  1.0000
  H   H29       1.0  0.66799  0.9160900000000001  0.8055400000000003  1.0000
  H   H30       1.0  0.21321999999999988  0.92282  0.75495  1.0000
  H   H31       1.0  0.21878000000000003  0.8598  0.33848  1.0000
  H   H32       1.0  0.21501999999999993  0.8469399999999998  0.61905  1.0000
  H   H33       1.0  0.846  0.6684399999999998  0.31895  1.0000
  H   H34       1.0  0.89347  0.5347400000000001  0.2990200000000001  1.0000
  H   H35       1.0  0.79266  0.5739899999999999  0.36969  1.0000
  H   H36       1.0  0.23018999999999998  0.8766499999999999  0.21089000000000002  1.0000
  H   H37       1.0  0.88021  0.83023  0.40675  1.0000
  H   H38       1.0  0.03303999999999994  0.9471899999999998  0.44385  1.0000
  H   H39       1.0  0.7715399999999999  0.8712499999999997  0.17599  1.0000
  H   H40       1.0  0.86012  0.19795999999999997  0.16768  1.0000
  H   H41       1.0  0.90637  0.4467499999999999  0.3982100000000001  1.0000
  H   H42       1.0  0.05711000000000004  0.41888000000000003  0.4473900000000001  1.0000
  H   H43       1.0  0.27863999999999994  0.4549999999999999  0.36663  1.0000
  H   H44       1.0  0.38587  0.98238  0.54532  1.0000
  H   H45       1.0  0.28731999999999996  0.9925399999999998  0.46157  1.0000
  H   H46       1.0  0.20775999999999997  0.0010799999999999976  0.54108  1.0000
  H   H47       1.0  0.32559  0.33513999999999994  0.24525  1.0000
  H   H48       1.0  0.7752  0.8641699999999999  0.3070300000000001  1.0000
  H   H49       1.0  0.50279  0.8744099999999999  0.54392  1.0000
  H   H50       1.0  0.50571  0.73623  0.5485  1.0000
  H   H51       1.0  0.82628  0.32118  0.28981  1.0000
  H   H52       1.0  0.3464399999999999  0.60016  0.57879  1.0000
  H   H53       1.0  0.24417000000000003  0.4735600000000001  0.5061100000000002  1.0000
  H   H54       1.0  0.40848  0.55021  0.49445  1.0000
  C   C1        1.0  0.9191499999999999  0.21994  0.5705700000000002  1.0000
  C   C2        1.0  0.9778099999999998  0.3399  0.59682  1.0000
  C   C3        1.0  0.70666  0.24637  0.49539  1.0000
  C   C4        1.0  0.9049300000000002  0.41253  0.5680000000000002  1.0000
  C   C5        1.0  0.5597300000000001  0.07618  0.20694  1.0000
  C   C6        1.0  0.76989  0.36584  0.51655  1.0000
  C   C7        1.0  0.43641  0.1402  0.30967  1.0000
  C   C8        1.0  0.4332400000000001  0.09841  0.23414000000000001  1.0000
  C   C9        1.0  0.7821600000000001  0.17234000000000005  0.5203400000000002  1.0000
  C   C10       1.0  0.9999000000000001  0.12720000000000012  0.8178000000000002  1.0000
  C   C11       1.0  0.6877800000000001  0.09512999999999999  0.26239  1.0000
  C   C12       1.0  0.8747799999999999  0.13470000000000013  0.6989900000000002  1.0000
  C   C13       1.0  0.9994900000000001  0.1159500000000001  0.8926800000000003  1.0000
  C   C14       1.0  0.68887  0.13629  0.33767  1.0000
  C   C15       1.0  0.56133  0.04063000000000001  0.12661000000000006  1.0000
  C   C16       1.0  0.11847999999999997  0.3924699999999999  0.65494  1.0000
  C   C17       1.0  0.87142  0.12759999999999996  0.76946  1.0000
  C   C18       1.0  0.005339999999999985  0.14157999999999996  0.59544  1.0000
  C   C19       1.0  0.12903  0.13119  0.78896  1.0000
  C   C20       1.0  0.9036800000000001  0.7405599999999999  0.8050900000000002  1.0000
  C   C21       1.0  0.04582000000000007  0.74377  0.7906100000000003  1.0000
  C   C22       1.0  0.9754699999999997  0.5403599999999998  0.5946600000000002  1.0000
  C   C23       1.0  0.87848  0.81265  0.8748100000000002  1.0000
  C   C24       1.0  0.80836  0.60221  0.6793300000000002  1.0000
  C   C25       1.0  0.72154  0.04302000000000002  0.49195000000000005  1.0000
  C   C26       1.0  0.78471  0.6673399999999998  0.74602  1.0000
  C   C27       1.0  0.12925  0.13565000000000005  0.71769  1.0000
  C   C28       1.0  0.55915  0.19852  0.4428900000000001  1.0000
  C   C29       1.0  0.06694  0.67738  0.72357  1.0000
  C   C30       1.0  0.6895399999999998  0.4395099999999999  0.48263  1.0000
  C   C31       1.0  0.08084  0.7800599999999999  0.4294300000000001  1.0000
  C   C32       1.0  0.022179999999999988  0.6601  0.40318  1.0000
  C   C33       1.0  0.29333000000000004  0.75363  0.5046100000000001  1.0000
  C   C34       1.0  0.09506000000000002  0.5874599999999999  0.4319900000000001  1.0000
  C   C35       1.0  0.44026  0.9238099999999999  0.79305  1.0000
  C   C36       1.0  0.2301  0.63416  0.48344  1.0000
  C   C37       1.0  0.56358  0.8598  0.6903300000000001  1.0000
  C   C38       1.0  0.56675  0.9015899999999999  0.7658600000000002  1.0000
  C   C39       1.0  0.21782999999999994  0.8276499999999999  0.47966  1.0000
  C   C40       1.0  9.000000000000223e-05  0.87279  0.1822  1.0000
  C   C41       1.0  0.3122099999999999  0.9048599999999998  0.73761  1.0000
  C   C42       1.0  0.12520999999999996  0.8653000000000001  0.30101  1.0000
  C   C43       1.0  0.0004999999999999918  0.8840399999999998  0.10731000000000003  1.0000
  C   C44       1.0  0.31111999999999995  0.8637099999999998  0.66232  1.0000
  C   C45       1.0  0.4386600000000001  0.9593700000000001  0.8733800000000003  1.0000
  C   C46       1.0  0.8815099999999999  0.60752  0.34506  1.0000
  C   C47       1.0  0.12855999999999995  0.8723899999999998  0.23054  1.0000
  C   C48       1.0  0.9946499999999999  0.8584099999999998  0.40455  1.0000
  C   C49       1.0  0.8709599999999998  0.8687999999999999  0.21104  1.0000
  C   C50       1.0  0.09629999999999998  0.25943999999999995  0.1949  1.0000
  C   C51       1.0  0.9541599999999999  0.25621999999999995  0.20939000000000002  1.0000
  C   C52       1.0  0.024519999999999955  0.4596299999999999  0.4053300000000001  1.0000
  C   C53       1.0  0.12151000000000002  0.18733999999999995  0.12519  1.0000
  C   C54       1.0  0.19163  0.39778  0.32067000000000007  1.0000
  C   C55       1.0  0.27845  0.95698  0.50805  1.0000
  C   C56       1.0  0.21527999999999997  0.33266  0.25398  1.0000
  C   C57       1.0  0.8707399999999998  0.86435  0.2823  1.0000
  C   C58       1.0  0.44083999999999995  0.8014699999999998  0.55711  1.0000
  C   C59       1.0  0.93305  0.32262  0.27642  1.0000
  C   C60       1.0  0.31045  0.5604799999999999  0.5173700000000001  1.0000
  N   N1        1.0  0.0034299999999999795  0.14110999999999993  0.67254  1.0000
  N   N2        1.0  0.9493199999999999  0.6034  0.6676700000000001  1.0000
  N   N3        1.0  0.5657  0.16262000000000001  0.3627900000000001  1.0000
  N   N4        1.0  0.99656  0.8588799999999998  0.32746  1.0000
  N   N5        1.0  0.050669999999999986  0.3966  0.33233  1.0000
  N   N6        1.0  0.43429  0.8373699999999997  0.63721  1.0000
  O   O1        1.0  0.68506  0.03770999999999999  0.10732  1.0000
  O   O2        1.0  0.44085  0.014950000000000005  0.07854000000000001  1.0000
  O   O3        1.0  0.9878900000000003  0.88536  0.9253400000000002  1.0000
  O   O4        1.0  0.7478199999999999  0.8088199999999998  0.88536  1.0000
  O   O5        1.0  0.87547  0.09365000000000002  0.9110500000000001  1.0000
  O   O6        1.0  0.12322999999999999  0.12598999999999985  0.93401  1.0000
  O   O7        1.0  0.31493000000000004  0.96228  0.8926800000000003  1.0000
  O   O8        1.0  0.5591399999999999  0.9850399999999998  0.92146  1.0000
  O   O9        1.0  0.012099999999999998  0.11463  0.07465  1.0000
  O   O10       1.0  0.25217  0.19117999999999993  0.11464000000000002  1.0000
  O   O11       1.0  0.12451999999999992  0.9063399999999998  0.08895  1.0000
  O   O12       1.0  0.87676  0.87401  0.06598000000000002  1.0000
