data_image0
_chemical_formula_structural       Ni8H32C44N4O28
_chemical_formula_sum              "Ni8 H32 C44 N4 O28"
_cell_length_a       10.97042
_cell_length_b       13.445590000000001
_cell_length_c       14.83679
_cell_angle_alpha    99.37124
_cell_angle_beta     89.87322
_cell_angle_gamma    90.14387

_space_group_name_H-M_alt    "P 1"
_space_group_IT_number       1

loop_
  _space_group_symop_operation_xyz
  'x, y, z'

loop_
  _atom_site_type_symbol
  _atom_site_label
  _atom_site_symmetry_multiplicity
  _atom_site_fract_x
  _atom_site_fract_y
  _atom_site_fract_z
  _atom_site_occupancy
  Ni  Ni1       1.0  0.9996399999999999  0.11434999999999997  0.03942  1.0000
  Ni  Ni2       1.0  0.8589300000000001  0.91264  0.13407  1.0000
  Ni  Ni3       1.0  0.49905  0.3859899999999999  0.9610300000000003  1.0000
  Ni  Ni4       1.0  0.35981  0.58752  0.8658200000000003  1.0000
  Ni  Ni5       1.0  0.00035999999999999926  0.88565  0.9605700000000003  1.0000
  Ni  Ni6       1.0  0.14107  0.08736000000000003  0.8659200000000002  1.0000
  Ni  Ni7       1.0  0.50095  0.6140099999999998  0.03897000000000001  1.0000
  Ni  Ni8       1.0  0.64019  0.4124799999999999  0.13418  1.0000
  H   H1        1.0  0.91354  0.03303000000000006  0.8848300000000002  1.0000
  H   H2        1.0  0.63828  0.07683000000000004  0.9487900000000002  1.0000
  H   H3        1.0  0.60442  0.90629  0.06003  1.0000
  H   H4        1.0  0.50073  0.08887999999999999  0.13015  1.0000
  H   H5        1.0  0.89058  0.7914699999999998  0.2875300000000001  1.0000
  H   H6        1.0  0.953  0.8263299999999999  0.44995  1.0000
  H   H7        1.0  0.9932399999999999  0.14009  0.41954  1.0000
  H   H8        1.0  0.92  0.09195000000000002  0.26071000000000005  1.0000
  H   H9        1.0  0.41256999999999994  0.4677899999999999  0.11586000000000003  1.0000
  H   H10       1.0  0.1377  0.42452  0.05122  1.0000
  H   H11       1.0  0.10488999999999998  0.59453  0.9396600000000003  1.0000
  H   H12       1.0  0.0007799999999999998  0.4104899999999999  0.86991  1.0000
  H   H13       1.0  0.3907300000000001  0.70841  0.71247  1.0000
  H   H14       1.0  0.45315999999999995  0.67356  0.54981  1.0000
  H   H15       1.0  0.4932  0.35994999999999994  0.58048  1.0000
  H   H16       1.0  0.41988999999999993  0.40817  0.73954  1.0000
  H   H17       1.0  0.08646  0.9669699999999998  0.11517000000000001  1.0000
  H   H18       1.0  0.36172  0.92317  0.0512  1.0000
  H   H19       1.0  0.39558  0.09371000000000002  0.9399700000000002  1.0000
  H   H20       1.0  0.49927  0.91112  0.86985  1.0000
  H   H21       1.0  0.10942  0.20853  0.71247  1.0000
  H   H22       1.0  0.047  0.17367  0.55005  1.0000
  H   H23       1.0  0.006759999999999998  0.8599099999999997  0.58046  1.0000
  H   H24       1.0  0.08  0.9080499999999999  0.7392900000000002  1.0000
  H   H25       1.0  0.58743  0.53221  0.8841300000000002  1.0000
  H   H26       1.0  0.8623  0.5754799999999998  0.94878  1.0000
  H   H27       1.0  0.89511  0.40547  0.06034  1.0000
  H   H28       1.0  0.9992199999999999  0.58951  0.13009  1.0000
  H   H29       1.0  0.60927  0.29158999999999996  0.2875200000000001  1.0000
  H   H30       1.0  0.54684  0.3264399999999999  0.45019  1.0000
  H   H31       1.0  0.5068  0.64005  0.41952  1.0000
  H   H32       1.0  0.58011  0.5918299999999999  0.26046  1.0000
  C   C1        1.0  0.62231  0.04880999999999999  0.013410000000000004  1.0000
  C   C2        1.0  0.60781  0.9327799999999999  0.9940000000000001  1.0000
  C   C3        1.0  0.50807  0.10222  0.05934  1.0000
  C   C4        1.0  0.73645  0.07242999999999998  0.07215  1.0000
  C   C5        1.0  0.72282  0.8907299999999997  0.94261  1.0000
  C   C6        1.0  0.52746  0.21494999999999997  0.05910000000000001  1.0000
  C   C7        1.0  0.9114599999999999  0.8678099999999997  0.321  1.0000
  C   C8        1.0  0.9482800000000001  0.88864  0.41172  1.0000
  C   C9        1.0  0.97945  0.98763  0.45184  1.0000
  C   C10       1.0  0.96986  0.061729999999999986  0.39522  1.0000
  C   C11       1.0  0.93016  0.03601000000000001  0.30562000000000006  1.0000
  C   C12       1.0  0.12225  0.45202000000000003  0.9864200000000002  1.0000
  C   C13       1.0  0.10786  0.5679999999999998  0.005660000000000002  1.0000
  C   C14       1.0  0.008339999999999998  0.39759999999999995  0.9408100000000003  1.0000
  C   C15       1.0  0.23657  0.42777  0.9279  1.0000
  C   C16       1.0  0.22238  0.6109699999999998  0.05729  1.0000
  C   C17       1.0  0.0281  0.28494  0.94132  1.0000
  C   C18       1.0  0.41162  0.63215  0.6789500000000003  1.0000
  C   C19       1.0  0.44833  0.61131  0.58815  1.0000
  C   C20       1.0  0.47943  0.51236  0.54816  1.0000
  C   C21       1.0  0.46981  0.4382499999999999  0.6048100000000001  1.0000
  C   C22       1.0  0.43019  0.46399000000000007  0.6944900000000003  1.0000
  C   C23       1.0  0.37769  0.9511899999999998  0.98659  1.0000
  C   C24       1.0  0.39219  0.06722  0.006  1.0000
  C   C25       1.0  0.4919299999999999  0.89778  0.94066  1.0000
  C   C26       1.0  0.26355  0.9275699999999999  0.9278500000000002  1.0000
  C   C27       1.0  0.27718  0.10926999999999998  0.05739000000000001  1.0000
  C   C28       1.0  0.47254000000000007  0.7850499999999998  0.9409  1.0000
  C   C29       1.0  0.08854  0.13219  0.67899  1.0000
  C   C30       1.0  0.05172  0.11135999999999997  0.58827  1.0000
  C   C31       1.0  0.02055  0.012369999999999997  0.54816  1.0000
  C   C32       1.0  0.03014  0.9382699999999998  0.60477  1.0000
  C   C33       1.0  0.06984  0.9639899999999998  0.69438  1.0000
  C   C34       1.0  0.87775  0.5479799999999999  0.013580000000000002  1.0000
  C   C35       1.0  0.89214  0.43200000000000005  0.9943300000000003  1.0000
  C   C36       1.0  0.99166  0.6023999999999999  0.05919000000000001  1.0000
  C   C37       1.0  0.76343  0.57223  0.0721  1.0000
  C   C38       1.0  0.77762  0.38903  0.94271  1.0000
  C   C39       1.0  0.9718999999999999  0.71506  0.05868000000000002  1.0000
  C   C40       1.0  0.58838  0.3678499999999999  0.32105  1.0000
  C   C41       1.0  0.55167  0.3886899999999998  0.41185  1.0000
  C   C42       1.0  0.52057  0.48764  0.45183  1.0000
  C   C43       1.0  0.53019  0.56175  0.39519  1.0000
  C   C44       1.0  0.56981  0.53601  0.30551000000000006  1.0000
  N   N1        1.0  0.9014899999999999  0.94038  0.26822  1.0000
  N   N2        1.0  0.40173999999999993  0.5596199999999999  0.7318  1.0000
  N   N3        1.0  0.09851  0.05962  0.73177  1.0000
  N   N4        1.0  0.59826  0.44038  0.2682  1.0000
  O   O1        1.0  0.81757  0.12473  0.040520000000000014  1.0000
  O   O2        1.0  0.7454500000000001  0.03484999999999999  0.14603  1.0000
  O   O3        1.0  0.81893  0.8850399999999998  0.9954200000000002  1.0000
  O   O4        1.0  0.72767  0.87061  0.85851  1.0000
  O   O5        1.0  0.58143  0.26628  0.12764  1.0000
  O   O6        1.0  0.49129999999999996  0.24682999999999997  0.98763  1.0000
  O   O7        1.0  0.99117  0.02093000000000003  0.9129700000000002  1.0000
  O   O8        1.0  0.31635  0.37488  0.9595800000000002  1.0000
  O   O9        1.0  0.24716  0.46498  0.8538800000000002  1.0000
  O   O10       1.0  0.3199  0.61469  0.00492  1.0000
  O   O11       1.0  0.22514  0.63378  0.14124  1.0000
  O   O12       1.0  0.07959  0.2327  0.87208  1.0000
  O   O13       1.0  0.9939699999999999  0.25383  0.013780000000000004  1.0000
  O   O14       1.0  0.49044  0.47938999999999987  0.08750000000000002  1.0000
  O   O15       1.0  0.18243  0.8752699999999998  0.95947  1.0000
  O   O16       1.0  0.25455  0.96515  0.8539600000000003  1.0000
  O   O17       1.0  0.18107  0.11495999999999998  0.00458  1.0000
  O   O18       1.0  0.27233  0.12939  0.14149  1.0000
  O   O19       1.0  0.41857  0.7337199999999998  0.87236  1.0000
  O   O20       1.0  0.5087  0.75317  0.01237  1.0000
  O   O21       1.0  0.00883  0.9790699999999998  0.08702000000000003  1.0000
  O   O22       1.0  0.68365  0.6251199999999998  0.04042  1.0000
  O   O23       1.0  0.75284  0.53502  0.14612  1.0000
  O   O24       1.0  0.6801  0.38531  0.9950800000000002  1.0000
  O   O25       1.0  0.7748599999999999  0.36621  0.85875  1.0000
  O   O26       1.0  0.9204099999999998  0.7673  0.12791  1.0000
  O   O27       1.0  0.006029999999999998  0.74617  0.9862200000000002  1.0000
  O   O28       1.0  0.50956  0.52061  0.9125  1.0000
