data_image0
_chemical_formula_structural       Cu6H32C60N4O28
_chemical_formula_sum              "Cu6 H32 C60 N4 O28"
_cell_length_a       11.75124
_cell_length_b       15.126339999999999
_cell_length_c       16.76926
_cell_angle_alpha    90.00199
_cell_angle_beta     93.99911
_cell_angle_gamma    89.96498

_space_group_name_H-M_alt    "P 1"
_space_group_IT_number       1

loop_
  _space_group_symop_operation_xyz
  'x, y, z'

loop_
  _atom_site_type_symbol
  _atom_site_label
  _atom_site_symmetry_multiplicity
  _atom_site_fract_x
  _atom_site_fract_y
  _atom_site_fract_z
  _atom_site_occupancy
  Cu  Cu1       1.0  0.40595  0.03305  0.007590000000000001  1.0000
  Cu  Cu2       1.0  0.09412999999999999  0.533  0.49268  1.0000
  Cu  Cu3       1.0  0.59405  0.96695  0.9924100000000001  1.0000
  Cu  Cu4       1.0  0.9058699999999998  0.467  0.50731  1.0000
  Cu  Cu5       1.0  0.5  0.5  0.0  1.0000
  Cu  Cu6       1.0  0.0  0.0  0.5  1.0000
  H   H1        1.0  0.26128999999999997  0.50022  0.73381  1.0000
  H   H2        1.0  0.94166  0.36162  0.7390300000000002  1.0000
  H   H3        1.0  0.18468  0.35711  0.9442700000000003  1.0000
  H   H4        1.0  0.008400000000000017  0.26611  0.9435300000000001  1.0000
  H   H5        1.0  0.9228999999999999  0.25203  0.8517200000000003  1.0000
  H   H6        1.0  0.7961499999999999  0.19667  0.9297100000000001  1.0000
  H   H7        1.0  0.47193999999999997  0.30586  0.98449  1.0000
  H   H8        1.0  0.73892  0.4787499999999999  0.9518  1.0000
  H   H9        1.0  0.23880999999999997  0.0004  0.76649  1.0000
  H   H10       1.0  0.55845  0.86152  0.7608  1.0000
  H   H11       1.0  0.31515  0.85756  0.5557800000000003  1.0000
  H   H12       1.0  0.49167999999999995  0.76625  0.55634  1.0000
  H   H13       1.0  0.57697  0.75202  0.64828  1.0000
  H   H14       1.0  0.7043599999999999  0.6966399999999998  0.57025  1.0000
  H   H15       1.0  0.028309999999999995  0.80603  0.51558  1.0000
  H   H16       1.0  0.76085  0.97877  0.5484000000000001  1.0000
  H   H17       1.0  0.73871  0.49978  0.26619  1.0000
  H   H18       1.0  0.05833  0.63838  0.26097000000000004  1.0000
  H   H19       1.0  0.8153199999999998  0.64289  0.055730000000000016  1.0000
  H   H20       1.0  0.9916  0.73389  0.05646  1.0000
  H   H21       1.0  0.0771  0.74797  0.14827  1.0000
  H   H22       1.0  0.20384999999999998  0.80332  0.07029  1.0000
  H   H23       1.0  0.52805  0.69414  0.015510000000000001  1.0000
  H   H24       1.0  0.26108  0.52124  0.0482  1.0000
  H   H25       1.0  0.76119  0.99959  0.23350000000000007  1.0000
  H   H26       1.0  0.44154999999999994  0.13847  0.23920000000000002  1.0000
  H   H27       1.0  0.68485  0.14244  0.4442200000000001  1.0000
  H   H28       1.0  0.5083200000000001  0.23375  0.4436600000000001  1.0000
  H   H29       1.0  0.42302999999999996  0.24797999999999995  0.35171000000000013  1.0000
  H   H30       1.0  0.29564  0.30336  0.4297400000000001  1.0000
  H   H31       1.0  0.97169  0.19397  0.48441000000000006  1.0000
  H   H32       1.0  0.23915000000000003  0.02123  0.4516000000000001  1.0000
  C   C1        1.0  0.34361  0.46316  0.8841000000000002  1.0000
  C   C2        1.0  0.23367999999999997  0.43101  0.84288  1.0000
  C   C3        1.0  0.20325000000000004  0.4583599999999999  0.7646300000000003  1.0000
  C   C4        1.0  0.09801999999999998  0.4326399999999999  0.72739  1.0000
  C   C5        1.0  0.023800000000000026  0.37949  0.7684600000000003  1.0000
  C   C6        1.0  0.05421  0.3513  0.84641  1.0000
  C   C7        1.0  0.15936  0.3771  0.8832600000000003  1.0000
  C   C8        1.0  0.06284000000000002  0.4611199999999999  0.6443100000000003  1.0000
  C   C9        1.0  0.9688099999999997  0.30044  0.89085  1.0000
  C   C10       1.0  0.7828999999999998  0.3407399999999999  0.9351100000000002  1.0000
  C   C11       1.0  0.74285  0.25397  0.93905  1.0000
  C   C12       1.0  0.62912  0.24107  0.9566600000000001  1.0000
  C   C13       1.0  0.56032  0.3137  0.97107  1.0000
  C   C14       1.0  0.7091599999999999  0.41069  0.95175  1.0000
  C   C15       1.0  0.58123  0.15024  0.9646600000000001  1.0000
  C   C16       1.0  0.15625999999999998  0.96329  0.61604  1.0000
  C   C17       1.0  0.26632  0.93118  0.65737  1.0000
  C   C18       1.0  0.29692999999999997  0.95855  0.73564  1.0000
  C   C19       1.0  0.4025  0.93293  0.7726600000000002  1.0000
  C   C20       1.0  0.4763499999999999  0.87959  0.73143  1.0000
  C   C21       1.0  0.44578999999999996  0.85137  0.65354  1.0000
  C   C22       1.0  0.34063  0.87735  0.61681  1.0000
  C   C23       1.0  0.43890999999999997  0.9615799999999999  0.8555400000000002  1.0000
  C   C24       1.0  0.5312  0.80046  0.6090900000000001  1.0000
  C   C25       1.0  0.71728  0.84066  0.56497  1.0000
  C   C26       1.0  0.7576199999999998  0.75391  0.5609700000000001  1.0000
  C   C27       1.0  0.87142  0.7410899999999999  0.5433400000000003  1.0000
  C   C28       1.0  0.93992  0.8138299999999999  0.52901  1.0000
  C   C29       1.0  0.79082  0.91072  0.54843  1.0000
  C   C30       1.0  0.92003  0.65042  0.53547  1.0000
  C   C31       1.0  0.65639  0.53684  0.1159  1.0000
  C   C32       1.0  0.76632  0.56899  0.15711000000000003  1.0000
  C   C33       1.0  0.7967499999999998  0.54163  0.23537  1.0000
  C   C34       1.0  0.90198  0.56736  0.27261  1.0000
  C   C35       1.0  0.9761999999999998  0.6205  0.23154000000000005  1.0000
  C   C36       1.0  0.94579  0.6487  0.15359000000000006  1.0000
  C   C37       1.0  0.8406399999999999  0.62289  0.11674000000000001  1.0000
  C   C38       1.0  0.9371599999999999  0.53888  0.3556900000000001  1.0000
  C   C39       1.0  0.03119  0.69955  0.10915  1.0000
  C   C40       1.0  0.2171  0.65926  0.06489000000000003  1.0000
  C   C41       1.0  0.25714  0.7460299999999997  0.060950000000000004  1.0000
  C   C42       1.0  0.37088  0.7589299999999998  0.043330000000000014  1.0000
  C   C43       1.0  0.43968  0.68629  0.028930000000000004  1.0000
  C   C44       1.0  0.29084  0.58931  0.04824  1.0000
  C   C45       1.0  0.4187699999999999  0.84975  0.03533  1.0000
  C   C46       1.0  0.84374  0.03671  0.38396000000000013  1.0000
  C   C47       1.0  0.7336799999999999  0.06882  0.3426300000000001  1.0000
  C   C48       1.0  0.7030699999999999  0.04145  0.2643600000000001  1.0000
  C   C49       1.0  0.59749  0.06707  0.22734  1.0000
  C   C50       1.0  0.52365  0.12041  0.26857  1.0000
  C   C51       1.0  0.55421  0.14863  0.34646  1.0000
  C   C52       1.0  0.65936  0.12265  0.38318  1.0000
  C   C53       1.0  0.56109  0.03842  0.14446  1.0000
  C   C54       1.0  0.4688  0.19954  0.3909100000000001  1.0000
  C   C55       1.0  0.2827199999999999  0.15934  0.43503  1.0000
  C   C56       1.0  0.24237999999999996  0.24609  0.43903  1.0000
  C   C57       1.0  0.12858000000000003  0.25891  0.45666000000000007  1.0000
  C   C58       1.0  0.06008  0.18617  0.4709800000000001  1.0000
  C   C59       1.0  0.20917  0.08928  0.45157000000000014  1.0000
  C   C60       1.0  0.07997000000000001  0.34958  0.4645300000000001  1.0000
  N   N1        1.0  0.60114  0.39687  0.9694  1.0000
  N   N2        1.0  0.89886  0.89695  0.53075  1.0000
  N   N3        1.0  0.39886  0.60313  0.030599999999999995  1.0000
  N   N4        1.0  0.10113  0.10305  0.4692400000000001  1.0000
  O   O1        1.0  0.36284  0.43574  0.9579000000000001  1.0000
  O   O2        1.0  0.4079499999999999  0.51372  0.84965  1.0000
  O   O3        1.0  0.9603  0.44211  0.6185  1.0000
  O   O4        1.0  0.13674  0.50113  0.6046800000000002  1.0000
  O   O5        1.0  0.88869  0.36648  0.91686  1.0000
  O   O6        1.0  0.47481  0.146  0.97623  1.0000
  O   O7        1.0  0.65033  0.08520999999999997  0.9608700000000001  1.0000
  O   O8        1.0  0.13758  0.9363999999999998  0.54201  1.0000
  O   O9        1.0  0.0913  0.01338  0.65051  1.0000
  O   O10       1.0  0.5415300000000001  0.9421399999999998  0.8810700000000002  1.0000
  O   O11       1.0  0.36584  0.00264  0.8952  1.0000
  O   O12       1.0  0.61141  0.86639  0.5831600000000002  1.0000
  O   O13       1.0  0.02653000000000001  0.64634  0.52397  1.0000
  O   O14       1.0  0.85146  0.58519  0.53938  1.0000
  O   O15       1.0  0.63716  0.5642599999999998  0.04210000000000001  1.0000
  O   O16       1.0  0.5920500000000001  0.48628  0.15035000000000007  1.0000
  O   O17       1.0  0.039700000000000006  0.5578899999999999  0.38149000000000005  1.0000
  O   O18       1.0  0.8632599999999998  0.49887  0.3953200000000001  1.0000
  O   O19       1.0  0.11130999999999999  0.6335199999999997  0.08314000000000003  1.0000
  O   O20       1.0  0.52519  0.8539999999999999  0.02376  1.0000
  O   O21       1.0  0.34966999999999987  0.91479  0.03913000000000001  1.0000
  O   O22       1.0  0.86241  0.06359  0.45799  1.0000
  O   O23       1.0  0.9087  0.98662  0.34949  1.0000
  O   O24       1.0  0.45847  0.05785  0.11892  1.0000
  O   O25       1.0  0.63415  0.99736  0.10479  1.0000
  O   O26       1.0  0.38859  0.13361  0.41683  1.0000
  O   O27       1.0  0.97347  0.35366  0.47603  1.0000
  O   O28       1.0  0.14854  0.4148099999999999  0.46061000000000013  1.0000
