data_image0
_chemical_formula_structural       Ba4Cu4H48C40N8O32
_chemical_formula_sum              "Ba4 Cu4 H48 C40 N8 O32"
_cell_length_a       8.80498
_cell_length_b       10.06162
_cell_length_c       19.91612
_cell_angle_alpha    89.79465
_cell_angle_beta     102.58135999999999
_cell_angle_gamma    90.06057000000001

_space_group_name_H-M_alt    "P 1"
_space_group_IT_number       1

loop_
  _space_group_symop_operation_xyz
  'x, y, z'

loop_
  _atom_site_type_symbol
  _atom_site_label
  _atom_site_symmetry_multiplicity
  _atom_site_fract_x
  _atom_site_fract_y
  _atom_site_fract_z
  _atom_site_occupancy
  Ba  Ba1       1.0  0.6744699999999998  0.8256799999999999  0.96116  1.0000
  Ba  Ba2       1.0  0.31908  0.32445000000000007  0.5378  1.0000
  Ba  Ba3       1.0  0.32553  0.17432  0.03884  1.0000
  Ba  Ba4       1.0  0.68092  0.6755500000000001  0.46219000000000005  1.0000
  Cu  Cu1       1.0  0.7635899999999998  0.06899  0.79652  1.0000
  Cu  Cu2       1.0  0.23655999999999996  0.56772  0.70405  1.0000
  Cu  Cu3       1.0  0.23640999999999998  0.9310100000000001  0.20348  1.0000
  Cu  Cu4       1.0  0.76344  0.43227000000000004  0.29595  1.0000
  H   H1        1.0  0.72519  0.31540000000000007  0.68677  1.0000
  H   H2        1.0  0.8484899999999999  0.43629000000000007  0.73414  1.0000
  H   H3        1.0  0.6024299999999998  0.43023000000000006  0.77115  1.0000
  H   H4        1.0  0.7536499999999999  0.37573  0.8400899999999999  1.0000
  H   H5        1.0  0.8888899999999997  0.16848000000000002  0.65642  1.0000
  H   H6        1.0  0.056690000000000025  0.11192  0.71365  1.0000
  H   H7        1.0  0.13970999999999997  0.21893  0.8176  1.0000
  H   H8        1.0  0.05247  0.3706  0.82821  1.0000
  H   H9        1.0  0.6244  0.26836  0.8987599999999999  1.0000
  H   H10       1.0  0.43263999999999997  0.28885000000000005  0.84988  1.0000
  H   H11       1.0  0.42997  0.29531  0.70884  1.0000
  H   H12       1.0  0.38472  0.14395  0.74544  1.0000
  H   H13       1.0  0.27615  0.81452  0.81416  1.0000
  H   H14       1.0  0.15303  0.93604  0.7671  1.0000
  H   H15       1.0  0.39716000000000007  0.93046  0.72898  1.0000
  H   H16       1.0  0.24494999999999997  0.87596  0.6606  1.0000
  H   H17       1.0  0.10935000000000002  0.67058  0.8454  1.0000
  H   H18       1.0  0.9420399999999999  0.61364  0.78809  1.0000
  H   H19       1.0  0.86074  0.7188700000000001  0.68365  1.0000
  H   H20       1.0  0.9469599999999999  0.87145  0.67306  1.0000
  H   H21       1.0  0.3739399999999999  0.77039  0.60184  1.0000
  H   H22       1.0  0.56616  0.78964  0.65026  1.0000
  H   H23       1.0  0.57074  0.79388  0.79143  1.0000
  H   H24       1.0  0.6139399999999998  0.64259  0.75482  1.0000
  H   H25       1.0  0.27481  0.6846000000000001  0.31323  1.0000
  H   H26       1.0  0.15151  0.56371  0.26586  1.0000
  H   H27       1.0  0.39756999999999987  0.56977  0.22884999999999997  1.0000
  H   H28       1.0  0.24635  0.62427  0.15991  1.0000
  H   H29       1.0  0.11110999999999996  0.83151  0.34358  1.0000
  H   H30       1.0  0.9433099999999999  0.88808  0.28635  1.0000
  H   H31       1.0  0.8602899999999998  0.78106  0.1824  1.0000
  H   H32       1.0  0.94753  0.62939  0.17179  1.0000
  H   H33       1.0  0.37559999999999993  0.73164  0.10124  1.0000
  H   H34       1.0  0.5673599999999998  0.71114  0.15012  1.0000
  H   H35       1.0  0.57003  0.70469  0.29115  1.0000
  H   H36       1.0  0.61528  0.85604  0.25456  1.0000
  H   H37       1.0  0.72385  0.18548  0.18584  1.0000
  H   H38       1.0  0.8469699999999999  0.06396  0.2329  1.0000
  H   H39       1.0  0.60284  0.06954  0.27102  1.0000
  H   H40       1.0  0.7550499999999998  0.12403  0.3394  1.0000
  H   H41       1.0  0.8906499999999998  0.32941  0.1546  1.0000
  H   H42       1.0  0.05795999999999999  0.3863500000000001  0.21191  1.0000
  H   H43       1.0  0.13925999999999994  0.28113000000000005  0.31635  1.0000
  H   H44       1.0  0.05304000000000002  0.12855000000000003  0.32694  1.0000
  H   H45       1.0  0.62606  0.22961000000000004  0.39816  1.0000
  H   H46       1.0  0.43384  0.21035  0.34974  1.0000
  H   H47       1.0  0.4292599999999998  0.20612  0.20856999999999998  1.0000
  H   H48       1.0  0.38606  0.35741  0.24517000000000003  1.0000
  C   C1        1.0  0.79361  0.33902  0.73837  1.0000
  C   C2        1.0  0.6867499999999997  0.35038  0.78855  1.0000
  C   C3        1.0  0.07952999999999999  0.30868000000000007  0.67495  1.0000
  C   C4        1.0  0.98175  0.1996  0.69984  1.0000
  C   C5        1.0  0.028269999999999903  0.26371  0.8215  1.0000
  C   C6        1.0  0.9960099999999998  0.20822000000000004  0.88881  1.0000
  C   C7        1.0  0.5365999999999997  0.22518  0.8567300000000001  1.0000
  C   C8        1.0  0.50497  0.08582  0.88091  1.0000
  C   C9        1.0  0.47934  0.20106000000000002  0.73119  1.0000
  C   C10       1.0  0.53598  0.11643  0.67774  1.0000
  C   C11       1.0  0.20724  0.8387800000000001  0.76267  1.0000
  C   C12       1.0  0.31285  0.8504900000000001  0.71203  1.0000
  C   C13       1.0  0.91923  0.81096  0.82524  1.0000
  C   C14       1.0  0.01727000000000003  0.7012400000000001  0.80143  1.0000
  C   C15       1.0  0.97195  0.7646500000000002  0.6798  1.0000
  C   C16       1.0  0.005349999999999997  0.7109  0.61255  1.0000
  C   C17       1.0  0.46194999999999997  0.7262700000000001  0.64366  1.0000
  C   C18       1.0  0.49300999999999995  0.58759  0.61884  1.0000
  C   C19       1.0  0.52005  0.7001400000000001  0.76925  1.0000
  C   C20       1.0  0.46192999999999995  0.6151  0.82258  1.0000
  C   C21       1.0  0.20638999999999996  0.66098  0.26163  1.0000
  C   C22       1.0  0.31325  0.6496100000000001  0.21145  1.0000
  C   C23       1.0  0.92047  0.69131  0.32505  1.0000
  C   C24       1.0  0.018249999999999995  0.8004  0.30016  1.0000
  C   C25       1.0  0.9717299999999999  0.73628  0.1785  1.0000
  C   C26       1.0  0.003990000000000004  0.79178  0.11119  1.0000
  C   C27       1.0  0.46339999999999987  0.77482  0.14327  1.0000
  C   C28       1.0  0.49503  0.9141800000000001  0.11907999999999999  1.0000
  C   C29       1.0  0.52065  0.79894  0.26881  1.0000
  C   C30       1.0  0.46402  0.8835700000000001  0.32226  1.0000
  C   C31       1.0  0.7927599999999999  0.16122  0.23733  1.0000
  C   C32       1.0  0.6871499999999998  0.14951  0.28797  1.0000
  C   C33       1.0  0.08076999999999998  0.18904000000000004  0.17476  1.0000
  C   C34       1.0  0.98273  0.29876  0.19857  1.0000
  C   C35       1.0  0.028049999999999953  0.23535000000000003  0.3202  1.0000
  C   C36       1.0  0.99465  0.2891  0.38745  1.0000
  C   C37       1.0  0.53805  0.27372  0.35634  1.0000
  C   C38       1.0  0.50698  0.41241  0.38116  1.0000
  C   C39       1.0  0.47995  0.29985  0.23075  1.0000
  C   C40       1.0  0.5380699999999998  0.38489000000000007  0.17742  1.0000
  N   N1        1.0  0.91205  0.23433000000000004  0.75805  1.0000
  N   N2        1.0  0.60172  0.22456  0.79428  1.0000
  N   N3        1.0  0.08802  0.73465  0.7433  1.0000
  N   N4        1.0  0.3975  0.72475  0.70623  1.0000
  N   N5        1.0  0.08795  0.76567  0.24195  1.0000
  N   N6        1.0  0.39827  0.7754300000000001  0.20571  1.0000
  N   N7        1.0  0.9119799999999999  0.26534  0.2567  1.0000
  N   N8        1.0  0.6025  0.27524  0.29377  1.0000
  O   O1        1.0  0.13486  0.28428000000000003  0.62314  1.0000
  O   O2        1.0  0.09848999999999995  0.41485  0.71096  1.0000
  O   O3        1.0  0.08936999999999992  0.24584  0.94278  1.0000
  O   O4        1.0  0.88363  0.12669  0.8886  1.0000
  O   O5        1.0  0.44099  0.07607  0.93212  1.0000
  O   O6        1.0  0.55323  0.98691  0.85162  1.0000
  O   O7        1.0  0.46951999999999994  0.12759  0.61511  1.0000
  O   O8        1.0  0.64514  0.03283000000000001  0.70056  1.0000
  O   O9        1.0  0.8566399999999998  0.78432  0.87475  1.0000
  O   O10       1.0  0.9076699999999995  0.9198700000000002  0.791  1.0000
  O   O11       1.0  0.9159699999999998  0.75262  0.55829  1.0000
  O   O12       1.0  0.11470999999999999  0.62643  0.61292  1.0000
  O   O13       1.0  0.56042  0.58031  0.56868  1.0000
  O   O14       1.0  0.44151  0.4875  0.6465  1.0000
  O   O15       1.0  0.52387  0.6277000000000001  0.88558  1.0000
  O   O16       1.0  0.3555599999999999  0.5294600000000002  0.79906  1.0000
  O   O17       1.0  0.86514  0.71572  0.37686  1.0000
  O   O18       1.0  0.90151  0.58515  0.28904  1.0000
  O   O19       1.0  0.9106299999999999  0.7541500000000002  0.05722  1.0000
  O   O20       1.0  0.11637  0.8733100000000001  0.1114  1.0000
  O   O21       1.0  0.5590099999999998  0.9239200000000001  0.06788  1.0000
  O   O22       1.0  0.44677  0.01309  0.14838  1.0000
  O   O23       1.0  0.53048  0.8724000000000001  0.38489  1.0000
  O   O24       1.0  0.35486  0.9671600000000001  0.29944  1.0000
  O   O25       1.0  0.14335999999999996  0.21567000000000006  0.12525  1.0000
  O   O26       1.0  0.09232999999999997  0.08013000000000002  0.209  1.0000
  O   O27       1.0  0.08402999999999997  0.24737  0.44170999999999994  1.0000
  O   O28       1.0  0.88529  0.37357  0.38708  1.0000
  O   O29       1.0  0.4395799999999999  0.41968000000000005  0.43132  1.0000
  O   O30       1.0  0.55849  0.5125  0.3535  1.0000
  O   O31       1.0  0.47613  0.3723  0.11441999999999998  1.0000
  O   O32       1.0  0.64444  0.4705400000000001  0.20094  1.0000
