data_image0
_chemical_formula_structural       Co4H28C44N12O20
_chemical_formula_sum              "Co4 H28 C44 N12 O20"
_cell_length_a       9.52062
_cell_length_b       10.312190000000001
_cell_length_c       16.97961
_cell_angle_alpha    90.98971
_cell_angle_beta     100.47126
_cell_angle_gamma    93.13485

_symmetry_space_group_name_H-M    'P 1'
_symmetry_Int_Tables_number       1

loop_
  _symmetry_equiv_pos_as_xyz
  'x,y,z'

loop_
  _atom_site_type_symbol
  _atom_site_label
  _atom_site_symmetry_multiplicity
  _atom_site_fract_x
  _atom_site_fract_y
  _atom_site_fract_z
  _atom_site_occupancy
  Co  Co1       1.0  0.80143  0.17616000000000004  0.70774  1.0000
  Co  Co2       1.0  0.81767  0.37068  0.86089  1.0000
  Co  Co3       1.0  0.19845000000000002  0.8239200000000001  0.2922  1.0000
  Co  Co4       1.0  0.18228  0.62936  0.13904  1.0000
  H   H1        1.0  0.77081  0.7279400000000001  0.7432  1.0000
  H   H2        1.0  0.6725800000000001  0.87151  0.50486  1.0000
  H   H3        1.0  0.6953200000000002  0.45787  0.54163  1.0000
  H   H4        1.0  0.5870700000000001  0.8035300000000001  0.38505  1.0000
  H   H5        1.0  0.61245  0.67439  0.31755  1.0000
  H   H6        1.0  0.03817  0.00735  0.40974  1.0000
  H   H7        1.0  0.89858  0.6327  0.31634  1.0000
  H   H8        1.0  0.34785000000000005  0.34825000000000006  0.84799  1.0000
  H   H9        1.0  0.46539  0.96388  0.79151  1.0000
  H   H10       1.0  0.03282000000000002  0.02758  0.81859  1.0000
  H   H11       1.0  0.08463000000000002  0.68647  0.79128  1.0000
  H   H12       1.0  0.0009999999999999805  0.8384  0.79269  1.0000
  H   H13       1.0  0.09821000000000002  0.8976800000000001  0.07476  1.0000
  H   H14       1.0  0.15001  0.57435  0.92867  1.0000
  H   H15       1.0  0.22933000000000003  0.2723  0.2568  1.0000
  H   H16       1.0  0.32745  0.12843  0.49506999999999995  1.0000
  H   H17       1.0  0.30482000000000004  0.54213  0.45854  1.0000
  H   H18       1.0  0.41295  0.19637000000000002  0.61497  1.0000
  H   H19       1.0  0.38759  0.32548  0.68248  1.0000
  H   H20       1.0  0.96183  0.99268  0.59023  1.0000
  H   H21       1.0  0.10144  0.36736  0.68359  1.0000
  H   H22       1.0  0.65219  0.65198  0.15199  1.0000
  H   H23       1.0  0.5342000000000001  0.036210000000000006  0.20844  1.0000
  H   H24       1.0  0.9669  0.9729200000000001  0.18138  1.0000
  H   H25       1.0  0.91471  0.31382  0.20875  1.0000
  H   H26       1.0  0.99831  0.16189000000000003  0.20737  1.0000
  H   H27       1.0  0.9018000000000002  0.10278  0.92528  1.0000
  H   H28       1.0  0.84983  0.42601  0.0714  1.0000
  C   C1        1.0  0.7341  0.58126  0.64816  1.0000
  C   C2        1.0  0.7443300000000003  0.70884  0.67898  1.0000
  C   C3        1.0  0.7211600000000002  0.8116200000000001  0.62657  1.0000
  C   C4        1.0  0.6868600000000001  0.78831  0.5433  1.0000
  C   C5        1.0  0.67935  0.6605000000000001  0.51337  1.0000
  C   C6        1.0  0.70145  0.55695  0.56532  1.0000
  C   C7        1.0  0.7650400000000002  0.47056  0.70278  1.0000
  C   C8        1.0  0.7459  0.94758  0.65901  1.0000
  C   C9        1.0  0.65364  0.72313  0.37557  1.0000
  C   C10       1.0  0.97196  0.9194400000000001  0.39154  1.0000
  C   C11       1.0  0.90539  0.72866  0.34415  1.0000
  C   C12       1.0  0.17873000000000003  0.19571000000000002  0.83318  1.0000
  C   C13       1.0  0.31925000000000003  0.24534  0.836  1.0000
  C   C14       1.0  0.42056  0.16110000000000002  0.81862  1.0000
  C   C15       1.0  0.38542  0.02771  0.80531  1.0000
  C   C16       1.0  0.24763000000000002  0.97787  0.80986  1.0000
  C   C17       1.0  0.1427  0.062290000000000005  0.82022  1.0000
  C   C18       1.0  0.06309  0.28241  0.84186  1.0000
  C   C19       1.0  0.56567  0.21367  0.80934  1.0000
  C   C20       1.0  0.09471  0.78486  0.8177  1.0000
  C   C21       1.0  0.10402  0.8369900000000002  0.02292  1.0000
  C   C22       1.0  0.13347  0.67069  0.95094  1.0000
  C   C23       1.0  0.26611  0.4188500000000001  0.35183  1.0000
  C   C24       1.0  0.25586  0.29128  0.32103  1.0000
  C   C25       1.0  0.27889  0.18848000000000004  0.37342  1.0000
  C   C26       1.0  0.31317  0.21171  0.4567  1.0000
  C   C27       1.0  0.3207  0.33952  0.48663  1.0000
  C   C28       1.0  0.29874000000000006  0.44312000000000007  0.4347  1.0000
  C   C29       1.0  0.23498000000000002  0.52947  0.29718  1.0000
  C   C30       1.0  0.2541300000000001  0.05254  0.34097  1.0000
  C   C31       1.0  0.3464  0.27681  0.62443  1.0000
  C   C32       1.0  0.02802999999999999  0.08058  0.60843  1.0000
  C   C33       1.0  0.09461999999999994  0.27137  0.65579  1.0000
  C   C34       1.0  0.82122  0.80454  0.16677  1.0000
  C   C35       1.0  0.68071  0.75488  0.16398  1.0000
  C   C36       1.0  0.5792600000000001  0.8390000000000001  0.18133  1.0000
  C   C37       1.0  0.61425  0.9724000000000002  0.19467  1.0000
  C   C38       1.0  0.75199  0.0223  0.1901  1.0000
  C   C39       1.0  0.8570800000000001  0.9380000000000002  0.17976  1.0000
  C   C40       1.0  0.9368200000000001  0.71773  0.15811  1.0000
  C   C41       1.0  0.4342300000000001  0.7863100000000002  0.19066  1.0000
  C   C42       1.0  0.9046300000000002  0.21544  0.18232  1.0000
  C   C43       1.0  0.8958600000000002  0.1634  0.9771299999999999  1.0000
  C   C44       1.0  0.8663000000000002  0.32966  0.04909  1.0000
  N   N1        1.0  0.79779  0.7798800000000001  0.37449  1.0000
  N   N2        1.0  0.8396800000000002  0.9025900000000002  0.40528  1.0000
  N   N3        1.0  0.01738999999999999  0.81498  0.35341  1.0000
  N   N4        1.0  0.09997000000000006  0.77319  0.90378  1.0000
  N   N5        1.0  0.0811  0.8797400000000001  0.94915  1.0000
  N   N6        1.0  0.13526  0.70766  0.0272  1.0000
  N   N7        1.0  0.20224000000000006  0.22010000000000002  0.62549  1.0000
  N   N8        1.0  0.16032  0.0974  0.5947  1.0000
  N   N9        1.0  0.98261  0.18507999999999997  0.64654  1.0000
  N   N10       1.0  0.89953  0.22711000000000003  0.09625  1.0000
  N   N11       1.0  0.9185  0.12058  0.05089  1.0000
  N   N12       1.0  0.86472  0.29274  0.9728499999999999  1.0000
  O   O1        1.0  0.75087  0.3568700000000002  0.67092  1.0000
  O   O2        1.0  0.80618  0.50007  0.77786  1.0000
  O   O3        1.0  0.82004  0.96891  0.72954  1.0000
  O   O4        1.0  0.7019700000000001  0.04289  0.61567  1.0000
  O   O5        1.0  0.6529800000000001  0.62429  0.43255  1.0000
  O   O6        1.0  0.93152  0.23392000000000002  0.81759  1.0000
  O   O7        1.0  0.08375999999999999  0.39505000000000007  0.87275  1.0000
  O   O8        1.0  0.61185  0.3229600000000001  0.84538  1.0000
  O   O9        1.0  0.63091  0.14752  0.76559  1.0000
  O   O10       1.0  0.22477  0.84376  0.80119  1.0000
  O   O11       1.0  0.24931  0.64317  0.329  1.0000
  O   O12       1.0  0.19365  0.49997  0.22208  1.0000
  O   O13       1.0  0.18000000000000005  0.031160000000000004  0.27043  1.0000
  O   O14       1.0  0.29798  0.9572700000000001  0.38434  1.0000
  O   O15       1.0  0.34703  0.37567000000000006  0.56746  1.0000
  O   O16       1.0  0.06840000000000002  0.76619  0.18238  1.0000
  O   O17       1.0  0.9161100000000001  0.60506  0.1273  1.0000
  O   O18       1.0  0.38809  0.67702  0.15459  1.0000
  O   O19       1.0  0.36895  0.8524000000000002  0.23441  1.0000
  O   O20       1.0  0.7745200000000002  0.15645000000000003  0.19875  1.0000
