data_image0
_chemical_formula_structural       Ni4H40C68N12O16
_chemical_formula_sum              "Ni4 H40 C68 N12 O16"
_cell_length_a       11.76624
_cell_length_b       14.968360000000002
_cell_length_c       14.96839
_cell_angle_alpha    96.95842000000002
_cell_angle_beta     107.73785
_cell_angle_gamma    107.7379

_symmetry_space_group_name_H-M    'P 1'
_symmetry_Int_Tables_number       1

loop_
  _symmetry_equiv_pos_as_xyz
  'x,y,z'

loop_
  _atom_site_type_symbol
  _atom_site_label
  _atom_site_symmetry_multiplicity
  _atom_site_fract_x
  _atom_site_fract_y
  _atom_site_fract_z
  _atom_site_occupancy
  Ni  Ni1       1.0  0.6082900000000001  0.6897400000000001  0.9317200000000002  1.0000
  Ni  Ni2       1.0  0.6082900000000002  0.9317300000000002  0.6897300000000002  1.0000
  Ni  Ni3       1.0  0.39171  0.06828  0.31027  1.0000
  Ni  Ni4       1.0  0.39171000000000006  0.3102700000000001  0.06828  1.0000
  H   H1        1.0  0.42978  0.77363  0.9900400000000003  1.0000
  H   H2        1.0  0.20183000000000006  0.7129  0.9764600000000001  1.0000
  H   H3        1.0  0.1658600000000001  0.43443000000000004  0.8265900000000003  1.0000
  H   H4        1.0  0.39835  0.50755  0.84769  1.0000
  H   H5        1.0  0.9998000000000002  0.6606000000000002  0.9306100000000003  1.0000
  H   H6        1.0  0.66875  0.40281  0.83795  1.0000
  H   H7        1.0  0.52457  0.09998000000000001  0.62946  1.0000
  H   H8        1.0  0.6110600000000002  0.27902000000000005  0.6903100000000002  1.0000
  H   H9        1.0  0.95352  0.25568000000000013  0.8813600000000003  1.0000
  H   H10       1.0  0.8489200000000002  0.07503000000000005  0.8165200000000002  1.0000
  H   H11       1.0  0.42978  0.99004  0.77362  1.0000
  H   H12       1.0  0.20183000000000018  0.9764700000000002  0.7129000000000002  1.0000
  H   H13       1.0  0.16586  0.8266000000000001  0.43443  1.0000
  H   H14       1.0  0.39835000000000004  0.8477000000000001  0.5075500000000001  1.0000
  H   H15       1.0  0.9998000000000001  0.9306100000000003  0.6606  1.0000
  H   H16       1.0  0.66875  0.8379600000000003  0.4028  1.0000
  H   H17       1.0  0.5245700000000001  0.6294600000000002  0.09998  1.0000
  H   H18       1.0  0.61106  0.69031  0.27902  1.0000
  H   H19       1.0  0.95352  0.88137  0.25568  1.0000
  H   H20       1.0  0.8489200000000002  0.81652  0.07503000000000001  1.0000
  H   H21       1.0  0.57022  0.009970000000000014  0.22638000000000005  1.0000
  H   H22       1.0  0.79817  0.023540000000000012  0.28711  1.0000
  H   H23       1.0  0.83414  0.17341000000000006  0.5655700000000002  1.0000
  H   H24       1.0  0.60165  0.15231  0.4924600000000001  1.0000
  H   H25       1.0  0.00020000000000002142  0.06939000000000002  0.33941  1.0000
  H   H26       1.0  0.33125  0.16205  0.5972  1.0000
  H   H27       1.0  0.4754300000000001  0.3705500000000001  0.90002  1.0000
  H   H28       1.0  0.3889400000000002  0.3097000000000001  0.7209800000000002  1.0000
  H   H29       1.0  0.04648000000000012  0.1186400000000001  0.7443200000000002  1.0000
  H   H30       1.0  0.15108000000000005  0.18349  0.92498  1.0000
  H   H31       1.0  0.57022  0.22638  0.009970000000000001  1.0000
  H   H32       1.0  0.79817  0.28711  0.023540000000000005  1.0000
  H   H33       1.0  0.83414  0.56557  0.17341  1.0000
  H   H34       1.0  0.6016500000000001  0.4924600000000001  0.15231  1.0000
  H   H35       1.0  0.00020000000000008748  0.3394100000000002  0.06939  1.0000
  H   H36       1.0  0.33125000000000004  0.5972  0.16205  1.0000
  H   H37       1.0  0.4754300000000001  0.9000200000000003  0.37055  1.0000
  H   H38       1.0  0.3889400000000002  0.7209900000000002  0.3097000000000001  1.0000
  H   H39       1.0  0.04648000000000002  0.74432  0.11864000000000002  1.0000
  H   H40       1.0  0.15108000000000002  0.92498  0.18348000000000006  1.0000
  C   C1        1.0  0.3676499999999999  0.69896  0.95473  1.0000
  C   C2        1.0  0.23991999999999986  0.66427  0.94588  1.0000
  C   C3        1.0  0.16339999999999993  0.56754  0.89885  1.0000
  C   C4        1.0  0.22159000000000015  0.5097700000000001  0.8631300000000002  1.0000
  C   C5        1.0  0.34961  0.5495  0.8746600000000002  1.0000
  C   C6        1.0  0.025950000000000042  0.52577  0.8852000000000002  1.0000
  C   C7        1.0  0.9569  0.58255  0.9046500000000002  1.0000
  C   C8        1.0  0.82725  0.53762  0.88895  1.0000
  C   C9        1.0  0.7695900000000001  0.43831000000000003  0.8506600000000001  1.0000
  C   C10       1.0  0.8447  0.38696  0.83219  1.0000
  C   C11       1.0  0.61767  0.13672000000000006  0.68696  1.0000
  C   C12       1.0  0.66635  0.23644000000000012  0.7212700000000002  1.0000
  C   C13       1.0  0.78863  0.2813500000000001  0.79289  1.0000
  C   C14       1.0  0.8575300000000001  0.22302000000000005  0.8268000000000001  1.0000
  C   C15       1.0  0.8009500000000002  0.12369000000000004  0.79087  1.0000
  C   C16       1.0  0.7501600000000003  0.59465  0.9116800000000003  1.0000
  C   C17       1.0  0.3676500000000001  0.9547300000000001  0.69895  1.0000
  C   C18       1.0  0.23991999999999997  0.9458799999999999  0.66427  1.0000
  C   C19       1.0  0.16339999999999996  0.89885  0.56754  1.0000
  C   C20       1.0  0.22159000000000015  0.8631400000000002  0.50976  1.0000
  C   C21       1.0  0.34961  0.87466  0.5495000000000001  1.0000
  C   C22       1.0  0.02595000000000019  0.8852  0.5257700000000001  1.0000
  C   C23       1.0  0.9569  0.90465  0.5825500000000001  1.0000
  C   C24       1.0  0.82725  0.88896  0.53761  1.0000
  C   C25       1.0  0.76959  0.8506700000000001  0.43830000000000013  1.0000
  C   C26       1.0  0.8447000000000001  0.8321900000000002  0.3869500000000001  1.0000
  C   C27       1.0  0.61767  0.68696  0.13672000000000004  1.0000
  C   C28       1.0  0.66635  0.7212700000000002  0.23644  1.0000
  C   C29       1.0  0.78863  0.79289  0.28134000000000003  1.0000
  C   C30       1.0  0.8575300000000001  0.8268  0.22301  1.0000
  C   C31       1.0  0.8009500000000003  0.7908700000000002  0.12369000000000002  1.0000
  C   C32       1.0  0.75016  0.9116900000000001  0.59464  1.0000
  C   C33       1.0  0.5748499999999999  0.7655499999999998  0.76554  1.0000
  C   C34       1.0  0.6157700000000003  0.8520300000000002  0.8520300000000002  1.0000
  C   C35       1.0  0.6323500000000001  0.04528000000000003  0.30105000000000004  1.0000
  C   C36       1.0  0.76008  0.05413  0.33574  1.0000
  C   C37       1.0  0.8366  0.10115000000000003  0.43246  1.0000
  C   C38       1.0  0.7784  0.13687000000000005  0.4902400000000001  1.0000
  C   C39       1.0  0.6503900000000001  0.12535000000000002  0.4505100000000001  1.0000
  C   C40       1.0  0.9740500000000001  0.11481000000000002  0.4742400000000001  1.0000
  C   C41       1.0  0.043100000000000006  0.09535  0.41746  1.0000
  C   C42       1.0  0.17275000000000004  0.11105000000000002  0.46239000000000013  1.0000
  C   C43       1.0  0.23039999999999997  0.14934  0.5617  1.0000
  C   C44       1.0  0.15530000000000008  0.16782000000000005  0.6130500000000001  1.0000
  C   C45       1.0  0.38233  0.31305  0.86329  1.0000
  C   C46       1.0  0.33365  0.27874  0.76356  1.0000
  C   C47       1.0  0.21137000000000009  0.20712  0.7186600000000002  1.0000
  C   C48       1.0  0.14247000000000015  0.17321000000000009  0.7769900000000002  1.0000
  C   C49       1.0  0.1990400000000001  0.20914000000000005  0.8763100000000003  1.0000
  C   C50       1.0  0.24984  0.08832000000000002  0.40536  1.0000
  C   C51       1.0  0.63235  0.30105  0.045280000000000015  1.0000
  C   C52       1.0  0.76008  0.33574  0.05413  1.0000
  C   C53       1.0  0.8366  0.4324600000000001  0.10115  1.0000
  C   C54       1.0  0.7784  0.49024  0.13687  1.0000
  C   C55       1.0  0.65039  0.45051000000000013  0.12534000000000003  1.0000
  C   C56       1.0  0.9740500000000002  0.47424  0.11481000000000001  1.0000
  C   C57       1.0  0.043099999999999986  0.41746  0.09535  1.0000
  C   C58       1.0  0.17275000000000001  0.4623900000000001  0.11105000000000002  1.0000
  C   C59       1.0  0.23040000000000002  0.5617000000000001  0.14934  1.0000
  C   C60       1.0  0.1553  0.61305  0.16781  1.0000
  C   C61       1.0  0.3823300000000001  0.8632900000000002  0.3130500000000001  1.0000
  C   C62       1.0  0.3336500000000001  0.76356  0.27873  1.0000
  C   C63       1.0  0.21137000000000009  0.7186600000000002  0.20712  1.0000
  C   C64       1.0  0.1424700000000001  0.7769900000000002  0.17321  1.0000
  C   C65       1.0  0.1990400000000001  0.8763100000000003  0.20914  1.0000
  C   C66       1.0  0.24984  0.40536  0.08832  1.0000
  C   C67       1.0  0.42514  0.23446000000000006  0.23446  1.0000
  C   C68       1.0  0.38423000000000007  0.14798  0.14798000000000003  1.0000
  N   N1        1.0  0.4222500000000002  0.64258  0.9198800000000001  1.0000
  N   N2        1.0  0.97056  0.42918  0.85099  1.0000
  N   N3        1.0  0.68289  0.08068000000000003  0.7220200000000001  1.0000
  N   N4        1.0  0.42225000000000007  0.91989  0.6425700000000002  1.0000
  N   N5        1.0  0.9705600000000001  0.8509900000000002  0.4291800000000001  1.0000
  N   N6        1.0  0.68289  0.72202  0.08068  1.0000
  N   N7        1.0  0.57775  0.08012000000000001  0.3574300000000001  1.0000
  N   N8        1.0  0.029440000000000036  0.14901000000000006  0.57082  1.0000
  N   N9        1.0  0.3171100000000001  0.2779900000000001  0.9193200000000002  1.0000
  N   N10       1.0  0.57775  0.35743  0.08012  1.0000
  N   N11       1.0  0.029440000000000004  0.57082  0.14901  1.0000
  N   N12       1.0  0.31711  0.91932  0.27799  1.0000
  O   O1        1.0  0.63616  0.5487  0.9065600000000003  1.0000
  O   O2        1.0  0.8007900000000001  0.6862900000000001  0.9342600000000002  1.0000
  O   O3        1.0  0.5586100000000003  0.6825400000000001  0.7828600000000002  1.0000
  O   O4        1.0  0.6304800000000003  0.83516  0.9353300000000002  1.0000
  O   O5        1.0  0.63616  0.9065600000000003  0.5487  1.0000
  O   O6        1.0  0.80079  0.93426  0.6862800000000001  1.0000
  O   O7        1.0  0.5586100000000002  0.7828700000000003  0.68253  1.0000
  O   O8        1.0  0.6304800000000003  0.9353400000000002  0.83516  1.0000
  O   O9        1.0  0.36384  0.09345000000000005  0.4513000000000001  1.0000
  O   O10       1.0  0.1992100000000001  0.06575000000000003  0.3137200000000001  1.0000
  O   O11       1.0  0.44139  0.21714000000000006  0.3174700000000001  1.0000
  O   O12       1.0  0.36952  0.06467  0.16484  1.0000
  O   O13       1.0  0.36384  0.4513  0.09345000000000003  1.0000
  O   O14       1.0  0.19920999999999997  0.31372  0.06575  1.0000
  O   O15       1.0  0.44139  0.31747  0.21714000000000006  1.0000
  O   O16       1.0  0.36952  0.16484  0.06467  1.0000
