data_image0
_chemical_formula_structural       K2La6H20C60O50
_chemical_formula_sum              "K2 La6 H20 C60 O50"
_cell_length_a       10.78861
_cell_length_b       16.6529
_cell_length_c       17.61787
_cell_angle_alpha    113.94921
_cell_angle_beta     92.25135
_cell_angle_gamma    99.77134999999998

_space_group_name_H-M_alt    "P 1"
_space_group_IT_number       1

loop_
  _space_group_symop_operation_xyz
  'x, y, z'

loop_
  _atom_site_type_symbol
  _atom_site_label
  _atom_site_symmetry_multiplicity
  _atom_site_fract_x
  _atom_site_fract_y
  _atom_site_fract_z
  _atom_site_occupancy
  K   K1        1.0  0.73223  0.2348400000000002  0.9920200000000002  1.0000
  K   K2        1.0  0.26777  0.76516  0.00798  1.0000
  La  La1       1.0  0.08407  0.1452  0.016360000000000006  1.0000
  La  La2       1.0  0.36967000000000005  0.3409300000000001  0.9955500000000003  1.0000
  La  La3       1.0  0.43518  0.87052  0.4220000000000001  1.0000
  La  La4       1.0  0.91593  0.8547900000000003  0.98363  1.0000
  La  La5       1.0  0.63033  0.65907  0.00445  1.0000
  La  La6       1.0  0.56482  0.12948000000000012  0.5780000000000002  1.0000
  H   H1        1.0  0.12163000000000003  0.9853800000000004  0.8136400000000003  1.0000
  H   H2        1.0  0.07113  0.45149  0.86636  1.0000
  H   H3        1.0  0.85446  0.51983  0.87582  1.0000
  H   H4        1.0  0.37514  0.04911000000000005  0.14245000000000005  1.0000
  H   H5        1.0  0.12246000000000001  0.86789  0.6500800000000002  1.0000
  H   H6        1.0  0.7966999999999999  0.7840000000000001  0.7386000000000003  1.0000
  H   H7        1.0  0.5829  0.96931  0.12524  1.0000
  H   H8        1.0  0.19343  0.60922  0.3979000000000001  1.0000
  H   H9        1.0  0.64313  0.7691  0.60139  1.0000
  H   H10       1.0  0.0621  0.43375  0.31855  1.0000
  H   H11       1.0  0.8783699999999999  0.014620000000000015  0.18636000000000005  1.0000
  H   H12       1.0  0.92887  0.54851  0.13364000000000006  1.0000
  H   H13       1.0  0.14554000000000003  0.48017000000000015  0.12417000000000003  1.0000
  H   H14       1.0  0.6248599999999999  0.9508900000000001  0.8575500000000003  1.0000
  H   H15       1.0  0.8775399999999999  0.13211000000000006  0.34992  1.0000
  H   H16       1.0  0.20329999999999998  0.21600000000000005  0.26140000000000013  1.0000
  H   H17       1.0  0.4171  0.030690000000000044  0.87475  1.0000
  H   H18       1.0  0.80658  0.39078  0.60209  1.0000
  H   H19       1.0  0.3568700000000001  0.2309000000000001  0.39861000000000013  1.0000
  H   H20       1.0  0.9379000000000001  0.5662400000000001  0.6814400000000003  1.0000
  C   C1        1.0  0.4158  0.1934  0.08034000000000002  1.0000
  C   C2        1.0  0.4923599999999999  0.13469  0.09483  1.0000
  C   C3        1.0  0.25211  0.9831400000000001  0.6472900000000003  1.0000
  C   C4        1.0  0.20408  0.4246  0.23155000000000006  1.0000
  C   C5        1.0  0.66119  0.4338800000000001  0.9538  1.0000
  C   C6        1.0  0.24907000000000007  0.07756000000000011  0.7777500000000003  1.0000
  C   C7        1.0  0.7858100000000003  0.05876000000000002  0.055660000000000015  1.0000
  C   C8        1.0  0.96443  0.37080000000000013  0.9229600000000002  1.0000
  C   C9        1.0  0.6596  0.07105  0.08174  1.0000
  C   C10       1.0  0.047850000000000045  0.3181700000000001  0.9425700000000002  1.0000
  C   C11       1.0  0.16811000000000004  0.33832000000000007  0.15820000000000006  1.0000
  C   C12       1.0  0.7890000000000001  0.4252700000000001  0.9298500000000002  1.0000
  C   C13       1.0  0.17028999999999997  0.99782  0.7658400000000002  1.0000
  C   C14       1.0  0.28942  0.16345000000000012  0.8518300000000002  1.0000
  C   C15       1.0  0.9844499999999999  0.4332600000000001  0.8898300000000002  1.0000
  C   C16       1.0  0.89906  0.9750700000000001  0.8515400000000002  1.0000
  C   C17       1.0  0.87259  0.4682600000000001  0.8945600000000002  1.0000
  C   C18       1.0  0.6256100000000001  0.9495100000000002  0.6125400000000002  1.0000
  C   C19       1.0  0.46370000000000006  0.06654000000000003  0.12059000000000003  1.0000
  C   C20       1.0  0.6934599999999999  0.9159700000000003  0.66316  1.0000
  C   C21       1.0  0.8162899999999998  0.9273400000000005  0.77114  1.0000
  C   C22       1.0  0.1721900000000001  0.9371100000000002  0.6820500000000003  1.0000
  C   C23       1.0  0.29711000000000004  0.9547000000000003  0.5655200000000002  1.0000
  C   C24       1.0  0.7729900000000002  0.8366400000000004  0.7229700000000002  1.0000
  C   C25       1.0  0.57052  0.025570000000000006  0.11183000000000003  1.0000
  C   C26       1.0  0.21307  0.5560200000000001  0.3418400000000001  1.0000
  C   C27       1.0  0.31036  0.5645  0.29515000000000013  1.0000
  C   C28       1.0  0.69442  0.82929  0.65322  1.0000
  C   C29       1.0  0.14538  0.46574  0.3013  1.0000
  C   C30       1.0  0.41246  0.63999  0.3022300000000001  1.0000
  C   C31       1.0  0.5842  0.8066000000000001  0.9196500000000002  1.0000
  C   C32       1.0  0.50764  0.8653000000000002  0.9051600000000002  1.0000
  C   C33       1.0  0.74789  0.01686000000000003  0.35271000000000013  1.0000
  C   C34       1.0  0.7959199999999995  0.5754  0.76844  1.0000
  C   C35       1.0  0.33881  0.56612  0.04619  1.0000
  C   C36       1.0  0.75093  0.92244  0.22224  1.0000
  C   C37       1.0  0.21419000000000005  0.9412400000000002  0.9443300000000002  1.0000
  C   C38       1.0  0.03557999999999999  0.6292  0.07704000000000003  1.0000
  C   C39       1.0  0.34040000000000004  0.9289400000000003  0.9182600000000002  1.0000
  C   C40       1.0  0.95215  0.68183  0.05742000000000001  1.0000
  C   C41       1.0  0.8318899999999999  0.66168  0.8418  1.0000
  C   C42       1.0  0.211  0.57472  0.07015000000000003  1.0000
  C   C43       1.0  0.82971  0.002180000000000026  0.23416000000000006  1.0000
  C   C44       1.0  0.71058  0.83654  0.14817000000000005  1.0000
  C   C45       1.0  0.015550000000000057  0.5667300000000002  0.11017000000000003  1.0000
  C   C46       1.0  0.10094  0.024920000000000015  0.14845000000000005  1.0000
  C   C47       1.0  0.12741  0.53173  0.10544000000000003  1.0000
  C   C48       1.0  0.3744  0.05049000000000006  0.38746000000000014  1.0000
  C   C49       1.0  0.5363  0.93346  0.8794100000000002  1.0000
  C   C50       1.0  0.30655  0.08403  0.33684  1.0000
  C   C51       1.0  0.18371  0.07265000000000003  0.22886000000000006  1.0000
  C   C52       1.0  0.8278099999999999  0.06288000000000003  0.31795  1.0000
  C   C53       1.0  0.70289  0.04530000000000005  0.4344800000000001  1.0000
  C   C54       1.0  0.22700999999999996  0.16335999999999998  0.27703  1.0000
  C   C55       1.0  0.4294800000000001  0.9744300000000002  0.8881700000000002  1.0000
  C   C56       1.0  0.78694  0.4439700000000002  0.65815  1.0000
  C   C57       1.0  0.68964  0.43550000000000005  0.7048500000000002  1.0000
  C   C58       1.0  0.3055800000000001  0.1707000000000001  0.3467800000000001  1.0000
  C   C59       1.0  0.85462  0.5342600000000001  0.6987000000000002  1.0000
  C   C60       1.0  0.5875799999999999  0.3600000000000001  0.6977600000000003  1.0000
  O   O1        1.0  0.81804  0.98785  0.052260000000000015  1.0000
  O   O2        1.0  0.46953000000000006  0.24972000000000003  0.052330000000000015  1.0000
  O   O3        1.0  0.30247  0.18168  0.09507  1.0000
  O   O4        1.0  0.9260100000000001  0.9256400000000002  0.88656  1.0000
  O   O5        1.0  0.9996200000000001  0.26158000000000015  0.9700800000000003  1.0000
  O   O6        1.0  0.61295  0.13873  0.07196  1.0000
  O   O7        1.0  0.8443799999999999  0.36454000000000003  0.9468700000000002  1.0000
  O   O8        1.0  0.85013  0.11974000000000004  0.03829000000000001  1.0000
  O   O9        1.0  0.23724000000000003  0.1740100000000001  0.9187800000000003  1.0000
  O   O10       1.0  0.60123  0.3759700000000002  0.9769400000000003  1.0000
  O   O11       1.0  0.16347000000000003  0.3376800000000001  0.93133  1.0000
  O   O12       1.0  0.9385399999999999  0.05924000000000014  0.8787100000000002  1.0000
  O   O13       1.0  0.7686299999999999  0.9767000000000001  0.7350900000000002  1.0000
  O   O14       1.0  0.37568999999999997  0.22403000000000012  0.8487500000000002  1.0000
  O   O15       1.0  0.22471000000000002  0.3295000000000001  0.09281000000000003  1.0000
  O   O16       1.0  0.37632  0.011980000000000102  0.5496800000000002  1.0000
  O   O17       1.0  0.30628  0.4842200000000001  0.22810000000000005  1.0000
  O   O18       1.0  0.61869  0.49931  0.95029  1.0000
  O   O19       1.0  0.08143  0.27774  0.15982  1.0000
  O   O20       1.0  0.30019000000000007  0.06941000000000004  0.70522  1.0000
  O   O21       1.0  0.63759  0.034389999999999976  0.63645  1.0000
  O   O22       1.0  0.26191999999999993  0.87365  0.51182  1.0000
  O   O23       1.0  0.55633  0.88908  0.54654  1.0000
  O   O24       1.0  0.38952000000000003  0.7193400000000002  0.3519600000000001  1.0000
  O   O25       1.0  0.5059100000000001  0.6272800000000002  0.2646700000000001  1.0000
  O   O26       1.0  0.18196  0.012140000000000093  0.9477300000000002  1.0000
  O   O27       1.0  0.5304700000000001  0.7502700000000003  0.9476700000000002  1.0000
  O   O28       1.0  0.6975400000000002  0.81832  0.9049300000000002  1.0000
  O   O29       1.0  0.07399  0.07435  0.11344000000000003  1.0000
  O   O30       1.0  0.00038000000000001374  0.7384100000000001  0.029920000000000006  1.0000
  O   O31       1.0  0.38705000000000017  0.8612700000000003  0.9280400000000002  1.0000
  O   O32       1.0  0.15562  0.63545  0.05313000000000001  1.0000
  O   O33       1.0  0.1498700000000001  0.8802600000000004  0.9617100000000002  1.0000
  O   O34       1.0  0.7627599999999999  0.82599  0.08122  1.0000
  O   O35       1.0  0.39876999999999996  0.62402  0.02306  1.0000
  O   O36       1.0  0.83653  0.66231  0.06867  1.0000
  O   O37       1.0  0.06146000000000008  0.9407600000000003  0.12128000000000003  1.0000
  O   O38       1.0  0.23137  0.0233  0.2649  1.0000
  O   O39       1.0  0.62431  0.7759600000000001  0.15125  1.0000
  O   O40       1.0  0.77529  0.67049  0.9071800000000002  1.0000
  O   O41       1.0  0.62368  0.9880100000000002  0.4503100000000001  1.0000
  O   O42       1.0  0.69373  0.5157800000000001  0.7719000000000003  1.0000
  O   O43       1.0  0.38131  0.50069  0.049700000000000015  1.0000
  O   O44       1.0  0.91857  0.72226  0.84017  1.0000
  O   O45       1.0  0.69982  0.9305900000000001  0.2947800000000001  1.0000
  O   O46       1.0  0.36241  0.96561  0.36355  1.0000
  O   O47       1.0  0.73808  0.1263400000000001  0.4881800000000001  1.0000
  O   O48       1.0  0.44366999999999995  0.11092000000000006  0.4534600000000001  1.0000
  O   O49       1.0  0.61048  0.28066000000000024  0.6480400000000002  1.0000
  O   O50       1.0  0.49407  0.3727100000000001  0.7353400000000002  1.0000
