data_image0
_chemical_formula_structural       Zn8H16C48S8O32
_chemical_formula_sum              "Zn8 H16 C48 S8 O32"
_cell_length_a       10.23499
_cell_length_b       13.11055
_cell_length_c       14.45101
_cell_angle_alpha    90.0
_cell_angle_beta     90.0
_cell_angle_gamma    90.0

_symmetry_space_group_name_H-M    'P 1'
_symmetry_Int_Tables_number       1

loop_
  _symmetry_equiv_pos_as_xyz
  'x,y,z'

loop_
  _atom_site_type_symbol
  _atom_site_label
  _atom_site_symmetry_multiplicity
  _atom_site_fract_x
  _atom_site_fract_y
  _atom_site_fract_z
  _atom_site_occupancy
  Zn  Zn1       1.0  0.11304  0.93225  0.2865  1.0000
  Zn  Zn2       1.0  0.08639  0.24406  0.25676  1.0000
  Zn  Zn3       1.0  0.38698  0.06776  0.7865  1.0000
  Zn  Zn4       1.0  0.41361  0.75594  0.75675  1.0000
  Zn  Zn5       1.0  0.8869799999999999  0.43225  0.2135  1.0000
  Zn  Zn6       1.0  0.91361  0.74407  0.24324  1.0000
  Zn  Zn7       1.0  0.61304  0.56776  0.7135  1.0000
  Zn  Zn8       1.0  0.58639  0.25594  0.74324  1.0000
  H   H1        1.0  0.5142599999999999  0.9433300000000001  0.30726  1.0000
  H   H2        1.0  0.76294  0.00162  0.29146000000000005  1.0000
  H   H3        1.0  0.6750099999999999  0.7734  0.45418  1.0000
  H   H4        1.0  0.5005  0.86675  0.56101  1.0000
  H   H5        1.0  0.98575  0.05668  0.80726  1.0000
  H   H6        1.0  0.73707  0.99839  0.79146  1.0000
  H   H7        1.0  0.825  0.22661  0.95417  1.0000
  H   H8        1.0  0.9995199999999999  0.13325  0.06102  1.0000
  H   H9        1.0  0.48575  0.44333  0.19274  1.0000
  H   H10       1.0  0.23705999999999997  0.50161  0.20854  1.0000
  H   H11       1.0  0.3249999999999999  0.27339  0.04583  1.0000
  H   H12       1.0  0.49951  0.36675  0.93898  1.0000
  H   H13       1.0  0.014259999999999997  0.55667  0.69274  1.0000
  H   H14       1.0  0.26294  0.49839000000000006  0.70854  1.0000
  H   H15       1.0  0.17501  0.7266000000000001  0.54582  1.0000
  H   H16       1.0  0.00049  0.63325  0.43898000000000004  1.0000
  C   C1        1.0  0.46079999999999993  0.09936000000000002  0.27232  1.0000
  C   C2        1.0  0.5471499999999999  0.01951  0.28927  1.0000
  C   C3        1.0  0.67852  0.05001  0.28053  1.0000
  C   C4        1.0  0.6905399999999999  0.15216  0.25654  1.0000
  C   C5        1.0  0.31733999999999996  0.0972  0.27783  1.0000
  C   C6        1.0  0.80926  0.21406  0.24663  1.0000
  C   C7        1.0  0.797  0.9083  0.46918  1.0000
  C   C8        1.0  0.6862199999999999  0.8487800000000001  0.48427  1.0000
  C   C9        1.0  0.59403  0.8984400000000001  0.54041  1.0000
  C   C10       1.0  0.63671  0.99453  0.56808  1.0000
  C   C11       1.0  0.90444  0.88326  0.40612  1.0000
  C   C12       1.0  0.57081  0.06262  0.63365  1.0000
  C   C13       1.0  0.0392  0.90065  0.77232  1.0000
  C   C14       1.0  0.95285  0.98049  0.78927  1.0000
  C   C15       1.0  0.8214799999999998  0.9500000000000001  0.78053  1.0000
  C   C16       1.0  0.8094599999999998  0.84784  0.75654  1.0000
  C   C17       1.0  0.18265999999999996  0.90278  0.77782  1.0000
  C   C18       1.0  0.69075  0.78594  0.74663  1.0000
  C   C19       1.0  0.703  0.0917  0.96918  1.0000
  C   C20       1.0  0.8137899999999999  0.15123  0.98427  1.0000
  C   C21       1.0  0.90598  0.10156  0.04042  1.0000
  C   C22       1.0  0.8633  0.00547  0.06808  1.0000
  C   C23       1.0  0.5955599999999999  0.11674  0.90611  1.0000
  C   C24       1.0  0.9291899999999998  0.93738  0.13365  1.0000
  C   C25       1.0  0.5392  0.59936  0.22768  1.0000
  C   C26       1.0  0.45285  0.51951  0.21073  1.0000
  C   C27       1.0  0.32147999999999993  0.55001  0.21947000000000003  1.0000
  C   C28       1.0  0.30946  0.65217  0.24346  1.0000
  C   C29       1.0  0.68266  0.59723  0.22218  1.0000
  C   C30       1.0  0.19074  0.71406  0.25336  1.0000
  C   C31       1.0  0.203  0.4083  0.03082  1.0000
  C   C32       1.0  0.31379  0.34877  0.01573  1.0000
  C   C33       1.0  0.40596999999999994  0.39844  0.95958  1.0000
  C   C34       1.0  0.36329  0.49453  0.93192  1.0000
  C   C35       1.0  0.09555999999999999  0.38327  0.09388  1.0000
  C   C36       1.0  0.42919  0.56263  0.86635  1.0000
  C   C37       1.0  0.9607999999999999  0.40065  0.72768  1.0000
  C   C38       1.0  0.047149999999999984  0.48049000000000003  0.71073  1.0000
  C   C39       1.0  0.17852  0.44999  0.71947  1.0000
  C   C40       1.0  0.19053999999999996  0.34784  0.74346  1.0000
  C   C41       1.0  0.8173499999999998  0.4028  0.72217  1.0000
  C   C42       1.0  0.30924999999999997  0.28594  0.75336  1.0000
  C   C43       1.0  0.29699999999999993  0.5917  0.53082  1.0000
  C   C44       1.0  0.18622  0.65123  0.51573  1.0000
  C   C45       1.0  0.09403  0.60157  0.45959  1.0000
  C   C46       1.0  0.13669999999999996  0.50547  0.4319200000000001  1.0000
  C   C47       1.0  0.40444  0.61674  0.59388  1.0000
  C   C48       1.0  0.07081  0.43738  0.36635  1.0000
  S   S1        1.0  0.54047  0.2109  0.24353  1.0000
  S   S2        1.0  0.78825  0.025  0.52391  1.0000
  S   S3        1.0  0.95954  0.7891  0.7435299999999999  1.0000
  S   S4        1.0  0.71175  0.97499  0.02391  1.0000
  S   S5        1.0  0.45953999999999995  0.7109  0.25646  1.0000
  S   S6        1.0  0.21175  0.52501  0.97608  1.0000
  S   S7        1.0  0.04046  0.2891  0.75646  1.0000
  S   S8        1.0  0.28825  0.47500000000000003  0.47609  1.0000
  O   O1        1.0  0.26623  0.01628  0.3101400000000001  1.0000
  O   O2        1.0  0.79177  0.30305  0.21287000000000003  1.0000
  O   O3        1.0  0.98461  0.95481  0.38496  1.0000
  O   O4        1.0  0.46212  0.031000000000000007  0.6665300000000001  1.0000
  O   O5        1.0  0.25811  0.17767  0.24997  1.0000
  O   O6        1.0  0.90853  0.79238  0.37424  1.0000
  O   O7        1.0  0.6294999999999998  0.14632  0.65375  1.0000
  O   O8        1.0  0.9179899999999999  0.17545  0.27334  1.0000
  O   O9        1.0  0.23377  0.98373  0.81013  1.0000
  O   O10       1.0  0.7082299999999998  0.69695  0.71286  1.0000
  O   O11       1.0  0.5154  0.045200000000000004  0.88495  1.0000
  O   O12       1.0  0.03787999999999999  0.96901  0.16653  1.0000
  O   O13       1.0  0.24188999999999994  0.82233  0.7499800000000001  1.0000
  O   O14       1.0  0.5914699999999999  0.20763  0.87423  1.0000
  O   O15       1.0  0.8705  0.85369  0.15375  1.0000
  O   O16       1.0  0.58202  0.8245500000000002  0.77334  1.0000
  O   O17       1.0  0.7337699999999999  0.51627  0.18987  1.0000
  O   O18       1.0  0.20822999999999997  0.8030500000000002  0.28713  1.0000
  O   O19       1.0  0.015389999999999996  0.4548  0.11505  1.0000
  O   O20       1.0  0.53788  0.531  0.83347  1.0000
  O   O21       1.0  0.7418899999999999  0.67768  0.25002  1.0000
  O   O22       1.0  0.09147  0.29237  0.12576  1.0000
  O   O23       1.0  0.37049999999999994  0.64632  0.8462500000000001  1.0000
  O   O24       1.0  0.08202  0.67545  0.22666  1.0000
  O   O25       1.0  0.76623  0.48372  0.68986  1.0000
  O   O26       1.0  0.29177  0.19696000000000002  0.78713  1.0000
  O   O27       1.0  0.48460999999999993  0.5452  0.61504  1.0000
  O   O28       1.0  0.9621299999999999  0.469  0.33347  1.0000
  O   O29       1.0  0.75811  0.32233  0.75002  1.0000
  O   O30       1.0  0.40852999999999995  0.70762  0.62576  1.0000
  O   O31       1.0  0.1295  0.35368  0.34625  1.0000
  O   O32       1.0  0.41799  0.32455  0.72665  1.0000
