data_image0
_chemical_formula_structural       Mg12H32C56N8O40
_chemical_formula_sum              "Mg12 H32 C56 N8 O40"
_cell_length_a       11.1241
_cell_length_b       14.09282
_cell_length_c       17.37464
_cell_angle_alpha    89.97021
_cell_angle_beta     106.0707
_cell_angle_gamma    90.01400999999998

_space_group_name_H-M_alt    "P 1"
_space_group_IT_number       1

loop_
  _space_group_symop_operation_xyz
  'x, y, z'

loop_
  _atom_site_type_symbol
  _atom_site_label
  _atom_site_symmetry_multiplicity
  _atom_site_fract_x
  _atom_site_fract_y
  _atom_site_fract_z
  _atom_site_occupancy
  Mg  Mg1       1.0  0.95292  0.4659200000000001  0.90805  1.0000
  Mg  Mg2       1.0  0.24909  0.59029  0.9994500000000001  1.0000
  Mg  Mg3       1.0  0.45263999999999993  0.53369  0.90879  1.0000
  Mg  Mg4       1.0  0.54643  0.96604  0.5919  1.0000
  Mg  Mg5       1.0  0.25139  0.09  0.5005700000000001  1.0000
  Mg  Mg6       1.0  0.04651999999999999  0.03397  0.59112  1.0000
  Mg  Mg7       1.0  0.047070000000000015  0.53408  0.09195000000000003  1.0000
  Mg  Mg8       1.0  0.7508999999999999  0.40971000000000013  0.00054  1.0000
  Mg  Mg9       1.0  0.5473499999999999  0.4663100000000001  0.09121  1.0000
  Mg  Mg10      1.0  0.4535599999999999  0.03395  0.4081  1.0000
  Mg  Mg11      1.0  0.7485999999999999  0.9100000000000003  0.49943000000000004  1.0000
  Mg  Mg12      1.0  0.95347  0.9660300000000003  0.40888  1.0000
  H   H1        1.0  0.62332  0.71439  0.7567  1.0000
  H   H2        1.0  0.93158  0.69101  0.65302  1.0000
  H   H3        1.0  0.019509999999999996  0.5608800000000002  0.75316  1.0000
  H   H4        1.0  0.48175  0.64065  0.04385  1.0000
  H   H5        1.0  0.01726999999999993  0.64085  0.95559  1.0000
  H   H6        1.0  0.12332  0.28867  0.7535  1.0000
  H   H7        1.0  0.44806  0.29623  0.66432  1.0000
  H   H8        1.0  0.5335100000000002  0.42774  0.7629600000000002  1.0000
  H   H9        1.0  0.87594  0.21439  0.74339  1.0000
  H   H10       1.0  0.5679899999999999  0.19077  0.84737  1.0000
  H   H11       1.0  0.47983  0.06079  0.74722  1.0000
  H   H12       1.0  0.019499999999999972  0.14023  0.45566  1.0000
  H   H13       1.0  0.4817900000000001  0.14027  0.5446500000000002  1.0000
  H   H14       1.0  0.37578  0.78831  0.74621  1.0000
  H   H15       1.0  0.05175000000000013  0.79608  0.8359600000000003  1.0000
  H   H16       1.0  0.9662199999999997  0.9277800000000003  0.7374  1.0000
  H   H17       1.0  0.37666999999999995  0.28561  0.24330000000000002  1.0000
  H   H18       1.0  0.06841  0.30898  0.34697  1.0000
  H   H19       1.0  0.98048  0.43911  0.24684000000000003  1.0000
  H   H20       1.0  0.51824  0.35934  0.9561500000000002  1.0000
  H   H21       1.0  0.98272  0.3591400000000001  0.04441000000000001  1.0000
  H   H22       1.0  0.87667  0.71133  0.24650000000000002  1.0000
  H   H23       1.0  0.55193  0.7037700000000002  0.33568  1.0000
  H   H24       1.0  0.46648000000000006  0.57226  0.23704  1.0000
  H   H25       1.0  0.12404999999999998  0.7856  0.25661  1.0000
  H   H26       1.0  0.432  0.8092300000000002  0.15263  1.0000
  H   H27       1.0  0.52016  0.93921  0.2527800000000001  1.0000
  H   H28       1.0  0.98049  0.8597700000000001  0.54434  1.0000
  H   H29       1.0  0.5182  0.8597200000000002  0.45535  1.0000
  H   H30       1.0  0.6242099999999999  0.21169  0.25379  1.0000
  H   H31       1.0  0.94824  0.20391  0.16403000000000006  1.0000
  H   H32       1.0  0.033770000000000036  0.07222  0.2626000000000001  1.0000
  C   C1        1.0  0.76382  0.6079600000000002  0.80547  1.0000
  C   C2        1.0  0.71076  0.6820400000000001  0.75378  1.0000
  C   C3        1.0  0.77298  0.71378  0.6987  1.0000
  C   C4        1.0  0.8838599999999999  0.66837  0.69666  1.0000
  C   C5        1.0  0.9320099999999999  0.59647  0.75153  1.0000
  C   C6        1.0  0.70231  0.56655  0.86525  1.0000
  C   C7        1.0  0.72475  0.7955600000000002  0.64201  1.0000
  C   C8        1.0  0.2669  0.39167000000000013  0.80517  1.0000
  C   C9        1.0  0.21405  0.3176200000000001  0.75351  1.0000
  C   C10       1.0  0.28084999999999993  0.2815  0.70257  1.0000
  C   C11       1.0  0.3962  0.3225300000000001  0.7045  1.0000
  C   C12       1.0  0.44297  0.39540000000000003  0.75858  1.0000
  C   C13       1.0  0.20281  0.4346700000000001  0.86285  1.0000
  C   C14       1.0  0.23207  0.20012  0.64576  1.0000
  C   C15       1.0  0.73528  0.10810000000000002  0.6947  1.0000
  C   C16       1.0  0.78847  0.18208000000000005  0.74639  1.0000
  C   C17       1.0  0.7262999999999998  0.21371  0.80149  1.0000
  C   C18       1.0  0.61544  0.16828000000000007  0.80357  1.0000
  C   C19       1.0  0.5673  0.09636  0.74879  1.0000
  C   C20       1.0  0.79645  0.06731  0.63453  1.0000
  C   C21       1.0  0.77441  0.29549  0.8580500000000002  1.0000
  C   C22       1.0  0.23245  0.8916100000000002  0.69476  1.0000
  C   C23       1.0  0.28527  0.81747  0.74632  1.0000
  C   C24       1.0  0.21873000000000004  0.78133  0.7974100000000002  1.0000
  C   C25       1.0  0.10355  0.82241  0.79573  1.0000
  C   C26       1.0  0.05661999999999999  0.89529  0.74162  1.0000
  C   C27       1.0  0.29657  0.9347000000000002  0.63712  1.0000
  C   C28       1.0  0.26785  0.69981  0.85401  1.0000
  C   C29       1.0  0.23617  0.39203  0.19453  1.0000
  C   C30       1.0  0.28923  0.3179500000000001  0.24622000000000002  1.0000
  C   C31       1.0  0.22700999999999996  0.28622  0.3013  1.0000
  C   C32       1.0  0.11613000000000004  0.33162  0.3033300000000001  1.0000
  C   C33       1.0  0.06798  0.4035300000000001  0.24846000000000001  1.0000
  C   C34       1.0  0.29768  0.4334500000000001  0.13475  1.0000
  C   C35       1.0  0.27524  0.20443  0.35798  1.0000
  C   C36       1.0  0.7330899999999999  0.60833  0.19483000000000003  1.0000
  C   C37       1.0  0.78594  0.68237  0.24649000000000001  1.0000
  C   C38       1.0  0.71914  0.71849  0.29743000000000014  1.0000
  C   C39       1.0  0.6037899999999999  0.67746  0.2955  1.0000
  C   C40       1.0  0.55702  0.6045900000000002  0.24142  1.0000
  C   C41       1.0  0.7971799999999999  0.56532  0.13715000000000005  1.0000
  C   C42       1.0  0.76792  0.79987  0.35424  1.0000
  C   C43       1.0  0.26471  0.89189  0.30529  1.0000
  C   C44       1.0  0.21152  0.81791  0.2536  1.0000
  C   C45       1.0  0.27369  0.7862800000000001  0.19851  1.0000
  C   C46       1.0  0.38455  0.83172  0.19642000000000007  1.0000
  C   C47       1.0  0.43269  0.9036300000000003  0.2512100000000001  1.0000
  C   C48       1.0  0.20353999999999997  0.93268  0.36547  1.0000
  C   C49       1.0  0.22558  0.7045100000000001  0.14195  1.0000
  C   C50       1.0  0.7675399999999999  0.10839000000000003  0.3052400000000001  1.0000
  C   C51       1.0  0.7147199999999999  0.18253  0.25368  1.0000
  C   C52       1.0  0.78126  0.21867  0.20259000000000002  1.0000
  C   C53       1.0  0.89644  0.17758000000000004  0.20426  1.0000
  C   C54       1.0  0.9433700000000002  0.10471  0.25837000000000004  1.0000
  C   C55       1.0  0.70342  0.06529  0.36288  1.0000
  C   C56       1.0  0.73214  0.30019  0.14599  1.0000
  N   N1        1.0  0.87428  0.56715  0.80578  1.0000
  N   N2        1.0  0.38048  0.42922  0.80871  1.0000
  N   N3        1.0  0.62491  0.06713  0.69449  1.0000
  N   N4        1.0  0.11892  0.9291300000000002  0.69133  1.0000
  N   N5        1.0  0.12571  0.43284000000000006  0.19422  1.0000
  N   N6        1.0  0.61951  0.57078  0.19129  1.0000
  N   N7        1.0  0.37508000000000014  0.9328700000000001  0.30551000000000006  1.0000
  N   N8        1.0  0.88107  0.07086  0.30866  1.0000
  O   O1        1.0  0.7718399999999999  0.51161  0.9176700000000001  1.0000
  O   O2        1.0  0.5897799999999999  0.58623  0.85923  1.0000
  O   O3        1.0  0.63965  0.84695  0.65583  1.0000
  O   O4        1.0  0.77635  0.80536  0.58574  1.0000
  O   O5        1.0  0.4471  0.58015  0.02179  1.0000
  O   O6        1.0  0.05038000000000007  0.5798500000000002  0.97743  1.0000
  O   O7        1.0  0.2730199999999999  0.48537000000000013  0.91842  1.0000
  O   O8        1.0  0.08813999999999994  0.41914  0.8529  1.0000
  O   O9        1.0  0.14561000000000004  0.14963  0.6589900000000002  1.0000
  O   O10       1.0  0.28438  0.19031000000000006  0.58983  1.0000
  O   O11       1.0  0.72644  0.013300000000000001  0.58168  1.0000
  O   O12       1.0  0.90908  0.08655  0.64058  1.0000
  O   O13       1.0  0.85993  0.34668  0.84436  1.0000
  O   O14       1.0  0.72206  0.30538  0.91403  1.0000
  O   O15       1.0  0.054240000000000003  0.07989  0.47805  1.0000
  O   O16       1.0  0.44859  0.07941  0.52259  1.0000
  O   O17       1.0  0.22604  0.98548  0.58168  1.0000
  O   O18       1.0  0.41124  0.91905  0.64709  1.0000
  O   O19       1.0  0.35272999999999993  0.6483800000000002  0.84007  1.0000
  O   O20       1.0  0.21732000000000007  0.69059  0.91081  1.0000
  O   O21       1.0  0.22815  0.4883900000000001  0.08233000000000003  1.0000
  O   O22       1.0  0.41021  0.41376  0.14076  1.0000
  O   O23       1.0  0.36034  0.15304000000000006  0.34417  1.0000
  O   O24       1.0  0.22364000000000006  0.19463  0.41426000000000013  1.0000
  O   O25       1.0  0.55289  0.41984  0.9782000000000001  1.0000
  O   O26       1.0  0.94961  0.42015000000000013  0.02257  1.0000
  O   O27       1.0  0.72697  0.51462  0.08158000000000003  1.0000
  O   O28       1.0  0.91185  0.5808500000000002  0.1471  1.0000
  O   O29       1.0  0.8543799999999999  0.85037  0.34101  1.0000
  O   O30       1.0  0.71561  0.80969  0.41017  1.0000
  O   O31       1.0  0.27355000000000007  0.98669  0.41832000000000014  1.0000
  O   O32       1.0  0.09091000000000009  0.91344  0.3594100000000001  1.0000
  O   O33       1.0  0.14007  0.65331  0.15564000000000006  1.0000
  O   O34       1.0  0.27793  0.69461  0.08597  1.0000
  O   O35       1.0  0.9457499999999999  0.92011  0.52195  1.0000
  O   O36       1.0  0.5514  0.9205800000000002  0.47741  1.0000
  O   O37       1.0  0.77395  0.014510000000000004  0.41832000000000014  1.0000
  O   O38       1.0  0.58875  0.08095000000000002  0.35291  1.0000
  O   O39       1.0  0.6472599999999998  0.35162000000000004  0.15993  1.0000
  O   O40       1.0  0.7826699999999999  0.3094  0.08919  1.0000
