data_image0
_chemical_formula_structural       Zn3H50C48N18O20
_chemical_formula_sum              "Zn3 H50 C48 N18 O20"
_cell_length_a       12.61023
_cell_length_b       13.089160000000001
_cell_length_c       12.89594
_cell_angle_alpha    78.70841
_cell_angle_beta     62.26405999999999
_cell_angle_gamma    62.09667

_symmetry_space_group_name_H-M    'P 1'
_symmetry_Int_Tables_number       1

loop_
  _symmetry_equiv_pos_as_xyz
  'x,y,z'

loop_
  _atom_site_type_symbol
  _atom_site_label
  _atom_site_symmetry_multiplicity
  _atom_site_fract_x
  _atom_site_fract_y
  _atom_site_fract_z
  _atom_site_occupancy
  Zn  Zn1       1.0  0.6529199999999998  0.13631  0.40139  1.0000
  Zn  Zn2       1.0  0.34707000000000005  0.86369  0.59861  1.0000
  Zn  Zn3       1.0  0.0  0.0  0.0  1.0000
  H   H1        1.0  0.08120999999999996  0.8396499999999999  0.8751700000000001  1.0000
  H   H2        1.0  0.97612  0.18018  0.56264  1.0000
  H   H3        1.0  0.8175299999999999  0.9388399999999999  0.60376  1.0000
  H   H4        1.0  0.67854  0.11385999999999993  0.72255  1.0000
  H   H5        1.0  0.7185099999999999  0.23338  0.67338  1.0000
  H   H6        1.0  0.9507700000000001  0.9699599999999998  0.7769100000000001  1.0000
  H   H7        1.0  0.6174800000000003  0.9209699999999997  0.58269  1.0000
  H   H8        1.0  0.33882  0.9549  0.8668  1.0000
  H   H9        1.0  0.5101000000000001  0.8593  0.79053  1.0000
  H   H10       1.0  0.26631  0.08607  0.02541  1.0000
  H   H11       1.0  0.6812399999999998  0.86357  0.83243  1.0000
  H   H12       1.0  0.8996499999999998  0.77575  0.17074  1.0000
  H   H13       1.0  0.02042000000000006  0.7817099999999999  0.19814  1.0000
  H   H14       1.0  0.77421  0.7485799999999998  0.38314  1.0000
  H   H15       1.0  0.8827499999999999  0.7698599999999999  0.41866000000000003  1.0000
  H   H16       1.0  0.94076  0.37741  0.20438000000000003  1.0000
  H   H17       1.0  0.04242  0.25975  0.26178  1.0000
  H   H18       1.0  0.8486500000000001  0.32024  0.46611  1.0000
  H   H19       1.0  0.7475500000000002  0.4243199999999999  0.4009  1.0000
  H   H20       1.0  0.24970999999999993  0.46163  0.43574000000000007  1.0000
  H   H21       1.0  0.27535  0.31919  0.41745  1.0000
  H   H22       1.0  0.38805999999999996  0.34439999999999993  0.19389  1.0000
  H   H23       1.0  0.3917499999999999  0.4678  0.22553  1.0000
  H   H24       1.0  0.39878  0.28164  0.64623  1.0000
  H   H25       1.0  0.2770900000000001  0.75832  0.96913  1.0000
  H   H26       1.0  0.91879  0.16036  0.12483  1.0000
  H   H27       1.0  0.023880000000000012  0.81983  0.43735000000000007  1.0000
  H   H28       1.0  0.18246999999999997  0.06116  0.39624  1.0000
  H   H29       1.0  0.3214600000000001  0.8861499999999998  0.27745  1.0000
  H   H30       1.0  0.2814899999999999  0.76662  0.32661  1.0000
  H   H31       1.0  0.04922999999999999  0.03004  0.22309  1.0000
  H   H32       1.0  0.38251999999999997  0.07903  0.41731  1.0000
  H   H33       1.0  0.6611799999999998  0.0451  0.13319  1.0000
  H   H34       1.0  0.4899  0.1407  0.20947000000000002  1.0000
  H   H35       1.0  0.73369  0.9139299999999998  0.9745900000000001  1.0000
  H   H36       1.0  0.3187599999999999  0.13643  0.16757  1.0000
  H   H37       1.0  0.10034999999999997  0.22425  0.8292600000000001  1.0000
  H   H38       1.0  0.97958  0.21829  0.80186  1.0000
  H   H39       1.0  0.2257900000000001  0.2514199999999999  0.61686  1.0000
  H   H40       1.0  0.11724999999999994  0.23013999999999998  0.58134  1.0000
  H   H41       1.0  0.05924000000000003  0.62259  0.79562  1.0000
  H   H42       1.0  0.9575699999999999  0.7402499999999999  0.7382099999999999  1.0000
  H   H43       1.0  0.15135000000000015  0.6797599999999999  0.53388  1.0000
  H   H44       1.0  0.2524500000000001  0.57569  0.5991  1.0000
  H   H45       1.0  0.7502899999999999  0.5383699999999999  0.56426  1.0000
  H   H46       1.0  0.7246499999999999  0.68081  0.58255  1.0000
  H   H47       1.0  0.6119400000000002  0.6556  0.80611  1.0000
  H   H48       1.0  0.60825  0.5322  0.7744700000000001  1.0000
  H   H49       1.0  0.6012200000000001  0.7183599999999999  0.35377000000000003  1.0000
  H   H50       1.0  0.72291  0.24169  0.03086  1.0000
  C   C1        1.0  0.98678  0.10108  0.53521  1.0000
  C   C2        1.0  0.88226  0.06841  0.59389  1.0000
  C   C3        1.0  0.8967199999999999  0.96653  0.55815  1.0000
  C   C4        1.0  0.75716  0.14178999999999997  0.69533  1.0000
  C   C5        1.0  0.75821  0.19086999999999998  0.95453  1.0000
  C   C6        1.0  0.87584  0.05045  0.82661  1.0000
  C   C7        1.0  0.43535000000000007  0.1891  0.65811  1.0000
  C   C8        1.0  0.5481  0.00618  0.62335  1.0000
  C   C9        1.0  0.44063  0.94552  0.83123  1.0000
  C   C10       1.0  0.47031000000000006  0.9701799999999999  0.92153  1.0000
  C   C11       1.0  0.36815  0.04757  0.01552  1.0000
  C   C12       1.0  0.60206  0.9231399999999998  0.90619  1.0000
  C   C13       1.0  0.8338699999999999  0.93168  0.25761  1.0000
  C   C14       1.0  0.91445  0.8016799999999997  0.23719  1.0000
  C   C15       1.0  0.8759999999999998  0.73741  0.35122000000000003  1.0000
  C   C16       1.0  0.92188  0.54083  0.31144  1.0000
  C   C17       1.0  0.07344999999999997  0.57079  0.35939  1.0000
  C   C18       1.0  0.11064999999999989  0.37235  0.33333  1.0000
  C   C19       1.0  0.9586799999999999  0.34542  0.28243  1.0000
  C   C20       1.0  0.8349600000000001  0.34053999999999995  0.38513  1.0000
  C   C21       1.0  0.8046599999999999  0.24897999999999998  0.36453  1.0000
  C   C22       1.0  0.26494999999999996  0.4022  0.37581  1.0000
  C   C23       1.0  0.3889  0.38518999999999987  0.26045  1.0000
  C   C24       1.0  0.51751  0.30485  0.27306  1.0000
  C   C25       1.0  0.013219999999999937  0.89892  0.46479  1.0000
  C   C26       1.0  0.11773999999999994  0.93159  0.4061100000000001  1.0000
  C   C27       1.0  0.10328000000000004  0.033479999999999996  0.44184999999999997  1.0000
  C   C28       1.0  0.24283999999999992  0.85821  0.30466  1.0000
  C   C29       1.0  0.24178999999999995  0.8091399999999999  0.045470000000000003  1.0000
  C   C30       1.0  0.12416000000000021  0.9495499999999998  0.17339  1.0000
  C   C31       1.0  0.56465  0.8109099999999998  0.34188  1.0000
  C   C32       1.0  0.45189000000000007  0.9938199999999998  0.37665  1.0000
  C   C33       1.0  0.5593699999999998  0.05449  0.16876  1.0000
  C   C34       1.0  0.52969  0.029819999999999996  0.07847  1.0000
  C   C35       1.0  0.63185  0.9524299999999998  0.98448  1.0000
  C   C36       1.0  0.39794  0.07685999999999998  0.09381  1.0000
  C   C37       1.0  0.16612999999999994  0.06832  0.74239  1.0000
  C   C38       1.0  0.08554999999999996  0.19832  0.7628100000000001  1.0000
  C   C39       1.0  0.124  0.2626  0.64878  1.0000
  C   C40       1.0  0.07812  0.45917  0.68856  1.0000
  C   C41       1.0  0.9265500000000001  0.42922  0.64061  1.0000
  C   C42       1.0  0.8893500000000001  0.62765  0.66667  1.0000
  C   C43       1.0  0.041320000000000134  0.65459  0.7175699999999999  1.0000
  C   C44       1.0  0.16504000000000002  0.65946  0.61487  1.0000
  C   C45       1.0  0.19533000000000011  0.75102  0.63547  1.0000
  C   C46       1.0  0.7350500000000001  0.5978  0.62419  1.0000
  C   C47       1.0  0.6110999999999996  0.61481  0.7395400000000001  1.0000
  C   C48       1.0  0.4824899999999996  0.69515  0.7269400000000001  1.0000
  N   N1        1.0  0.9614499999999995  0.61159  0.3388  1.0000
  N   N2        1.0  0.14327  0.45059999999999995  0.35776  1.0000
  N   N3        1.0  0.0004000000000000264  0.42198  0.30878  1.0000
  N   N4        1.0  0.53642  0.10774  0.57139  1.0000
  N   N5        1.0  0.3840899999999999  0.14341  0.75984  1.0000
  N   N6        1.0  0.4573399999999999  0.02727999999999999  0.7358599999999998  1.0000
  N   N7        1.0  0.8623899999999999  0.08276999999999998  0.92613  1.0000
  N   N8        1.0  0.7062  0.22656  0.87765  1.0000
  N   N9        1.0  0.7829099999999998  0.13672999999999996  0.7969  1.0000
  N   N10       1.0  0.03855000000000003  0.38840999999999987  0.6612  1.0000
  N   N11       1.0  0.85673  0.5494  0.64224  1.0000
  N   N12       1.0  0.9995999999999999  0.57803  0.69121  1.0000
  N   N13       1.0  0.46357999999999994  0.89227  0.42861  1.0000
  N   N14       1.0  0.6159099999999997  0.8566  0.24016000000000004  1.0000
  N   N15       1.0  0.5426600000000001  0.9727299999999999  0.26414  1.0000
  N   N16       1.0  0.13761  0.91723  0.07387  1.0000
  N   N17       1.0  0.29379  0.7734399999999999  0.12235  1.0000
  N   N18       1.0  0.21708999999999998  0.86328  0.2031  1.0000
  O   O1        1.0  0.69488  0.24637999999999996  0.44239  1.0000
  O   O2        1.0  0.8844899999999998  0.18091999999999994  0.27681  1.0000
  O   O3        1.0  0.50672  0.22833  0.35385  1.0000
  O   O4        1.0  0.6223199999999998  0.31376  0.20573000000000002  1.0000
  O   O5        1.0  0.83919  0.00114  0.17419  1.0000
  O   O6        1.0  0.7575099999999996  0.9675  0.36529  1.0000
  O   O7        1.0  0.8236399999999999  0.58032  0.29204  1.0000
  O   O8        1.0  0.10747000000000005  0.63569  0.38  1.0000
  O   O9        1.0  0.17630000000000004  0.26710999999999996  0.33319  1.0000
  O   O10       1.0  0.03054999999999985  0.8524799999999999  0.96087  1.0000
  O   O11       1.0  0.30512  0.75362  0.5576  1.0000
  O   O12       1.0  0.11551  0.81908  0.72319  1.0000
  O   O13       1.0  0.49327999999999994  0.7716699999999999  0.64615  1.0000
  O   O14       1.0  0.3776799999999999  0.68624  0.79427  1.0000
  O   O15       1.0  0.16081000000000006  0.99887  0.82581  1.0000
  O   O16       1.0  0.24249000000000004  0.032499999999999994  0.63471  1.0000
  O   O17       1.0  0.17636000000000013  0.4196899999999999  0.70796  1.0000
  O   O18       1.0  0.89253  0.36430999999999997  0.62  1.0000
  O   O19       1.0  0.8236899999999999  0.73289  0.66681  1.0000
  O   O20       1.0  0.96945  0.14752  0.03913  1.0000
