data_image0
_chemical_formula_structural       Cd8H24C68O40
_chemical_formula_sum              "Cd8 H24 C68 O40"
_cell_length_a       10.29782
_cell_length_b       10.28322
_cell_length_c       20.810160000000003
_cell_angle_alpha    103.83019
_cell_angle_beta     103.99231
_cell_angle_gamma    94.31585

_symmetry_space_group_name_H-M    'P 1'
_symmetry_Int_Tables_number       1

loop_
  _symmetry_equiv_pos_as_xyz
  'x,y,z'

loop_
  _atom_site_type_symbol
  _atom_site_label
  _atom_site_symmetry_multiplicity
  _atom_site_fract_x
  _atom_site_fract_y
  _atom_site_fract_z
  _atom_site_occupancy
  Cd  Cd1       1.0  0.52412  0.62835  0.68412  1.0000
  Cd  Cd2       1.0  0.6220599999999997  0.7580299999999999  0.46623999999999993  1.0000
  Cd  Cd3       1.0  0.366  0.47183  0.81261  1.0000
  Cd  Cd4       1.0  0.24068  0.37452  0.03314  1.0000
  Cd  Cd5       1.0  0.47588  0.37166  0.31588  1.0000
  Cd  Cd6       1.0  0.37794999999999995  0.24197  0.53376  1.0000
  Cd  Cd7       1.0  0.6340099999999999  0.52818  0.18739  1.0000
  Cd  Cd8       1.0  0.75932  0.62548  0.96686  1.0000
  H   H1        1.0  0.7013599999999998  0.40452999999999995  0.56398  1.0000
  H   H2        1.0  0.06865000000000002  0.65488  0.5817  1.0000
  H   H3        1.0  0.53258  0.13899  0.68576  1.0000
  H   H4        1.0  0.08666999999999998  0.32832  0.67791  1.0000
  H   H5        1.0  0.9678199999999998  0.11389999999999997  0.6222199999999999  1.0000
  H   H6        1.0  0.8492599999999999  0.91157  0.6406299999999999  1.0000
  H   H7        1.0  0.5902599999999999  0.29705  0.93516  1.0000
  H   H8        1.0  0.3413300000000001  0.9270200000000001  0.9145900000000001  1.0000
  H   H9        1.0  0.8607699999999998  0.46908  0.81437  1.0000
  H   H10       1.0  0.66725  0.91506  0.81858  1.0000
  H   H11       1.0  0.88071  0.03210999999999995  0.87733  1.0000
  H   H12       1.0  0.08425  0.14949999999999994  0.85944  1.0000
  H   H13       1.0  0.29865  0.59548  0.43602  1.0000
  H   H14       1.0  0.93135  0.34512000000000004  0.41830000000000006  1.0000
  H   H15       1.0  0.46743  0.86102  0.31423  1.0000
  H   H16       1.0  0.91333  0.6716899999999999  0.32209  1.0000
  H   H17       1.0  0.03219000000000002  0.8861  0.37778  1.0000
  H   H18       1.0  0.15075  0.08843  0.35937  1.0000
  H   H19       1.0  0.40974  0.70296  0.06484  1.0000
  H   H20       1.0  0.65868  0.07299  0.08541  1.0000
  H   H21       1.0  0.13922999999999996  0.53093  0.18563  1.0000
  H   H22       1.0  0.33275  0.08494  0.18142  1.0000
  H   H23       1.0  0.11929999999999998  0.9678899999999999  0.12267  1.0000
  H   H24       1.0  0.91575  0.8505  0.14056  1.0000
  C   C1        1.0  0.6306299999999999  0.3775  0.66854  1.0000
  C   C2        1.0  0.8102099999999998  0.4302  0.58508  1.0000
  C   C3        1.0  0.8159  0.2409  0.64131  1.0000
  C   C4        1.0  0.016989999999999995  0.57062  0.59331  1.0000
  C   C5        1.0  0.8757099999999999  0.538  0.56991  1.0000
  C   C6        1.0  0.88419  0.35311  0.62458  1.0000
  C   C7        1.0  0.69027  0.24751  0.65878  1.0000
  C   C8        1.0  0.62639  0.13418  0.67052  1.0000
  C   C9        1.0  0.026169999999999975  0.38531  0.64714  1.0000
  C   C10       1.0  0.09166999999999995  0.49338000000000004  0.63225  1.0000
  C   C11       1.0  0.24230999999999997  0.52446  0.65784  1.0000
  C   C12       1.0  0.6839199999999999  0.013420000000000022  0.66426  1.0000
  C   C13       1.0  0.79078  0.61864  0.53077  1.0000
  C   C14       1.0  0.87365  0.11963000000000003  0.63712  1.0000
  C   C15       1.0  0.80765  0.006560000000000039  0.64695  1.0000
  C   C16       1.0  0.55505  0.0389  0.48882  1.0000
  C   C17       1.0  0.6119999999999999  0.8900299999999999  0.67361  1.0000
  C   C18       1.0  0.6211799999999997  0.37298999999999993  0.8315599999999999  1.0000
  C   C19       1.0  0.5651099999999999  0.18827000000000005  0.9131300000000001  1.0000
  C   C20       1.0  0.7552999999999996  0.18506  0.85779  1.0000
  C   C21       1.0  0.4253199999999997  0.9795200000000001  0.9032299999999999  1.0000
  C   C22       1.0  0.45758  0.12074999999999993  0.92758  1.0000
  C   C23       1.0  0.6422799999999999  0.11585999999999994  0.87341  1.0000
  C   C24       1.0  0.7500500000000001  0.31143999999999994  0.84072  1.0000
  C   C25       1.0  0.8640199999999999  0.37468  0.82927  1.0000
  C   C26       1.0  0.6102999999999998  0.97381  0.84983  1.0000
  C   C27       1.0  0.5024899999999999  0.9062699999999999  0.86399  1.0000
  C   C28       1.0  0.47224  0.7553999999999998  0.83746  1.0000
  C   C29       1.0  0.9837499999999998  0.3156  0.83537  1.0000
  C   C30       1.0  0.37729  0.20418999999999993  0.96733  1.0000
  C   C31       1.0  0.8761399999999998  0.12659999999999988  0.8625199999999998  1.0000
  C   C32       1.0  0.9896999999999999  0.19180000000000005  0.85295  1.0000
  C   C33       1.0  0.96149  0.44705  0.01269  1.0000
  C   C34       1.0  0.10710999999999993  0.38527000000000006  0.82517  1.0000
  C   C35       1.0  0.36936999999999987  0.62251  0.33146  1.0000
  C   C36       1.0  0.1897999999999999  0.5698  0.41491999999999996  1.0000
  C   C37       1.0  0.18409999999999999  0.75911  0.35869  1.0000
  C   C38       1.0  0.98302  0.42939  0.40669  1.0000
  C   C39       1.0  0.12429000000000001  0.462  0.43009  1.0000
  C   C40       1.0  0.11581999999999999  0.6469  0.37542  1.0000
  C   C41       1.0  0.30973  0.75249  0.34122  1.0000
  C   C42       1.0  0.3736099999999999  0.86582  0.32948  1.0000
  C   C43       1.0  0.9738399999999999  0.61469  0.35286  1.0000
  C   C44       1.0  0.9083299999999999  0.50663  0.36775  1.0000
  C   C45       1.0  0.7576999999999999  0.4755400000000001  0.34216  1.0000
  C   C46       1.0  0.31608  0.98659  0.33574  1.0000
  C   C47       1.0  0.20923000000000003  0.38137  0.46923  1.0000
  C   C48       1.0  0.12635  0.88037  0.36288  1.0000
  C   C49       1.0  0.19234999999999994  0.9934400000000001  0.35305  1.0000
  C   C50       1.0  0.4449499999999999  0.96111  0.51118  1.0000
  C   C51       1.0  0.38801  0.10997999999999998  0.32639  1.0000
  C   C52       1.0  0.3788299999999999  0.62702  0.16844  1.0000
  C   C53       1.0  0.43489  0.8117399999999999  0.08687  1.0000
  C   C54       1.0  0.24471  0.81494  0.14221  1.0000
  C   C55       1.0  0.5746899999999999  0.020479999999999995  0.09677  1.0000
  C   C56       1.0  0.5424199999999999  0.8792599999999999  0.07242  1.0000
  C   C57       1.0  0.35772  0.88414  0.12659  1.0000
  C   C58       1.0  0.24994999999999995  0.68857  0.15928  1.0000
  C   C59       1.0  0.13599  0.62532  0.17073  1.0000
  C   C60       1.0  0.38969999999999994  0.026190000000000005  0.15017  1.0000
  C   C61       1.0  0.49751  0.09374  0.13601  1.0000
  C   C62       1.0  0.52777  0.24459999999999998  0.16254  1.0000
  C   C63       1.0  0.016249999999999983  0.6844  0.16463  1.0000
  C   C64       1.0  0.6227199999999999  0.79581  0.03267  1.0000
  C   C65       1.0  0.12385999999999998  0.8734100000000001  0.13748  1.0000
  C   C66       1.0  0.010309999999999984  0.80821  0.14705  1.0000
  C   C67       1.0  0.03851999999999992  0.55296  0.9873099999999999  1.0000
  C   C68       1.0  0.8928899999999999  0.61474  0.17483  1.0000
  O   O1        1.0  0.64383  0.97442  0.46755  1.0000
  O   O2        1.0  0.55187  0.16299999999999995  0.4927599999999999  1.0000
  O   O3        1.0  0.6954  0.48131  0.71388  1.0000
  O   O4        1.0  0.51357  0.38263  0.62967  1.0000
  O   O5        1.0  0.6749  0.78546  0.67202  1.0000
  O   O6        1.0  0.8437299999999999  0.72085  0.51634  1.0000
  O   O7        1.0  0.30523  0.46027  0.69813  1.0000
  O   O8        1.0  0.30088  0.61124  0.63569  1.0000
  O   O9        1.0  0.66228  0.58416  0.51312  1.0000
  O   O10       1.0  0.4949299999999999  0.8901  0.68188  1.0000
  O   O11       1.0  0.025349999999999987  0.35842  0.03489  1.0000
  O   O12       1.0  0.83844  0.45373  0.01015  1.0000
  O   O13       1.0  0.51647  0.31003  0.78578  1.0000
  O   O14       1.0  0.61709  0.48891  0.87106  1.0000
  O   O15       1.0  0.20912  0.3191599999999999  0.82454  1.0000
  O   O16       1.0  0.2738399999999999  0.15075999999999992  0.98048  1.0000
  O   O17       1.0  0.53983  0.6946199999999999  0.79872  1.0000
  O   O18       1.0  0.38309  0.69522  0.8576  1.0000
  O   O19       1.0  0.41449999999999976  0.33249999999999996  0.9869799999999999  1.0000
  O   O20       1.0  0.10962999999999991  0.5035  0.81814  1.0000
  O   O21       1.0  0.35617  0.02559000000000001  0.53245  1.0000
  O   O22       1.0  0.44814000000000015  0.8370100000000001  0.50724  1.0000
  O   O23       1.0  0.30461  0.51869  0.28612  1.0000
  O   O24       1.0  0.4864299999999999  0.61738  0.37033  1.0000
  O   O25       1.0  0.3251  0.21455  0.32798  1.0000
  O   O26       1.0  0.15627999999999992  0.27915999999999996  0.4836599999999999  1.0000
  O   O27       1.0  0.69478  0.53973  0.30187  1.0000
  O   O28       1.0  0.6991299999999999  0.38876999999999995  0.36430999999999997  1.0000
  O   O29       1.0  0.33771999999999996  0.41585000000000005  0.4868799999999999  1.0000
  O   O30       1.0  0.50507  0.10991  0.31812  1.0000
  O   O31       1.0  0.9746599999999999  0.64158  0.96511  1.0000
  O   O32       1.0  0.16155999999999993  0.54628  0.98985  1.0000
  O   O33       1.0  0.48354  0.68998  0.21421999999999997  1.0000
  O   O34       1.0  0.38291  0.5111  0.12894  1.0000
  O   O35       1.0  0.79088  0.68084  0.17546  1.0000
  O   O36       1.0  0.7261599999999999  0.84925  0.01952  1.0000
  O   O37       1.0  0.46017999999999987  0.30539  0.20128  1.0000
  O   O38       1.0  0.61692  0.30478  0.1424  1.0000
  O   O39       1.0  0.58551  0.6675  0.01302  1.0000
  O   O40       1.0  0.8903699999999998  0.49651000000000006  0.18186  1.0000
