data_image0
_chemical_formula_structural       Tb4P4H28C32N4O32
_chemical_formula_sum              "Tb4 P4 H28 C32 N4 O32"
_cell_length_a       9.71105
_cell_length_b       10.400300000000001
_cell_length_c       15.55393
_cell_angle_alpha    89.71702000000002
_cell_angle_beta     98.12482999999999
_cell_angle_gamma    89.83567999999998

_symmetry_space_group_name_H-M    'P 1'
_symmetry_Int_Tables_number       1

loop_
  _symmetry_equiv_pos_as_xyz
  'x,y,z'

loop_
  _atom_site_type_symbol
  _atom_site_label
  _atom_site_symmetry_multiplicity
  _atom_site_fract_x
  _atom_site_fract_y
  _atom_site_fract_z
  _atom_site_occupancy
  Tb  Tb1       1.0  0.23261000000000004  0.10527  0.3992099999999999  1.0000
  Tb  Tb2       1.0  0.26629  0.60531  0.10097  1.0000
  Tb  Tb3       1.0  0.7673299999999998  0.89461  0.6007499999999998  1.0000
  Tb  Tb4       1.0  0.73423  0.39371  0.8996699999999997  1.0000
  P   P1        1.0  0.17583  0.85387  0.23219  1.0000
  P   P2        1.0  0.32226  0.35424  0.2681  1.0000
  P   P3        1.0  0.82436  0.14571000000000003  0.76792  1.0000
  P   P4        1.0  0.67799  0.64544  0.7323599999999998  1.0000
  H   H1        1.0  0.32278  0.87104  0.91878  1.0000
  H   H2        1.0  0.38522999999999996  0.10749000000000002  0.9114699999999998  1.0000
  H   H3        1.0  0.28716  0.2608500000000001  0.012749999999999996  1.0000
  H   H4        1.0  0.14212  0.17184  0.11959999999999998  1.0000
  H   H5        1.0  0.002959999999999994  0.83937  0.10541999999999997  1.0000
  H   H6        1.0  0.9972600000000001  0.9909500000000001  0.1593  1.0000
  H   H7        1.0  0.04765999999999998  0.8256400000000002  0.3322799999999999  1.0000
  H   H8        1.0  0.17879999999999996  0.36885  0.5824999999999998  1.0000
  H   H9        1.0  0.11561  0.6055100000000001  0.58825  1.0000
  H   H10       1.0  0.21245999999999998  0.7584300000000002  0.4855399999999999  1.0000
  H   H11       1.0  0.35795999999999994  0.6689500000000002  0.37935999999999986  1.0000
  H   H12       1.0  0.49646  0.33491  0.39411  1.0000
  H   H13       1.0  0.50397  0.48756  0.3408499999999999  1.0000
  H   H14       1.0  0.44714000000000004  0.32533  0.16651999999999995  1.0000
  H   H15       1.0  0.67743  0.12779  0.08129999999999997  1.0000
  H   H16       1.0  0.61446  0.89144  0.08826999999999997  1.0000
  H   H17       1.0  0.7123699999999998  0.73819  0.9869399999999998  1.0000
  H   H18       1.0  0.85766  0.82707  0.8802499999999998  1.0000
  H   H19       1.0  0.99704  0.15977  0.8948099999999998  1.0000
  H   H20       1.0  0.003069999999999962  0.008440000000000001  0.8406999999999998  1.0000
  H   H21       1.0  0.95229  0.17428  0.66779  1.0000
  H   H22       1.0  0.82096  0.63116  0.41760999999999987  1.0000
  H   H23       1.0  0.88434  0.39458  0.41171999999999986  1.0000
  H   H24       1.0  0.78756  0.24145000000000005  0.51437  1.0000
  H   H25       1.0  0.64229  0.33073  0.6207199999999998  1.0000
  H   H26       1.0  0.50403  0.66504  0.60655  1.0000
  H   H27       1.0  0.49635  0.51212  0.65938  1.0000
  H   H28       1.0  0.55302  0.6747  0.8337099999999997  1.0000
  C   C1        1.0  0.28595  0.94468  0.9593099999999998  1.0000
  C   C2        1.0  0.3184399999999999  0.07403  0.9574699999999998  1.0000
  C   C3        1.0  0.26549  0.15853  0.014359999999999996  1.0000
  C   C4        1.0  0.18274000000000004  0.10959  0.07296999999999997  1.0000
  C   C5        1.0  0.15018  0.97924  0.07418  1.0000
  C   C6        1.0  0.06567  0.91886  0.13593999999999995  1.0000
  C   C7        1.0  0.54217  0.03342  0.46741  1.0000
  C   C8        1.0  0.0067100000000000016  0.062430000000000006  0.52668  1.0000
  C   C9        1.0  0.21535999999999994  0.44237000000000004  0.5414499999999998  1.0000
  C   C10       1.0  0.18257  0.57185  0.5425  1.0000
  C   C11       1.0  0.23508999999999997  0.65612  0.4849299999999999  1.0000
  C   C12       1.0  0.31783  0.60683  0.4265599999999999  1.0000
  C   C13       1.0  0.35072  0.4762700000000001  0.42611  1.0000
  C   C14       1.0  0.43464  0.41600000000000004  0.36394  1.0000
  C   C15       1.0  0.9567900000000001  0.53378  0.03171  1.0000
  C   C16       1.0  0.4933099999999999  0.56241  0.9732699999999997  1.0000
  C   C17       1.0  0.71414  0.05417  0.040699999999999986  1.0000
  C   C18       1.0  0.68149  0.9248800000000003  0.04242  1.0000
  C   C19       1.0  0.7343699999999999  0.8404500000000001  0.9854899999999998  1.0000
  C   C20       1.0  0.81726  0.88936  0.9269399999999998  1.0000
  C   C21       1.0  0.84991  0.01969  0.9257699999999998  1.0000
  C   C22       1.0  0.9344600000000001  0.08032000000000002  0.8640999999999998  1.0000
  C   C23       1.0  0.4577800000000001  0.96656  0.5325899999999998  1.0000
  C   C24       1.0  0.99323  0.9375700000000001  0.47332999999999986  1.0000
  C   C25       1.0  0.78458  0.55756  0.4586699999999999  1.0000
  C   C26       1.0  0.81743  0.42811000000000005  0.4575499999999999  1.0000
  C   C27       1.0  0.7649799999999999  0.34377  0.5150999999999998  1.0000
  C   C28       1.0  0.6823699999999999  0.39299  0.5735799999999998  1.0000
  C   C29       1.0  0.6495299999999999  0.52356  0.5741699999999998  1.0000
  C   C30       1.0  0.56577  0.5837  0.63645  1.0000
  C   C31       1.0  0.043469999999999974  0.46601  0.9684199999999997  1.0000
  C   C32       1.0  0.50696  0.4374900000000001  0.02732  1.0000
  N   N1        1.0  0.20226  0.8991400000000002  0.01613  1.0000
  N   N2        1.0  0.29893000000000003  0.39633000000000007  0.4848099999999999  1.0000
  N   N3        1.0  0.7978299999999999  0.09964  0.9838899999999998  1.0000
  N   N4        1.0  0.7011  0.6035200000000001  0.51538  1.0000
  O   O1        1.0  0.23635  0.9673500000000002  0.28596  1.0000
  O   O2        1.0  0.07092999999999998  0.77358  0.2816599999999999  1.0000
  O   O3        1.0  0.28265  0.76174  0.20265999999999995  1.0000
  O   O4        1.0  0.16694  0.77623  0.012989999999999996  1.0000
  O   O5        1.0  0.67399  0.026330000000000006  0.4848899999999999  1.0000
  O   O6        1.0  0.474  0.08964  0.4027999999999999  1.0000
  O   O7        1.0  0.06883999999999998  0.15612000000000004  0.4978399999999999  1.0000
  O   O8        1.0  0.95162  0.05898  0.59637  1.0000
  O   O9        1.0  0.26218  0.4686100000000001  0.21413999999999994  1.0000
  O   O10       1.0  0.4226  0.27223  0.21673999999999993  1.0000
  O   O11       1.0  0.21458999999999995  0.26538000000000006  0.2995099999999999  1.0000
  O   O12       1.0  0.33358  0.27302  0.4888399999999999  1.0000
  O   O13       1.0  0.8251800000000001  0.52624  0.013209999999999996  1.0000
  O   O14       1.0  0.022489999999999996  0.59116  0.09589999999999997  1.0000
  O   O15       1.0  0.43058  0.6564200000000001  0.0010699999999999996  1.0000
  O   O16       1.0  0.54913  0.5586400000000001  0.9039699999999998  1.0000
  O   O17       1.0  0.76361  0.03250000000000001  0.7140099999999998  1.0000
  O   O18       1.0  0.9290700000000001  0.22625  0.7184499999999998  1.0000
  O   O19       1.0  0.71773  0.23778000000000002  0.79766  1.0000
  O   O20       1.0  0.8331800000000001  0.22253000000000003  0.9870799999999997  1.0000
  O   O21       1.0  0.32598  0.9736600000000002  0.5150999999999998  1.0000
  O   O22       1.0  0.52593  0.91032  0.5972099999999998  1.0000
  O   O23       1.0  0.93109  0.8438400000000001  0.50216  1.0000
  O   O24       1.0  0.04831999999999998  0.9410100000000001  0.4036499999999999  1.0000
  O   O25       1.0  0.73831  0.53159  0.7868199999999997  1.0000
  O   O26       1.0  0.57706  0.72759  0.7832999999999998  1.0000
  O   O27       1.0  0.78521  0.73466  0.70071  1.0000
  O   O28       1.0  0.66635  0.72682  0.51127  1.0000
  O   O29       1.0  0.1750899999999999  0.47364000000000006  0.9868999999999998  1.0000
  O   O30       1.0  0.97768  0.40864  0.9042699999999998  1.0000
  O   O31       1.0  0.56972  0.34355  0.9995699999999998  1.0000
  O   O32       1.0  0.45104000000000005  0.44117  0.09665  1.0000
