data_image0
_chemical_formula_structural       Zn8H48C56O32
_chemical_formula_sum              "Zn8 H48 C56 O32"
_cell_length_a       10.35446
_cell_length_b       13.13561
_cell_length_c       18.76228
_cell_angle_alpha    90.04599
_cell_angle_beta     89.96969000000001
_cell_angle_gamma    98.24618000000001

_symmetry_space_group_name_H-M    'P 1'
_symmetry_Int_Tables_number       1

loop_
  _symmetry_equiv_pos_as_xyz
  'x,y,z'

loop_
  _atom_site_type_symbol
  _atom_site_label
  _atom_site_symmetry_multiplicity
  _atom_site_fract_x
  _atom_site_fract_y
  _atom_site_fract_z
  _atom_site_occupancy
  Zn  Zn1       1.0  0.8214400000000002  0.13268  0.64195  1.0000
  Zn  Zn2       1.0  0.671  0.2901  0.58472  1.0000
  Zn  Zn3       1.0  0.6785800000000001  0.3670600000000001  0.14214  1.0000
  Zn  Zn4       1.0  0.8303000000000001  0.21008000000000002  0.08427  1.0000
  Zn  Zn5       1.0  0.17855  0.86733  0.35805  1.0000
  Zn  Zn6       1.0  0.3289900000000001  0.7099000000000002  0.41528  1.0000
  Zn  Zn7       1.0  0.32141  0.63295  0.85786  1.0000
  Zn  Zn8       1.0  0.1697  0.78992  0.9157300000000002  1.0000
  H   H1        1.0  0.2853600000000001  0.14399  0.68925  1.0000
  H   H2        1.0  0.27978  0.13945  0.59576  1.0000
  H   H3        1.0  0.15759  0.00068  0.76269  1.0000
  H   H4        1.0  0.061849999999999995  0.89628  0.71936  1.0000
  H   H5        1.0  0.17449  0.7623  0.65419  1.0000
  H   H6        1.0  0.3467  0.7759000000000001  0.6501  1.0000
  H   H7        1.0  0.38851  0.005760000000000002  0.52832  1.0000
  H   H8        1.0  0.4740400000000001  0.9191600000000002  0.57612  1.0000
  H   H9        1.0  0.48425000000000007  0.92647  0.71087  1.0000
  H   H10       1.0  0.40784000000000004  0.01841  0.75855  1.0000
  H   H11       1.0  0.05204000000000004  0.8889900000000002  0.58338  1.0000
  H   H12       1.0  0.14357000000000003  0.9871000000000001  0.5324  1.0000
  H   H13       1.0  0.21456000000000003  0.3561200000000001  0.18924  1.0000
  H   H14       1.0  0.22052  0.36062  0.09579  1.0000
  H   H15       1.0  0.34214000000000006  0.4997000000000001  0.26292  1.0000
  H   H16       1.0  0.43789  0.60406  0.21955  1.0000
  H   H17       1.0  0.3255100000000001  0.73766  0.15433  1.0000
  H   H18       1.0  0.15332000000000004  0.72421  0.15005  1.0000
  H   H19       1.0  0.11169000000000001  0.49413000000000007  0.028290000000000003  1.0000
  H   H20       1.0  0.026150000000000007  0.58082  0.07614  1.0000
  H   H21       1.0  0.015380000000000019  0.57344  0.21082  1.0000
  H   H22       1.0  0.09199  0.48169  0.25847  1.0000
  H   H23       1.0  0.4481  0.61096  0.08345  1.0000
  H   H24       1.0  0.35663000000000017  0.51269  0.03254  1.0000
  H   H25       1.0  0.71464  0.85602  0.31075  1.0000
  H   H26       1.0  0.72021  0.86056  0.40424  1.0000
  H   H27       1.0  0.8424000000000003  0.99933  0.23730999999999997  1.0000
  H   H28       1.0  0.93814  0.10373000000000003  0.28065  1.0000
  H   H29       1.0  0.8255100000000001  0.23771  0.34581  1.0000
  H   H30       1.0  0.6532900000000003  0.22410000000000002  0.3499  1.0000
  H   H31       1.0  0.61148  0.9942400000000001  0.47168  1.0000
  H   H32       1.0  0.5259500000000001  0.08085000000000002  0.42388  1.0000
  H   H33       1.0  0.51575  0.07354  0.28913  1.0000
  H   H34       1.0  0.59216  0.98159  0.24144999999999997  1.0000
  H   H35       1.0  0.94796  0.11102  0.41662  1.0000
  H   H36       1.0  0.85642  0.01291  0.46760000000000007  1.0000
  H   H37       1.0  0.7854300000000001  0.64388  0.81076  1.0000
  H   H38       1.0  0.77947  0.63939  0.90421  1.0000
  H   H39       1.0  0.65786  0.5003  0.73708  1.0000
  H   H40       1.0  0.5621  0.39595  0.78045  1.0000
  H   H41       1.0  0.6744900000000001  0.26235  0.84567  1.0000
  H   H42       1.0  0.84667  0.2758  0.84995  1.0000
  H   H43       1.0  0.8883000000000002  0.50588  0.97171  1.0000
  H   H44       1.0  0.9738500000000001  0.41919000000000006  0.9238599999999999  1.0000
  H   H45       1.0  0.98461  0.42657  0.78919  1.0000
  H   H46       1.0  0.908  0.51831  0.74153  1.0000
  H   H47       1.0  0.55189  0.38905000000000006  0.91655  1.0000
  H   H48       1.0  0.64336  0.48732000000000003  0.9674600000000001  1.0000
  C   C1        1.0  0.52688  0.10568  0.63665  1.0000
  C   C2        1.0  0.03416  0.07058  0.64678  1.0000
  C   C3        1.0  0.27308  0.83073  0.7848  1.0000
  C   C4        1.0  0.26031000000000004  0.81211  0.51745  1.0000
  C   C5        1.0  0.39805000000000007  0.03298  0.64299  1.0000
  C   C6        1.0  0.1532  0.014720000000000002  0.64715  1.0000
  C   C7        1.0  0.27145  0.8911600000000002  0.7157  1.0000
  C   C8        1.0  0.2613  0.88238  0.5818  1.0000
  C   C9        1.0  0.27986  0.09141  0.6435  1.0000
  C   C10       1.0  0.15294  0.95033  0.71583  1.0000
  C   C11       1.0  0.26342  0.8187900000000002  0.65087  1.0000
  C   C12       1.0  0.38903  0.96026  0.57745  1.0000
  C   C13       1.0  0.3995400000000001  0.9680800000000003  0.71152  1.0000
  C   C14       1.0  0.14403000000000002  0.94209  0.5817  1.0000
  C   C15       1.0  0.9734100000000001  0.39437  0.13657  1.0000
  C   C16       1.0  0.46592000000000033  0.42954  0.14691  1.0000
  C   C17       1.0  0.22479000000000002  0.66984  0.28478  1.0000
  C   C18       1.0  0.23984000000000003  0.68784  0.01758  1.0000
  C   C19       1.0  0.10205000000000004  0.46711000000000014  0.14297  1.0000
  C   C20       1.0  0.3468300000000001  0.48546000000000006  0.14734  1.0000
  C   C21       1.0  0.228  0.60915  0.21579  1.0000
  C   C22       1.0  0.23884000000000008  0.6175600000000001  0.08185  1.0000
  C   C23       1.0  0.22025  0.40870000000000006  0.14355  1.0000
  C   C24       1.0  0.34675  0.55004  0.21610000000000001  1.0000
  C   C25       1.0  0.23651000000000003  0.68124  0.15091  1.0000
  C   C26       1.0  0.11113  0.53968  0.07744  1.0000
  C   C27       1.0  0.10022000000000002  0.53201  0.21148  1.0000
  C   C28       1.0  0.35611  0.55787  0.08181  1.0000
  C   C29       1.0  0.4731100000000001  0.8943200000000002  0.36335  1.0000
  C   C30       1.0  0.96584  0.9294200000000001  0.35322  1.0000
  C   C31       1.0  0.72691  0.16928  0.2152  1.0000
  C   C32       1.0  0.73969  0.18790000000000004  0.48255000000000003  1.0000
  C   C33       1.0  0.60194  0.9670300000000002  0.35701  1.0000
  C   C34       1.0  0.84679  0.98529  0.35285  1.0000
  C   C35       1.0  0.7285500000000001  0.10884000000000002  0.2843  1.0000
  C   C36       1.0  0.73869  0.11763000000000003  0.4182  1.0000
  C   C37       1.0  0.72013  0.9085900000000002  0.3565  1.0000
  C   C38       1.0  0.8470500000000001  0.049680000000000016  0.28417  1.0000
  C   C39       1.0  0.73657  0.18121000000000004  0.34913  1.0000
  C   C40       1.0  0.61096  0.03974  0.42255  1.0000
  C   C41       1.0  0.6004500000000002  0.03193  0.28848  1.0000
  C   C42       1.0  0.85597  0.05792  0.41831  1.0000
  C   C43       1.0  0.02659  0.60564  0.86344  1.0000
  C   C44       1.0  0.53407  0.57047  0.8530899999999999  1.0000
  C   C45       1.0  0.7752  0.33016  0.71522  1.0000
  C   C46       1.0  0.7601500000000002  0.31217  0.98242  1.0000
  C   C47       1.0  0.89794  0.5329  0.85703  1.0000
  C   C48       1.0  0.65316  0.51455  0.85266  1.0000
  C   C49       1.0  0.77199  0.39086  0.78421  1.0000
  C   C50       1.0  0.76115  0.3824400000000001  0.91815  1.0000
  C   C51       1.0  0.7797400000000001  0.59131  0.85645  1.0000
  C   C52       1.0  0.6532500000000001  0.44996  0.7839  1.0000
  C   C53       1.0  0.76348  0.31876000000000004  0.84909  1.0000
  C   C54       1.0  0.88886  0.46032  0.92256  1.0000
  C   C55       1.0  0.8997800000000001  0.468  0.78852  1.0000
  C   C56       1.0  0.6438800000000001  0.44213000000000013  0.9181899999999998  1.0000
  O   O1        1.0  0.63141  0.06552  0.63882  1.0000
  O   O2        1.0  0.52067  0.20186  0.62764  1.0000
  O   O3        1.0  0.29851000000000005  0.7393600000000001  0.78244  1.0000
  O   O4        1.0  0.24717000000000006  0.8785600000000002  0.84252  1.0000
  O   O5        1.0  0.04326000000000001  0.1662  0.63583  1.0000
  O   O6        1.0  0.9211  0.015260000000000001  0.6569  1.0000
  O   O7        1.0  0.18331  0.8186700000000001  0.46503  1.0000
  O   O8        1.0  0.34273000000000003  0.7468600000000001  0.51606  1.0000
  O   O9        1.0  0.86869  0.43434  0.13886  1.0000
  O   O10       1.0  0.9799100000000001  0.2983  0.12741  1.0000
  O   O11       1.0  0.20181000000000004  0.7618300000000001  0.28214  1.0000
  O   O12       1.0  0.24679000000000004  0.62154  0.34291  1.0000
  O   O13       1.0  0.45673000000000036  0.33391  0.13588  1.0000
  O   O14       1.0  0.5790400000000001  0.48476000000000014  0.15699  1.0000
  O   O15       1.0  0.31675  0.68135  0.96507  1.0000
  O   O16       1.0  0.15727000000000005  0.7529800000000002  0.01648  1.0000
  O   O17       1.0  0.3685800000000002  0.93449  0.36119  1.0000
  O   O18       1.0  0.47932000000000013  0.7981500000000002  0.37236  1.0000
  O   O19       1.0  0.70149  0.26064  0.21756  1.0000
  O   O20       1.0  0.7528200000000003  0.12145000000000002  0.15748  1.0000
  O   O21       1.0  0.95673  0.8338  0.36417  1.0000
  O   O22       1.0  0.07889000000000004  0.9847400000000002  0.3431  1.0000
  O   O23       1.0  0.8166900000000002  0.18134  0.53497  1.0000
  O   O24       1.0  0.65726  0.25314  0.48394000000000004  1.0000
  O   O25       1.0  0.13131  0.56567  0.86114  1.0000
  O   O26       1.0  0.02009  0.7017  0.87259  1.0000
  O   O27       1.0  0.79818  0.23818  0.71786  1.0000
  O   O28       1.0  0.7532000000000001  0.37847  0.65709  1.0000
  O   O29       1.0  0.5432599999999999  0.6661  0.8641199999999999  1.0000
  O   O30       1.0  0.42096  0.51524  0.84301  1.0000
  O   O31       1.0  0.6832400000000001  0.31866  0.03493  1.0000
  O   O32       1.0  0.8427200000000001  0.24702  0.98352  1.0000
