data_image0
_chemical_formula_structural       Zn6H26C64O32
_chemical_formula_sum              "Zn6 H26 C64 O32"
_cell_length_a       11.17762
_cell_length_b       11.37744
_cell_length_c       16.06309
_cell_angle_alpha    72.06124
_cell_angle_beta     81.22907
_cell_angle_gamma    66.09218999999999

_space_group_name_H-M_alt    "P 1"
_space_group_IT_number       1

loop_
  _space_group_symop_operation_xyz
  'x, y, z'

loop_
  _atom_site_type_symbol
  _atom_site_label
  _atom_site_symmetry_multiplicity
  _atom_site_fract_x
  _atom_site_fract_y
  _atom_site_fract_z
  _atom_site_occupancy
  Zn  Zn1       1.0  0.06685999999999999  0.82775  0.54777  1.0000
  Zn  Zn2       1.0  0.35127000000000025  0.6611899999999999  0.6187800000000001  1.0000
  Zn  Zn3       1.0  0.23076000000000002  0.59513  0.24620000000000006  1.0000
  Zn  Zn4       1.0  0.9323900000000002  0.17122999999999997  0.45269  1.0000
  Zn  Zn5       1.0  0.6482499999999998  0.3385  0.38109000000000004  1.0000
  Zn  Zn6       1.0  0.7690399999999997  0.40456000000000003  0.75355  1.0000
  H   H1        1.0  0.02908999999999998  0.51553  0.39634000000000014  1.0000
  H   H2        1.0  0.6120099999999999  0.69538  0.3846  1.0000
  H   H3        1.0  0.83312  0.93326  0.38218000000000013  1.0000
  H   H4        1.0  0.48592  0.80141  0.4579200000000001  1.0000
  H   H5        1.0  0.22349000000000002  0.21159  0.40688  1.0000
  H   H6        1.0  0.63034  0.11253999999999996  0.3271100000000001  1.0000
  H   H7        1.0  0.32328000000000007  0.6951999999999998  0.8358100000000003  1.0000
  H   H8        1.0  0.2022599999999999  0.009229999999999959  0.9647600000000002  1.0000
  H   H9        1.0  0.9739799999999997  0.0419999999999999  0.7594900000000002  1.0000
  H   H10       1.0  0.5106100000000002  0.67945  0.8549  1.0000
  H   H11       1.0  0.7018700000000001  0.49798999999999993  0.09872000000000003  1.0000
  H   H12       1.0  0.30547  0.79504  0.08555000000000001  1.0000
  H   H13       1.0  0.68115  0.5947199999999999  0.19536  1.0000
  H   H14       1.0  0.9707  0.4823899999999999  0.6039200000000002  1.0000
  H   H15       1.0  0.38768  0.30334999999999984  0.6155600000000002  1.0000
  H   H16       1.0  0.16719999999999996  0.06454999999999995  0.6184500000000002  1.0000
  H   H17       1.0  0.5143200000000003  0.19698  0.54268  1.0000
  H   H18       1.0  0.7765799999999999  0.78656  0.5936900000000002  1.0000
  H   H19       1.0  0.36968999999999985  0.8858399999999998  0.6729100000000002  1.0000
  H   H20       1.0  0.6771700000000002  0.30468  0.16466  1.0000
  H   H21       1.0  0.79735  0.9918699999999999  0.03484000000000002  1.0000
  H   H22       1.0  0.024390000000000026  0.95588  0.24191  1.0000
  H   H23       1.0  0.4904300000000001  0.32301  0.14476  1.0000
  H   H24       1.0  0.2980300000000001  0.5020100000000001  0.90136  1.0000
  H   H25       1.0  0.69369  0.20428000000000004  0.91445  1.0000
  H   H26       1.0  0.31831  0.40663999999999995  0.8048700000000002  1.0000
  C   C1        1.0  0.07281  0.73586  0.38733  1.0000
  C   C2        1.0  0.94282  0.7278600000000001  0.38503  1.0000
  C   C3        1.0  0.93914  0.60389  0.39129  1.0000
  C   C4        1.0  0.81797  0.59356  0.39413  1.0000
  C   C5        1.0  0.7029600000000003  0.70729  0.38677000000000006  1.0000
  C   C6        1.0  0.7038499999999999  0.83188  0.38339  1.0000
  C   C7        1.0  0.8258600000000003  0.8405499999999998  0.38279000000000013  1.0000
  C   C8        1.0  0.80859  0.46179  0.4081800000000001  1.0000
  C   C9        1.0  0.57557  0.9422099999999999  0.3884800000000001  1.0000
  C   C10       1.0  0.47065999999999997  0.90593  0.4294800000000001  1.0000
  C   C11       1.0  0.34505  0.0004999999999999525  0.43563000000000013  1.0000
  C   C12       1.0  0.32112000000000007  0.13656999999999994  0.4027500000000001  1.0000
  C   C13       1.0  0.42582  0.17586999999999994  0.36703000000000013  1.0000
  C   C14       1.0  0.5517000000000001  0.07950999999999994  0.35865000000000014  1.0000
  C   C15       1.0  0.3982500000000001  0.3225099999999999  0.33844000000000013  1.0000
  C   C16       1.0  0.23843  0.9549599999999999  0.4780800000000001  1.0000
  C   C17       1.0  0.14157  0.80691  0.7196200000000003  1.0000
  C   C18       1.0  0.14806000000000022  0.8617099999999995  0.7914100000000002  1.0000
  C   C19       1.0  0.25526999999999994  0.79051  0.8452300000000003  1.0000
  C   C20       1.0  0.27672000000000013  0.8390499999999999  0.9095000000000002  1.0000
  C   C21       1.0  0.1874100000000001  0.9650699999999995  0.9179100000000002  1.0000
  C   C22       1.0  0.08004000000000004  0.03806999999999997  0.86289  1.0000
  C   C23       1.0  0.05827000000000012  0.9856799999999998  0.8009300000000003  1.0000
  C   C24       1.0  0.9897400000000001  0.18033999999999994  0.86386  1.0000
  C   C25       1.0  0.3935500000000001  0.75347  0.9627  1.0000
  C   C26       1.0  0.5063999999999999  0.6729200000000001  0.9241  1.0000
  C   C27       1.0  0.6156199999999997  0.5810299999999999  0.9725400000000002  1.0000
  C   C28       1.0  0.61653  0.5717099999999999  0.06140000000000002  1.0000
  C   C29       1.0  0.5045800000000003  0.65081  0.10096000000000002  1.0000
  C   C30       1.0  0.39334  0.7403  0.052320000000000005  1.0000
  C   C31       1.0  0.72616  0.48383999999999994  0.9290300000000002  1.0000
  C   C32       1.0  0.49578999999999995  0.63681  0.19621  1.0000
  C   C33       1.0  0.9272200000000003  0.26270999999999983  0.6128300000000002  1.0000
  C   C34       1.0  0.057339999999999974  0.27012  0.61547  1.0000
  C   C35       1.0  0.06085000000000001  0.39422999999999997  0.60904  1.0000
  C   C36       1.0  0.18187000000000003  0.4049099999999999  0.60606  1.0000
  C   C37       1.0  0.29688000000000003  0.2911599999999999  0.61342  1.0000
  C   C38       1.0  0.29621  0.16634  0.61706  1.0000
  C   C39       1.0  0.17427999999999993  0.15735  0.61789  1.0000
  C   C40       1.0  0.19123999999999997  0.5368299999999999  0.5919600000000003  1.0000
  C   C41       1.0  0.42458999999999997  0.056109999999999986  0.61196  1.0000
  C   C42       1.0  0.52954  0.09247  0.57112  1.0000
  C   C43       1.0  0.65522  0.99793  0.5649900000000002  1.0000
  C   C44       1.0  0.67908  0.8618500000000001  0.59768  1.0000
  C   C45       1.0  0.5743199999999999  0.82251  0.63308  1.0000
  C   C46       1.0  0.4484300000000002  0.9187999999999997  0.6415100000000002  1.0000
  C   C47       1.0  0.6016000000000001  0.67599  0.66112  1.0000
  C   C48       1.0  0.76142  0.04395999999999999  0.52222  1.0000
  C   C49       1.0  0.85765  0.19210999999999995  0.28103  1.0000
  C   C50       1.0  0.8513  0.13709999999999997  0.20940000000000006  1.0000
  C   C51       1.0  0.74467  0.20926  0.15517  1.0000
  C   C52       1.0  0.72324  0.16134999999999997  0.09058000000000002  1.0000
  C   C53       1.0  0.8123099999999998  0.03527  0.0821  1.0000
  C   C54       1.0  0.9192700000000001  0.9613999999999998  0.13745000000000004  1.0000
  C   C55       1.0  0.94064  0.012889999999999993  0.20005  1.0000
  C   C56       1.0  0.009780000000000032  0.81936  0.13602  1.0000
  C   C57       1.0  0.60663  0.2474  0.03724000000000001  1.0000
  C   C58       1.0  0.49414  0.32873  0.0757  1.0000
  C   C59       1.0  0.38471  0.42002  0.027240000000000007  1.0000
  C   C60       1.0  0.38353  0.42851  0.9385700000000002  1.0000
  C   C61       1.0  0.49517000000000005  0.34901999999999994  0.89909  1.0000
  C   C62       1.0  0.6063800000000003  0.25967999999999997  0.94776  1.0000
  C   C63       1.0  0.27338  0.51721  0.07025  1.0000
  C   C64       1.0  0.5037399999999997  0.36314999999999986  0.8038200000000002  1.0000
  O   O1        1.0  0.1751799999999999  0.65528  0.35783  1.0000
  O   O2        1.0  0.88446  0.22491999999999987  0.8209500000000002  1.0000
  O   O3        1.0  0.9153  0.36189  0.4079600000000001  1.0000
  O   O4        1.0  0.6928  0.4597  0.42086  1.0000
  O   O5        1.0  0.4919400000000001  0.36426  0.32936  1.0000
  O   O6        1.0  0.28069  0.4011399999999999  0.3220500000000001  1.0000
  O   O7        1.0  0.12124  0.03545999999999997  0.4711400000000001  1.0000
  O   O8        1.0  0.26626999999999995  0.83039  0.5213900000000001  1.0000
  O   O9        1.0  0.07872  0.82111  0.42082  1.0000
  O   O10       1.0  0.02549999999999999  0.23828999999999995  0.9037400000000002  1.0000
  O   O11       1.0  0.05841000000000019  0.8797099999999995  0.6606700000000002  1.0000
  O   O12       1.0  0.22860999999999992  0.69011  0.7203100000000002  1.0000
  O   O13       1.0  0.60667  0.60382  0.23708000000000007  1.0000
  O   O14       1.0  0.3935800000000001  0.6545699999999999  0.24112000000000006  1.0000
  O   O15       1.0  0.8190999999999999  0.39838  0.9760000000000002  1.0000
  O   O16       1.0  0.70648  0.5004499999999998  0.8489600000000003  1.0000
  O   O17       1.0  0.8248299999999998  0.3441699999999999  0.64163  1.0000
  O   O18       1.0  0.11523000000000001  0.77455  0.17875  1.0000
  O   O19       1.0  0.08449000000000005  0.6368299999999999  0.59202  1.0000
  O   O20       1.0  0.30697  0.53899  0.57948  1.0000
  O   O21       1.0  0.50739  0.6348499999999999  0.6708400000000002  1.0000
  O   O22       1.0  0.7193399999999999  0.5968499999999999  0.6762400000000002  1.0000
  O   O23       1.0  0.8789300000000001  0.96417  0.52902  1.0000
  O   O24       1.0  0.7329500000000001  0.16831999999999994  0.4785200000000001  1.0000
  O   O25       1.0  0.9211899999999998  0.17749  0.57937  1.0000
  O   O26       1.0  0.97371  0.7616099999999999  0.09614  1.0000
  O   O27       1.0  0.94004  0.11917999999999995  0.3404500000000001  1.0000
  O   O28       1.0  0.7713000000000001  0.30948999999999993  0.27968  1.0000
  O   O29       1.0  0.39255999999999996  0.39739  0.76295  1.0000
  O   O30       1.0  0.6060500000000002  0.34481999999999996  0.7589100000000002  1.0000
  O   O31       1.0  0.18091  0.6024  0.02277  1.0000
  O   O32       1.0  0.29225  0.50032  0.15051  1.0000
