data_image0
_chemical_formula_structural       Mn8H28C52O32
_chemical_formula_sum              "Mn8 H28 C52 O32"
_cell_length_a       8.80987
_cell_length_b       12.13763
_cell_length_c       20.14131
_cell_angle_alpha    85.36612000000001
_cell_angle_beta     77.08269
_cell_angle_gamma    68.2451

_space_group_name_H-M_alt    "P 1"
_space_group_IT_number       1

loop_
  _space_group_symop_operation_xyz
  'x, y, z'

loop_
  _atom_site_type_symbol
  _atom_site_label
  _atom_site_symmetry_multiplicity
  _atom_site_fract_x
  _atom_site_fract_y
  _atom_site_fract_z
  _atom_site_occupancy
  Mn  Mn1       1.0  0.9185399999999998  0.5299  0.9261400000000001  1.0000
  Mn  Mn2       1.0  0.19552000000000008  0.97293  0.42256  1.0000
  Mn  Mn3       1.0  0.9090700000000002  0.83292  0.47343  1.0000
  Mn  Mn4       1.0  0.21145000000000005  0.16975  0.52776  1.0000
  Mn  Mn5       1.0  0.12018  0.34209  0.0263  1.0000
  Mn  Mn6       1.0  0.5884500000000003  0.02833  0.57959  1.0000
  Mn  Mn7       1.0  0.49227000000000015  0.66373  0.97374  1.0000
  Mn  Mn8       1.0  0.37996  0.47415  0.07932  1.0000
  H   H1        1.0  0.06085999999999991  0.5858700000000001  0.20804000000000003  1.0000
  H   H2        1.0  0.11596999999999995  0.12157  0.16443000000000005  1.0000
  H   H3        1.0  0.8032199999999999  0.19347000000000003  0.03151  1.0000
  H   H4        1.0  0.59075  0.7746  0.74168  1.0000
  H   H5        1.0  0.08203999999999992  0.27625  0.7612600000000002  1.0000
  H   H6        1.0  0.28135  0.03941  0.91675  1.0000
  H   H7        1.0  0.8301699999999999  0.49665  0.5009  1.0000
  H   H8        1.0  0.5966099999999999  0.90508  0.396  1.0000
  H   H9        1.0  0.8929  0.0953  0.60682  1.0000
  H   H10       1.0  0.03426999999999993  0.62596  0.33078  1.0000
  H   H11       1.0  0.84888  0.41081000000000006  0.78995  1.0000
  H   H12       1.0  0.12848000000000004  0.22088  0.25609  1.0000
  H   H13       1.0  0.06511000000000007  0.46001000000000003  0.41443  1.0000
  H   H14       1.0  0.2510799999999999  0.60183  0.8970500000000001  1.0000
  H   H15       1.0  0.9471  0.5391  0.58458  1.0000
  H   H16       1.0  0.05492  0.011410000000000002  0.0016500000000000002  1.0000
  H   H17       1.0  0.76064  0.3167  0.53491  1.0000
  H   H18       1.0  0.75246  0.37473  0.10321000000000001  1.0000
  H   H19       1.0  0.007400000000000005  0.08749  0.2872  1.0000
  H   H20       1.0  0.02675999999999995  0.82609  0.97064  1.0000
  H   H21       1.0  0.23291999999999993  0.9522000000000002  0.08259  1.0000
  H   H22       1.0  0.49350999999999995  0.00692  3.0000000000000004e-05  1.0000
  H   H23       1.0  0.26565000000000005  0.50102  0.49805  1.0000
  H   H24       1.0  0.3793099999999999  0.9103500000000001  0.7122400000000001  1.0000
  H   H25       1.0  0.9961499999999999  0.37222000000000005  0.6678700000000002  1.0000
  H   H26       1.0  0.40662999999999994  0.8719500000000001  0.83363  1.0000
  H   H27       1.0  0.6175399999999999  0.67904  0.46540000000000004  1.0000
  H   H28       1.0  0.11480999999999995  0.7226000000000001  0.24277  1.0000
  C   C1        1.0  0.6232400000000001  0.61657  0.84529  1.0000
  C   C2        1.0  0.79126  0.11236  0.01851  1.0000
  C   C3        1.0  0.11389000000000005  0.8097  0.22544  1.0000
  C   C4        1.0  0.6782799999999999  0.68648  0.72569  1.0000
  C   C5        1.0  0.4695599999999999  0.28693  0.53711  1.0000
  C   C6        1.0  0.54318  0.96473  0.44043  1.0000
  C   C7        1.0  0.09738999999999991  0.40121000000000007  0.22409000000000007  1.0000
  C   C8        1.0  0.74227  0.4401300000000001  0.06214000000000001  1.0000
  C   C9        1.0  0.38926000000000005  0.5  0.49858  1.0000
  C   C10       1.0  0.33731000000000005  0.9605500000000001  0.81747  1.0000
  C   C11       1.0  0.0544  0.01602  0.25012  1.0000
  C   C12       1.0  0.2645  0.05337  0.86446  1.0000
  C   C13       1.0  0.09905999999999994  0.26755  0.89405  1.0000
  C   C14       1.0  0.7362199999999999  0.76512  0.60774  1.0000
  C   C15       1.0  0.8797900000000002  0.55289  0.63734  1.0000
  C   C16       1.0  0.07148  0.44533  0.3612  1.0000
  C   C17       1.0  0.4276500000000001  0.60216  0.47959  1.0000
  C   C18       1.0  0.10755000000000008  0.30956  0.27206  1.0000
  C   C19       1.0  0.22727999999999987  0.09486000000000001  0.7292200000000002  1.0000
  C   C20       1.0  0.61609  0.00807  0.00046000000000000007  1.0000
  C   C21       1.0  0.10633999999999999  0.37879  0.15238  1.0000
  C   C22       1.0  0.2967899999999999  0.71337  0.46134  1.0000
  C   C23       1.0  0.15146999999999994  0.18752  0.77685  1.0000
  C   C24       1.0  0.82587  0.4811000000000001  0.7522500000000001  1.0000
  C   C25       1.0  0.58803  0.59991  0.4799600000000001  1.0000
  C   C26       1.0  0.70987  0.5943  0.77312  1.0000
  C   C27       1.0  0.3204399999999999  0.9811200000000002  0.74988  1.0000
  C   C28       1.0  0.9886300000000001  0.88415  0.34476  1.0000
  C   C29       1.0  0.09524999999999997  0.33134  0.34058  1.0000
  C   C30       1.0  0.07151000000000002  0.51536  0.24552000000000002  1.0000
  C   C31       1.0  0.25019  0.72969  0.10643000000000001  1.0000
  C   C32       1.0  0.11030000000000005  0.234  0.3917  1.0000
  C   C33       1.0  0.9172600000000001  0.9064  0.98369  1.0000
  C   C34       1.0  0.11691000000000007  0.03414  0.18179000000000003  1.0000
  C   C35       1.0  0.7640199999999998  0.66631  0.6578  1.0000
  C   C36       1.0  0.17878999999999998  0.8273800000000001  0.15705  1.0000
  C   C37       1.0  0.9324000000000001  0.01002  0.00145  1.0000
  C   C38       1.0  0.2577699999999999  0.54147  0.94098  1.0000
  C   C39       1.0  0.21390000000000003  0.11604  0.65688  1.0000
  C   C40       1.0  0.94506  0.0379  0.56144  1.0000
  C   C41       1.0  0.05251999999999986  0.9035600000000001  0.27205000000000007  1.0000
  C   C42       1.0  0.17982000000000012  0.94038  0.13561000000000004  1.0000
  C   C43       1.0  0.63127  0.11301000000000001  0.01774  1.0000
  C   C44       1.0  0.17072000000000004  0.16741  0.8444900000000001  1.0000
  C   C45       1.0  0.7068099999999999  0.49764000000000014  0.50013  1.0000
  C   C46       1.0  0.6680500000000001  0.39663000000000004  0.5195  1.0000
  C   C47       1.0  0.50911  0.39670000000000005  0.51836  1.0000
  C   C48       1.0  0.48389  0.22491000000000003  0.03330000000000001  1.0000
  C   C49       1.0  0.7585699999999999  0.90465  0.9836600000000001  1.0000
  C   C50       1.0  0.05788999999999996  0.5371  0.31395000000000006  1.0000
  C   C51       1.0  0.9093499999999999  0.46054  0.68431  1.0000
  C   C52       1.0  0.7428  0.79183  0.9671800000000002  1.0000
  O   O1        1.0  0.28656  0.75574  0.0438  1.0000
  O   O2        1.0  0.11373  0.24096  0.95615  1.0000
  O   O3        1.0  0.64223  0.9659  0.47759000000000007  1.0000
  O   O4        1.0  0.59736  0.50512  0.05057  1.0000
  O   O5        1.0  0.87982  0.44974  0.026780000000000005  1.0000
  O   O6        1.0  0.33389  0.28544  0.5254300000000001  1.0000
  O   O7        1.0  0.14613999999999996  0.12953  0.36976000000000003  1.0000
  O   O8        1.0  0.08836000000000006  0.19506  0.63898  1.0000
  O   O9        1.0  0.6986  0.55485  0.89257  1.0000
  O   O10       1.0  0.92452  0.8057  0.36377  1.0000
  O   O11       1.0  0.59614  0.78806  0.97954  1.0000
  O   O12       1.0  0.57536  0.20013  0.56317  1.0000
  O   O13       1.0  0.8770600000000001  0.70481  0.94271  1.0000
  O   O14       1.0  0.38826999999999995  0.02768  0.4514100000000001  1.0000
  O   O15       1.0  0.08692  0.26103  0.45427000000000006  1.0000
  O   O16       1.0  0.3639199999999999  0.53392  0.9765600000000001  1.0000
  O   O17       1.0  0.6476500000000001  0.86991  0.63045  1.0000
  O   O18       1.0  0.04704000000000002  0.30807  0.13466  1.0000
  O   O19       1.0  0.1468199999999999  0.7164700000000002  0.4746200000000001  1.0000
  O   O20       1.0  0.16053999999999993  0.48304000000000014  0.95304  1.0000
  O   O21       1.0  0.03148999999999994  0.37207  0.8721000000000001  1.0000
  O   O22       1.0  0.9990099999999997  0.9490900000000002  0.39078000000000007  1.0000
  O   O23       1.0  0.50834  0.3115  0.05716  1.0000
  O   O24       1.0  0.17373  0.43416000000000005  0.10197  1.0000
  O   O25       1.0  0.33564999999999995  0.05183  0.6097300000000001  1.0000
  O   O26       1.0  0.8037100000000001  0.73899  0.54506  1.0000
  O   O27       1.0  0.4779799999999999  0.6941  0.86293  1.0000
  O   O28       1.0  0.2738800000000001  0.62268  0.12844  1.0000
  O   O29       1.0  0.34582  0.22939  0.01965  1.0000
  O   O30       1.0  0.08282999999999999  0.03829  0.52462  1.0000
  O   O31       1.0  0.34154999999999996  0.79948  0.4345300000000001  1.0000
  O   O32       1.0  0.8660099999999997  0.97585  0.54899  1.0000
