data_image0
_chemical_formula_structural       La4H60C48O24
_chemical_formula_sum              "La4 H60 C48 O24"
_cell_length_a       10.46289
_cell_length_b       12.217020000000002
_cell_length_c       18.12953
_cell_angle_alpha    89.81987000000001
_cell_angle_beta     89.70604
_cell_angle_gamma    108.73235

_space_group_name_H-M_alt    "P 1"
_space_group_IT_number       1

loop_
  _space_group_symop_operation_xyz
  'x, y, z'

loop_
  _atom_site_type_symbol
  _atom_site_label
  _atom_site_symmetry_multiplicity
  _atom_site_fract_x
  _atom_site_fract_y
  _atom_site_fract_z
  _atom_site_occupancy
  La  La1       1.0  0.52336  0.6364  0.93372  1.0000
  La  La2       1.0  0.9780399999999999  0.86345  0.43522  1.0000
  La  La3       1.0  0.4766399999999999  0.36359  0.06628  1.0000
  La  La4       1.0  0.021960000000000004  0.13655  0.56479  1.0000
  H   H1        1.0  0.6933199999999999  0.28771  0.86538  1.0000
  H   H2        1.0  0.7879699999999998  0.49043  0.81246  1.0000
  H   H3        1.0  0.6661399999999998  0.45197  0.74266  1.0000
  H   H4        1.0  0.88468  0.4322099999999999  0.69708  1.0000
  H   H5        1.0  0.8858399999999995  0.3396399999999999  0.77184  1.0000
  H   H6        1.0  0.68271  0.29395  0.64583  1.0000
  H   H7        1.0  0.6885299999999999  0.12931  0.7730799999999999  1.0000
  H   H8        1.0  0.5704899999999999  0.10086  0.70134  1.0000
  H   H9        1.0  0.47938  0.25438  0.74634  1.0000
  H   H10       1.0  0.47745  0.15666  0.81886  1.0000
  H   H11       1.0  0.12431999999999999  0.4638  0.92742  1.0000
  H   H12       1.0  0.23394  0.63981  0.00138  1.0000
  H   H13       1.0  0.13197  0.5768  0.0781  1.0000
  H   H14       1.0  0.9714599999999998  0.36533999999999994  0.07068  1.0000
  H   H15       1.0  0.96296  0.28775  0.9882299999999999  1.0000
  H   H16       1.0  0.80271  0.20858  0.36386  1.0000
  H   H17       1.0  0.7083499999999998  0.00453  0.31338  1.0000
  H   H18       1.0  0.8294999999999998  0.04319999999999999  0.24226  1.0000
  H   H19       1.0  0.60982  0.06325  0.19878  1.0000
  H   H20       1.0  0.61037  0.15567  0.27328  1.0000
  H   H21       1.0  0.8109499999999998  0.20102  0.14490999999999998  1.0000
  H   H22       1.0  0.8086899999999999  0.36599999999999994  0.27168  1.0000
  H   H23       1.0  0.92508  0.39391999999999994  0.19851  1.0000
  H   H24       1.0  0.015419999999999998  0.23899  0.24308  1.0000
  H   H25       1.0  0.020050000000000005  0.33782  0.31513  1.0000
  H   H26       1.0  0.37658  0.03526  0.42698  1.0000
  H   H27       1.0  0.26643999999999995  0.8594899999999999  0.50292  1.0000
  H   H28       1.0  0.36746999999999996  0.92403  0.57884  1.0000
  H   H29       1.0  0.5267699999999998  0.135  0.56937  1.0000
  H   H30       1.0  0.5366  0.21196999999999996  0.48619  1.0000
  H   H31       1.0  0.30667999999999995  0.7122799999999999  0.13463  1.0000
  H   H32       1.0  0.21203  0.50957  0.18754  1.0000
  H   H33       1.0  0.33386  0.54803  0.25734  1.0000
  H   H34       1.0  0.11531999999999999  0.56779  0.30292  1.0000
  H   H35       1.0  0.11415999999999994  0.66036  0.22816  1.0000
  H   H36       1.0  0.31728999999999996  0.70605  0.35417  1.0000
  H   H37       1.0  0.31147  0.87068  0.22692  1.0000
  H   H38       1.0  0.42950999999999995  0.8991299999999999  0.29866  1.0000
  H   H39       1.0  0.52062  0.7456199999999998  0.25366  1.0000
  H   H40       1.0  0.52255  0.84334  0.18114  1.0000
  H   H41       1.0  0.87568  0.5362  0.07258  1.0000
  H   H42       1.0  0.7660699999999998  0.36019  0.9986200000000001  1.0000
  H   H43       1.0  0.8680299999999999  0.42319999999999997  0.9219000000000002  1.0000
  H   H44       1.0  0.028540000000000006  0.63466  0.92932  1.0000
  H   H45       1.0  0.03703999999999998  0.71225  0.01177  1.0000
  H   H46       1.0  0.1972899999999999  0.7914199999999999  0.63614  1.0000
  H   H47       1.0  0.29163999999999995  0.9954699999999999  0.68662  1.0000
  H   H48       1.0  0.1704999999999999  0.9567999999999998  0.75774  1.0000
  H   H49       1.0  0.39017999999999986  0.9367499999999999  0.80122  1.0000
  H   H50       1.0  0.38963  0.8443299999999998  0.72672  1.0000
  H   H51       1.0  0.18905  0.79897  0.85509  1.0000
  H   H52       1.0  0.19131  0.634  0.72833  1.0000
  H   H53       1.0  0.07490999999999995  0.60608  0.80149  1.0000
  H   H54       1.0  0.9845799999999999  0.76101  0.75692  1.0000
  H   H55       1.0  0.9799499999999998  0.66218  0.68487  1.0000
  H   H56       1.0  0.6234199999999999  0.96474  0.57302  1.0000
  H   H57       1.0  0.7335599999999998  0.14051  0.49707999999999997  1.0000
  H   H58       1.0  0.63253  0.07597  0.42116  1.0000
  H   H59       1.0  0.4732299999999999  0.865  0.43063  1.0000
  H   H60       1.0  0.4634  0.7880299999999999  0.51381  1.0000
  C   C1        1.0  0.55004  0.37205999999999995  0.88139  1.0000
  C   C2        1.0  0.6326799999999998  0.32400999999999996  0.82921  1.0000
  C   C3        1.0  0.7271299999999998  0.41711  0.77933  1.0000
  C   C4        1.0  0.81902  0.36692  0.7344  1.0000
  C   C5        1.0  0.73638  0.26154  0.68843  1.0000
  C   C6        1.0  0.63391  0.17039  0.73636  1.0000
  C   C7        1.0  0.54432  0.22278  0.78242  1.0000
  C   C8        1.0  0.11594  0.45704  0.98812  1.0000
  C   C9        1.0  0.13461999999999996  0.58001  0.01743  1.0000
  C   C10       1.0  0.9771  0.37446  0.01028  1.0000
  C   C11       1.0  0.8368  0.21642  0.6483599999999999  1.0000
  C   C12       1.0  0.23221999999999995  0.41756999999999994  0.01234  1.0000
  C   C13       1.0  0.94626  0.12461  0.38026  1.0000
  C   C14       1.0  0.8632899999999999  0.17144999999999994  0.32799999999999996  1.0000
  C   C15       1.0  0.7687199999999998  0.07786  0.27942  1.0000
  C   C16       1.0  0.67647  0.12815  0.23524999999999996  1.0000
  C   C17       1.0  0.7583899999999998  0.2335  0.18827  1.0000
  C   C18       1.0  0.8623499999999997  0.32453  0.2345  1.0000
  C   C19       1.0  0.9520199999999998  0.27178  0.27975  1.0000
  C   C20       1.0  0.38394  0.04247000000000001  0.48761  1.0000
  C   C21       1.0  0.36529999999999996  0.9198999999999998  0.51823  1.0000
  C   C22       1.0  0.52228  0.12544  0.50905  1.0000
  C   C23       1.0  0.65835  0.28013  0.14949  1.0000
  C   C24       1.0  0.26765  0.08246  0.51156  1.0000
  C   C25       1.0  0.44995  0.62792  0.11863  1.0000
  C   C26       1.0  0.3673199999999999  0.67599  0.17079  1.0000
  C   C27       1.0  0.27286999999999995  0.58288  0.22067  1.0000
  C   C28       1.0  0.18098  0.63308  0.26559999999999995  1.0000
  C   C29       1.0  0.26361999999999997  0.73846  0.31157  1.0000
  C   C30       1.0  0.36608999999999986  0.82961  0.26365  1.0000
  C   C31       1.0  0.45566999999999996  0.77721  0.21758  1.0000
  C   C32       1.0  0.88405  0.54296  0.01188  1.0000
  C   C33       1.0  0.8653699999999999  0.41999  0.98258  1.0000
  C   C34       1.0  0.022899999999999927  0.62554  0.98972  1.0000
  C   C35       1.0  0.16320000000000004  0.78358  0.35164  1.0000
  C   C36       1.0  0.7677599999999999  0.58238  0.9876799999999999  1.0000
  C   C37       1.0  0.05374  0.87537  0.61974  1.0000
  C   C38       1.0  0.1367  0.82855  0.672  1.0000
  C   C39       1.0  0.23127999999999999  0.92214  0.72058  1.0000
  C   C40       1.0  0.32352999999999993  0.87185  0.76475  1.0000
  C   C41       1.0  0.24160999999999996  0.7665  0.81173  1.0000
  C   C42       1.0  0.13765000000000002  0.67547  0.76551  1.0000
  C   C43       1.0  0.047979999999999974  0.72822  0.7202499999999998  1.0000
  C   C44       1.0  0.6160499999999999  0.9575299999999999  0.51239  1.0000
  C   C45       1.0  0.6347  0.0801  0.48177999999999993  1.0000
  C   C46       1.0  0.47772  0.87456  0.49095  1.0000
  C   C47       1.0  0.34163999999999994  0.71987  0.85051  1.0000
  C   C48       1.0  0.73234  0.91753  0.48843  1.0000
  O   O1        1.0  0.53805  0.47040999999999994  0.86644  1.0000
  O   O2        1.0  0.35035  0.4764  0.9866299999999999  1.0000
  O   O3        1.0  0.8499999999999999  0.11915  0.66594  1.0000
  O   O4        1.0  0.91199  0.28071  0.59755  1.0000
  O   O5        1.0  0.50013  0.31233  0.93917  1.0000
  O   O6        1.0  0.21920999999999993  0.33322  0.05577000000000001  1.0000
  O   O7        1.0  0.9606099999999999  0.02707  0.36606  1.0000
  O   O8        1.0  0.15002  0.025959999999999997  0.48501999999999995  1.0000
  O   O9        1.0  0.6560299999999999  0.38232  0.16236  1.0000
  O   O10       1.0  0.57341  0.21294  0.10437999999999999  1.0000
  O   O11       1.0  0.9946899999999999  0.18508999999999998  0.43741  1.0000
  O   O12       1.0  0.28019  0.16545  0.55562  1.0000
  O   O13       1.0  0.46194999999999997  0.5296  0.13356  1.0000
  O   O14       1.0  0.6496599999999999  0.5236  0.01334  1.0000
  O   O15       1.0  0.14999000000000004  0.88085  0.33406  1.0000
  O   O16       1.0  0.08799999999999995  0.71929  0.40245  1.0000
  O   O17       1.0  0.49987999999999994  0.68768  0.06082  1.0000
  O   O18       1.0  0.7808  0.66682  0.94422  1.0000
  O   O19       1.0  0.039389999999999994  0.97294  0.63395  1.0000
  O   O20       1.0  0.8499799999999997  0.9740399999999999  0.51498  1.0000
  O   O21       1.0  0.34397  0.61768  0.83764  1.0000
  O   O22       1.0  0.4265899999999999  0.78705  0.89563  1.0000
  O   O23       1.0  0.005309999999999954  0.8149099999999999  0.5626  1.0000
  O   O24       1.0  0.7198099999999997  0.83455  0.44439  1.0000
