data_image0
_chemical_formula_structural       Mg12H24C24O48
_chemical_formula_sum              "Mg12 H24 C24 O48"
_cell_length_a       10.04376
_cell_length_b       11.55354
_cell_length_c       14.814379999999998
_cell_angle_alpha    91.4644
_cell_angle_beta     89.99595000000001
_cell_angle_gamma    89.93248999999999

_space_group_name_H-M_alt    "P 1"
_space_group_IT_number       1

loop_
  _space_group_symop_operation_xyz
  'x, y, z'

loop_
  _atom_site_type_symbol
  _atom_site_label
  _atom_site_symmetry_multiplicity
  _atom_site_fract_x
  _atom_site_fract_y
  _atom_site_fract_z
  _atom_site_occupancy
  Mg  Mg1       1.0  0.57894  0.74396  0.36692  1.0000
  Mg  Mg2       1.0  0.38908  0.76055  0.19054  1.0000
  Mg  Mg3       1.0  0.07913  0.7552  0.13328  1.0000
  Mg  Mg4       1.0  0.88873  0.7392300000000002  0.30988  1.0000
  Mg  Mg5       1.0  0.42107  0.25604  0.63308  1.0000
  Mg  Mg6       1.0  0.61093  0.23944  0.80946  1.0000
  Mg  Mg7       1.0  0.92087  0.2448  0.86672  1.0000
  Mg  Mg8       1.0  0.11127000000000001  0.26077  0.69012  1.0000
  Mg  Mg9       1.0  0.5  0.0  0.5  1.0000
  Mg  Mg10      1.0  0.0  0.5  0.0  1.0000
  Mg  Mg11      1.0  0.5  0.5  0.5  1.0000
  Mg  Mg12      1.0  0.0  0.0  0.0  1.0000
  H   H1        1.0  0.45780000000000004  0.025930000000000005  0.22917  1.0000
  H   H2        1.0  0.8943100000000002  0.94029  0.45626  1.0000
  H   H3        1.0  0.79405  0.4941  0.487  1.0000
  H   H4        1.0  0.75087  0.63767  0.12767  1.0000
  H   H5        1.0  0.33959  0.81021  0.57627  1.0000
  H   H6        1.0  0.29197  0.5229  0.26707  1.0000
  H   H7        1.0  0.9575899999999999  0.47312  0.27099  1.0000
  H   H8        1.0  0.395  0.55909  0.04327  1.0000
  H   H9        1.0  0.29317  0.0053  0.01339  1.0000
  H   H10       1.0  0.25046  0.86197  0.37289  1.0000
  H   H11       1.0  0.8389000000000001  0.69097  0.92326  1.0000
  H   H12       1.0  0.79245  0.9760200000000001  0.23311  1.0000
  H   H13       1.0  0.5422  0.9740700000000001  0.77083  1.0000
  H   H14       1.0  0.10568999999999999  0.05971  0.54374  1.0000
  H   H15       1.0  0.20595000000000002  0.5059  0.51299  1.0000
  H   H16       1.0  0.24913  0.36233  0.87233  1.0000
  H   H17       1.0  0.66042  0.18979  0.42373  1.0000
  H   H18       1.0  0.70804  0.4771000000000001  0.73293  1.0000
  H   H19       1.0  0.04241  0.52688  0.72901  1.0000
  H   H20       1.0  0.60501  0.44091  0.95673  1.0000
  H   H21       1.0  0.70684  0.9947  0.98661  1.0000
  H   H22       1.0  0.74955  0.13802999999999999  0.6271099999999998  1.0000
  H   H23       1.0  0.16111  0.30903  0.07674  1.0000
  H   H24       1.0  0.20756000000000002  0.02398  0.76689  1.0000
  C   C1        1.0  0.48307  0.97924  0.29084  1.0000
  C   C2        1.0  0.78676  0.92362  0.4488  1.0000
  C   C3        1.0  0.77536  0.5672  0.44250999999999996  1.0000
  C   C4        1.0  0.6705  0.67271  0.17085  1.0000
  C   C5        1.0  0.40339  0.75886  0.53012  1.0000
  C   C6        1.0  0.36703  0.55126  0.31739  1.0000
  C   C7        1.0  0.9830799999999998  0.51949  0.20923  1.0000
  C   C8        1.0  0.28777  0.57696  0.0512  1.0000
  C   C9        1.0  0.27516  0.93258  0.05832999999999999  1.0000
  C   C10       1.0  0.17045  0.82716  0.32929  1.0000
  C   C11       1.0  0.9024  0.74179  0.96986  1.0000
  C   C12       1.0  0.8671200000000001  0.9470900000000001  0.18264  1.0000
  C   C13       1.0  0.51694  0.02076  0.70916  1.0000
  C   C14       1.0  0.21324  0.07638  0.5511999999999999  1.0000
  C   C15       1.0  0.22464000000000003  0.4328  0.55749  1.0000
  C   C16       1.0  0.32951  0.32729  0.82915  1.0000
  C   C17       1.0  0.59662  0.24114000000000002  0.46988  1.0000
  C   C18       1.0  0.63297  0.44874  0.68261  1.0000
  C   C19       1.0  0.01692  0.48051  0.79077  1.0000
  C   C20       1.0  0.71223  0.42303999999999997  0.9488  1.0000
  C   C21       1.0  0.72485  0.06742  0.94167  1.0000
  C   C22       1.0  0.82955  0.17284  0.67071  1.0000
  C   C23       1.0  0.09761  0.25821  0.03014  1.0000
  C   C24       1.0  0.13288  0.05290000000000001  0.8173599999999999  1.0000
  O   O1        1.0  0.49293000000000003  0.86817  0.28169  1.0000
  O   O2        1.0  0.4999  0.03555  0.36308  1.0000
  O   O3        1.0  0.75485  0.84317  0.39038  1.0000
  O   O4        1.0  0.70716  0.98284  0.49575  1.0000
  O   O5        1.0  0.65269  0.60026  0.43623  1.0000
  O   O6        1.0  0.87292  0.61064  0.40256  1.0000
  O   O7        1.0  0.70023  0.69663  0.25402  1.0000
  O   O8        1.0  0.55782  0.6857  0.1357  1.0000
  O   O9        1.0  0.47775999999999996  0.81748  0.47645  1.0000
  O   O10       1.0  0.39827999999999997  0.65096  0.53238  1.0000
  O   O11       1.0  0.41969000000000006  0.65147  0.30451  1.0000
  O   O12       1.0  0.39282  0.48534  0.38063  1.0000
  O   O13       1.0  0.9931100000000002  0.6305  0.21834  1.0000
  O   O14       1.0  0.99991  0.46275  0.13706  1.0000
  O   O15       1.0  0.25736  0.65726  0.11017  1.0000
  O   O16       1.0  0.20693  0.51945  0.00416  1.0000
  O   O17       1.0  0.1531  0.8975800000000002  0.06344  1.0000
  O   O18       1.0  0.3729  0.89154  0.09977  1.0000
  O   O19       1.0  0.20025000000000004  0.80562  0.24579  1.0000
  O   O20       1.0  0.05816000000000001  0.81208  0.36443  1.0000
  O   O21       1.0  0.9748100000000001  0.68225  0.02421  1.0000
  O   O22       1.0  0.89854  0.84976  0.96738  1.0000
  O   O23       1.0  0.9195400000000001  0.8467100000000001  0.19556  1.0000
  O   O24       1.0  0.8928000000000001  0.01263  0.11919  1.0000
  O   O25       1.0  0.50707  0.13183  0.71831  1.0000
  O   O26       1.0  0.50011  0.9644500000000001  0.63692  1.0000
  O   O27       1.0  0.24516  0.15682  0.60962  1.0000
  O   O28       1.0  0.29284  0.01715  0.50425  1.0000
  O   O29       1.0  0.34731  0.39974000000000004  0.56377  1.0000
  O   O30       1.0  0.12709  0.38936000000000004  0.59744  1.0000
  O   O31       1.0  0.29978  0.30337  0.74598  1.0000
  O   O32       1.0  0.44218  0.3143  0.8643  1.0000
  O   O33       1.0  0.52224  0.18252  0.52355  1.0000
  O   O34       1.0  0.60172  0.34904  0.46762  1.0000
  O   O35       1.0  0.58032  0.34852000000000005  0.69549  1.0000
  O   O36       1.0  0.60718  0.51465  0.61937  1.0000
  O   O37       1.0  0.006889999999999999  0.3695  0.78166  1.0000
  O   O38       1.0  9.999999999999995e-05  0.53725  0.86294  1.0000
  O   O39       1.0  0.74264  0.34274  0.88983  1.0000
  O   O40       1.0  0.79307  0.48055  0.99584  1.0000
  O   O41       1.0  0.8469  0.10241999999999998  0.9365599999999997  1.0000
  O   O42       1.0  0.62711  0.10846  0.90023  1.0000
  O   O43       1.0  0.79976  0.19438  0.75421  1.0000
  O   O44       1.0  0.9418400000000001  0.18792  0.63557  1.0000
  O   O45       1.0  0.025200000000000004  0.31775  0.97579  1.0000
  O   O46       1.0  0.10147  0.15023  0.03262  1.0000
  O   O47       1.0  0.08046  0.15329  0.80444  1.0000
  O   O48       1.0  0.1072  0.98737  0.88081  1.0000
