data_image0
_chemical_formula_structural       Cu4H32C60N16O16
_chemical_formula_sum              "Cu4 H32 C60 N16 O16"
_cell_length_a       9.93985
_cell_length_b       11.56953
_cell_length_c       17.58287
_cell_angle_alpha    89.92500999999999
_cell_angle_beta     90.02959
_cell_angle_gamma    95.76485

_symmetry_space_group_name_H-M    'P 1'
_symmetry_Int_Tables_number       1

loop_
  _symmetry_equiv_pos_as_xyz
  'x,y,z'

loop_
  _atom_site_type_symbol
  _atom_site_label
  _atom_site_symmetry_multiplicity
  _atom_site_fract_x
  _atom_site_fract_y
  _atom_site_fract_z
  _atom_site_occupancy
  Cu  Cu1       1.0  0.5667  0.65968  0.45367  1.0000
  Cu  Cu2       1.0  0.9333199999999999  0.8395200000000003  0.95388  1.0000
  Cu  Cu3       1.0  0.43329999999999996  0.34032  0.54634  1.0000
  Cu  Cu4       1.0  0.06667000000000001  0.16048000000000004  0.04612  1.0000
  H   H1        1.0  0.39165999999999995  0.84844  0.94395  1.0000
  H   H2        1.0  0.65749  0.7052600000000001  0.78429  1.0000
  H   H3        1.0  0.22847999999999996  0.69406  0.7365800000000002  1.0000
  H   H4        1.0  0.39345  0.4547  0.71226  1.0000
  H   H5        1.0  0.53018  0.8874100000000003  0.6984000000000002  1.0000
  H   H6        1.0  0.6148  0.08043  0.64546  1.0000
  H   H7        1.0  0.7011999999999999  0.09423  0.5114  1.0000
  H   H8        1.0  0.68457  0.90943  0.4322  1.0000
  H   H9        1.0  0.10888  0.6482400000000001  0.4435100000000001  1.0000
  H   H10       1.0  0.84254  0.7944200000000002  0.28505  1.0000
  H   H11       1.0  0.27135  0.80612  0.23683  1.0000
  H   H12       1.0  0.10571  0.045910000000000006  0.21253  1.0000
  H   H13       1.0  0.9713599999999999  0.6133  0.19936000000000006  1.0000
  H   H14       1.0  0.88737  0.41999  0.14717  1.0000
  H   H15       1.0  0.8000799999999999  0.40551  0.013250000000000003  1.0000
  H   H16       1.0  0.81587  0.58995  0.93342  1.0000
  H   H17       1.0  0.60833  0.15155  0.05605  1.0000
  H   H18       1.0  0.3425  0.29474  0.21571000000000007  1.0000
  H   H19       1.0  0.7715099999999999  0.30594  0.26343  1.0000
  H   H20       1.0  0.6065399999999999  0.5453000000000001  0.28774  1.0000
  H   H21       1.0  0.46981  0.11258  0.3016  1.0000
  H   H22       1.0  0.3852  0.91956  0.35454  1.0000
  H   H23       1.0  0.29879  0.9057600000000002  0.48861000000000004  1.0000
  H   H24       1.0  0.31542  0.09057  0.5678  1.0000
  H   H25       1.0  0.8911099999999998  0.35175  0.55649  1.0000
  H   H26       1.0  0.15745  0.20557000000000006  0.71495  1.0000
  H   H27       1.0  0.72864  0.19388000000000002  0.76317  1.0000
  H   H28       1.0  0.8942799999999999  0.95408  0.7874800000000001  1.0000
  H   H29       1.0  0.02863  0.3867  0.80064  1.0000
  H   H30       1.0  0.11261999999999998  0.58  0.8528300000000002  1.0000
  H   H31       1.0  0.19990999999999998  0.59449  0.9867500000000001  1.0000
  H   H32       1.0  0.18413000000000002  0.41005000000000014  0.06658  1.0000
  C   C1        1.0  0.6568899999999999  0.81916  0.9193700000000001  1.0000
  C   C2        1.0  0.15143  0.78927  0.86476  1.0000
  C   C3        1.0  0.40594  0.80434  0.89031  1.0000
  C   C4        1.0  0.53679  0.7819600000000001  0.86887  1.0000
  C   C5        1.0  0.29507  0.77155  0.8429800000000001  1.0000
  C   C6        1.0  0.5562899999999998  0.72394  0.80042  1.0000
  C   C7        1.0  0.31512  0.71661  0.7735000000000002  1.0000
  C   C8        1.0  0.44504  0.69251  0.75389  1.0000
  C   C9        1.0  0.43302999999999997  0.51768  0.67031  1.0000
  C   C10       1.0  0.51524  0.67901  0.61509  1.0000
  C   C11       1.0  0.56171  0.7978400000000001  0.59298  1.0000
  C   C12       1.0  0.5654  0.89542  0.6399800000000002  1.0000
  C   C13       1.0  0.61488  0.003220000000000001  0.61024  1.0000
  C   C14       1.0  0.6618  0.01085  0.5354500000000001  1.0000
  C   C15       1.0  0.6527599999999999  0.90998  0.49143000000000003  1.0000
  C   C16       1.0  0.8433599999999999  0.6783100000000001  0.41933000000000004  1.0000
  C   C17       1.0  0.34868  0.70869  0.3647  1.0000
  C   C18       1.0  0.09433  0.69342  0.39019  1.0000
  C   C19       1.0  0.9634499999999999  0.71623  0.36895  1.0000
  C   C20       1.0  0.20514  0.7271700000000001  0.34303  1.0000
  C   C21       1.0  0.94387  0.7756  0.30090000000000006  1.0000
  C   C22       1.0  0.1849  0.7830600000000001  0.27378000000000013  1.0000
  C   C23       1.0  0.05496000000000001  0.80763  0.25439  1.0000
  C   C24       1.0  0.06646000000000002  0.9828900000000003  0.1706  1.0000
  C   C25       1.0  0.9851  0.8214000000000001  0.11553000000000001  1.0000
  C   C26       1.0  0.93896  0.70244  0.09375000000000003  1.0000
  C   C27       1.0  0.9358199999999999  0.60505  0.14103  1.0000
  C   C28       1.0  0.8865799999999999  0.49704000000000004  0.11172000000000001  1.0000
  C   C29       1.0  0.83928  0.48905  0.037  1.0000
  C   C30       1.0  0.84786  0.5897  0.9926400000000001  1.0000
  C   C31       1.0  0.34309999999999996  0.18084  0.08063  1.0000
  C   C32       1.0  0.84857  0.21073000000000006  0.13524000000000005  1.0000
  C   C33       1.0  0.59405  0.19565000000000002  0.1097  1.0000
  C   C34       1.0  0.4632  0.21804000000000007  0.13113  1.0000
  C   C35       1.0  0.70492  0.22845000000000004  0.15703  1.0000
  C   C36       1.0  0.44371  0.27606  0.19958  1.0000
  C   C37       1.0  0.6848699999999999  0.28339  0.22650000000000006  1.0000
  C   C38       1.0  0.55495  0.30748  0.24611000000000002  1.0000
  C   C39       1.0  0.56696  0.48232  0.3297000000000001  1.0000
  C   C40       1.0  0.48475  0.32099  0.38492  1.0000
  C   C41       1.0  0.43828  0.20216  0.40702  1.0000
  C   C42       1.0  0.43459  0.10457  0.3600200000000001  1.0000
  C   C43       1.0  0.38511  0.9967800000000002  0.38976  1.0000
  C   C44       1.0  0.33819000000000005  0.98914  0.46455  1.0000
  C   C45       1.0  0.34723  0.09001  0.50857  1.0000
  C   C46       1.0  0.15663  0.32168  0.5806700000000002  1.0000
  C   C47       1.0  0.65131  0.2913  0.63531  1.0000
  C   C48       1.0  0.9056599999999999  0.30657000000000006  0.60982  1.0000
  C   C49       1.0  0.03654000000000001  0.2837700000000001  0.63105  1.0000
  C   C50       1.0  0.7948599999999998  0.27282  0.65698  1.0000
  C   C51       1.0  0.05612  0.22439  0.6991  1.0000
  C   C52       1.0  0.81509  0.21693000000000004  0.7262200000000002  1.0000
  C   C53       1.0  0.9450299999999998  0.19237000000000004  0.7456200000000002  1.0000
  C   C54       1.0  0.9335299999999999  0.0171  0.8294000000000002  1.0000
  C   C55       1.0  0.014890000000000004  0.1786  0.88447  1.0000
  C   C56       1.0  0.061029999999999994  0.29755  0.90626  1.0000
  C   C57       1.0  0.06417  0.39495  0.85897  1.0000
  C   C58       1.0  0.11341000000000001  0.5029500000000001  0.88828  1.0000
  C   C59       1.0  0.16071999999999997  0.51095  0.963  1.0000
  C   C60       1.0  0.15213  0.41029  0.00736  1.0000
  N   N1        1.0  0.46469999999999995  0.63369  0.68304  1.0000
  N   N2        1.0  0.46212000000000003  0.49398  0.5989400000000002  1.0000
  N   N3        1.0  0.51476  0.59349  0.5647500000000001  1.0000
  N   N4        1.0  0.6022899999999999  0.8064200000000002  0.51911  1.0000
  N   N5        1.0  0.035  0.86684  0.18355  1.0000
  N   N6        1.0  0.03791  0.00652  0.09908  1.0000
  N   N7        1.0  0.9857999999999999  0.90679  0.06493  1.0000
  N   N8        1.0  0.8981199999999999  0.6934500000000001  0.01993  1.0000
  N   N9        1.0  0.53529  0.36631  0.31696  1.0000
  N   N10       1.0  0.53787  0.5060200000000001  0.40106  1.0000
  N   N11       1.0  0.48523  0.4065  0.43525000000000014  1.0000
  N   N12       1.0  0.39769999999999994  0.19357000000000002  0.48089000000000004  1.0000
  N   N13       1.0  0.96499  0.13315  0.81645  1.0000
  N   N14       1.0  0.96208  0.99347  0.9009300000000002  1.0000
  N   N15       1.0  0.0142  0.09321  0.9350700000000001  1.0000
  N   N16       1.0  0.10186999999999999  0.30654000000000003  0.98007  1.0000
  O   O1        1.0  0.6406799999999999  0.8679100000000001  0.9810000000000001  1.0000
  O   O2        1.0  0.77172  0.7942900000000002  0.8903900000000002  1.0000
  O   O3        1.0  0.13349  0.8109500000000001  0.93591  1.0000
  O   O4        1.0  0.061120000000000015  0.7776600000000001  0.81462  1.0000
  O   O5        1.0  0.8596099999999999  0.62919  0.48091000000000006  1.0000
  O   O6        1.0  0.72846  0.70322  0.3903400000000001  1.0000
  O   O7        1.0  0.36646  0.6869500000000001  0.43592  1.0000
  O   O8        1.0  0.43883999999999995  0.7199000000000001  0.31455  1.0000
  O   O9        1.0  0.35931  0.13209  0.019000000000000006  1.0000
  O   O10       1.0  0.22826999999999997  0.20571  0.10961000000000003  1.0000
  O   O11       1.0  0.86651  0.18904  0.06409  1.0000
  O   O12       1.0  0.9388699999999999  0.22233000000000003  0.18538000000000004  1.0000
  O   O13       1.0  0.14038000000000003  0.3708100000000001  0.51909  1.0000
  O   O14       1.0  0.27153  0.29677000000000003  0.6096600000000002  1.0000
  O   O15       1.0  0.6335299999999999  0.31305000000000005  0.56408  1.0000
  O   O16       1.0  0.56115  0.2801  0.68545  1.0000
