data_image0
_chemical_formula_structural       Cd4H32C56S8N24O4
_chemical_formula_sum              "Cd4 H32 C56 S8 N24 O4"
_cell_length_a       8.08003
_cell_length_b       9.64376
_cell_length_c       24.738909999999997
_cell_angle_alpha    90.00184
_cell_angle_beta     89.62659999999998
_cell_angle_gamma    89.99774

_symmetry_space_group_name_H-M    'P 1'
_symmetry_Int_Tables_number       1

loop_
  _symmetry_equiv_pos_as_xyz
  'x,y,z'

loop_
  _atom_site_type_symbol
  _atom_site_label
  _atom_site_symmetry_multiplicity
  _atom_site_fract_x
  _atom_site_fract_y
  _atom_site_fract_z
  _atom_site_occupancy
  Cd  Cd1       1.0  0.7437799999999998  0.24615000000000004  0.7563099999999998  1.0000
  Cd  Cd2       1.0  0.25622  0.74614  0.7436899999999999  1.0000
  Cd  Cd3       1.0  0.25623  0.75386  0.24368999999999996  1.0000
  Cd  Cd4       1.0  0.74377  0.25385  0.25632  1.0000
  H   H1        1.0  0.67932  0.51537  0.6852599999999999  1.0000
  H   H2        1.0  0.52564  0.60656  0.60521  1.0000
  H   H3        1.0  0.31179  0.19872  0.58667  1.0000
  H   H4        1.0  0.47412  0.12453  0.66709  1.0000
  H   H5        1.0  0.02397  0.61661  0.39599  1.0000
  H   H6        1.0  0.86088  0.52794  0.31745999999999996  1.0000
  H   H7        1.0  0.96214  0.11947  0.3578199999999999  1.0000
  H   H8        1.0  0.12752  0.19036000000000003  0.43811  1.0000
  H   H9        1.0  0.32067  0.01536  0.8147399999999998  1.0000
  H   H10       1.0  0.4743399999999999  0.10656000000000002  0.8948  1.0000
  H   H11       1.0  0.68821  0.6987100000000002  0.91334  1.0000
  H   H12       1.0  0.52588  0.62451  0.83292  1.0000
  H   H13       1.0  0.97604  0.11661  0.10401  1.0000
  H   H14       1.0  0.13911  0.02794  0.18254999999999993  1.0000
  H   H15       1.0  0.03783  0.61948  0.14219  1.0000
  H   H16       1.0  0.87246  0.69036  0.06189  1.0000
  H   H17       1.0  0.32067  0.48464000000000007  0.31473999999999996  1.0000
  H   H18       1.0  0.4743399999999999  0.39345  0.3948  1.0000
  H   H19       1.0  0.6882  0.80128  0.41332999999999986  1.0000
  H   H20       1.0  0.52589  0.8754699999999999  0.33291  1.0000
  H   H21       1.0  0.97602  0.3834  0.60401  1.0000
  H   H22       1.0  0.1391  0.47206  0.68255  1.0000
  H   H23       1.0  0.03784  0.8805300000000001  0.6421899999999999  1.0000
  H   H24       1.0  0.87246  0.80964  0.5618899999999999  1.0000
  H   H25       1.0  0.67933  0.9846500000000001  0.18525999999999998  1.0000
  H   H26       1.0  0.5256499999999997  0.89345  0.10520999999999998  1.0000
  H   H27       1.0  0.31178  0.30129  0.08667  1.0000
  H   H28       1.0  0.47412  0.37549  0.16708  1.0000
  H   H29       1.0  0.02395  0.8834  0.89599  1.0000
  H   H30       1.0  0.86088  0.9720599999999999  0.81746  1.0000
  H   H31       1.0  0.96216  0.38053  0.85781  1.0000
  H   H32       1.0  0.12752  0.30965  0.93811  1.0000
  C   C1        1.0  0.59864  0.44858999999999993  0.66169  1.0000
  C   C2        1.0  0.51262  0.49910000000000004  0.6176199999999998  1.0000
  C   C3        1.0  0.40953  0.40898  0.5889199999999999  1.0000
  C   C4        1.0  0.3934399999999999  0.27154  0.60675  1.0000
  C   C5        1.0  0.4840899999999998  0.22982000000000002  0.6516099999999999  1.0000
  C   C6        1.0  0.3234199999999999  0.46248  0.5421099999999999  1.0000
  C   C7        1.0  0.18021  0.46320000000000006  0.46932  1.0000
  C   C8        1.0  0.08715  0.41051  0.4237199999999999  1.0000
  C   C9        1.0  0.012310000000000001  0.5059  0.3887699999999999  1.0000
  C   C10       1.0  0.9218  0.45692000000000005  0.34522  1.0000
  C   C11       1.0  0.97725  0.22858000000000003  0.36800999999999995  1.0000
  C   C12       1.0  0.07001  0.26844  0.41269999999999996  1.0000
  C   C13       1.0  0.09533  0.06445  0.71547  1.0000
  C   C14       1.0  0.38836  0.4298699999999999  0.7808299999999998  1.0000
  C   C15       1.0  0.40135  0.94858  0.83831  1.0000
  C   C16       1.0  0.48736999999999997  0.9990900000000001  0.88239  1.0000
  C   C17       1.0  0.59046  0.90897  0.91108  1.0000
  C   C18       1.0  0.60655  0.77153  0.8932499999999998  1.0000
  C   C19       1.0  0.51591  0.7298  0.8484  1.0000
  C   C20       1.0  0.67657  0.9624800000000001  0.9578999999999999  1.0000
  C   C21       1.0  0.8197799999999998  0.96321  0.03069  1.0000
  C   C22       1.0  0.91284  0.9105100000000002  0.07628  1.0000
  C   C23       1.0  0.98769  0.00591  0.11122999999999997  1.0000
  C   C24       1.0  0.07819  0.95692  0.15477999999999997  1.0000
  C   C25       1.0  0.02273  0.72858  0.132  1.0000
  C   C26       1.0  0.92997  0.76845  0.08729999999999997  1.0000
  C   C27       1.0  0.90467  0.56448  0.7845399999999999  1.0000
  C   C28       1.0  0.61158  0.9298499999999998  0.7191699999999999  1.0000
  C   C29       1.0  0.40135  0.55142  0.33831  1.0000
  C   C30       1.0  0.48737  0.5009  0.38239  1.0000
  C   C31       1.0  0.5904699999999998  0.59102  0.41108  1.0000
  C   C32       1.0  0.60655  0.72846  0.3932499999999999  1.0000
  C   C33       1.0  0.51591  0.77019  0.3483899999999999  1.0000
  C   C34       1.0  0.67657  0.53752  0.4579  1.0000
  C   C35       1.0  0.8197799999999998  0.5368  0.53069  1.0000
  C   C36       1.0  0.91284  0.58949  0.57628  1.0000
  C   C37       1.0  0.9876799999999997  0.4941  0.61123  1.0000
  C   C38       1.0  0.07819  0.54308  0.65478  1.0000
  C   C39       1.0  0.02273  0.77142  0.6319999999999999  1.0000
  C   C40       1.0  0.92997  0.73156  0.5872999999999999  1.0000
  C   C41       1.0  0.90467  0.93554  0.28454  1.0000
  C   C42       1.0  0.61162  0.57015  0.21916999999999998  1.0000
  C   C43       1.0  0.5986499999999998  0.05143  0.16168999999999997  1.0000
  C   C44       1.0  0.51263  0.00092  0.11761  1.0000
  C   C45       1.0  0.40953  0.09103  0.08892  1.0000
  C   C46       1.0  0.3934499999999999  0.22847  0.10674999999999997  1.0000
  C   C47       1.0  0.4840899999999999  0.2702  0.15161  1.0000
  C   C48       1.0  0.3234199999999999  0.03753  0.0421  1.0000
  C   C49       1.0  0.18020999999999998  0.0368  0.96932  1.0000
  C   C50       1.0  0.08715  0.08949  0.9237199999999999  1.0000
  C   C51       1.0  0.012310000000000001  0.9940999999999999  0.88877  1.0000
  C   C52       1.0  0.9218  0.04308  0.8452199999999999  1.0000
  C   C53       1.0  0.97727  0.27142  0.8680099999999998  1.0000
  C   C54       1.0  0.07002000000000001  0.23156  0.9127  1.0000
  C   C55       1.0  0.09534  0.4355299999999999  0.21548  1.0000
  C   C56       1.0  0.3884  0.07014  0.28082  1.0000
  S   S1        1.0  0.9984199999999999  0.18876  0.6839799999999998  1.0000
  S   S2        1.0  0.47253000000000006  0.31292  0.81985  1.0000
  S   S3        1.0  0.0015400000000000043  0.6888  0.8160199999999999  1.0000
  S   S4        1.0  0.52747  0.8128900000000001  0.6801699999999999  1.0000
  S   S5        1.0  0.0015899999999999994  0.81126  0.31604  1.0000
  S   S6        1.0  0.52748  0.68709  0.18016  1.0000
  S   S7        1.0  0.99848  0.31117  0.18400999999999995  1.0000
  S   S8        1.0  0.47251  0.18711  0.31983999999999996  1.0000
  N   N1        1.0  0.5870399999999998  0.3157  0.6780499999999999  1.0000
  N   N2        1.0  0.31309  0.59218  0.52625  1.0000
  N   N3        1.0  0.22021  0.5927  0.4792799999999999  1.0000
  N   N4        1.0  0.9030699999999998  0.32053  0.3350099999999999  1.0000
  N   N5        1.0  0.16816  0.97448  0.7378199999999999  1.0000
  N   N6        1.0  0.3269499999999999  0.51451  0.75248  1.0000
  N   N7        1.0  0.41296  0.81568  0.82196  1.0000
  N   N8        1.0  0.6869  0.09217000000000002  0.9737499999999998  1.0000
  N   N9        1.0  0.77979  0.0927  0.02073  1.0000
  N   N10       1.0  0.09691  0.82053  0.165  1.0000
  N   N11       1.0  0.83181  0.47447  0.7621799999999997  1.0000
  N   N12       1.0  0.67301  0.014560000000000002  0.74753  1.0000
  N   N13       1.0  0.41296  0.68431  0.32195999999999997  1.0000
  N   N14       1.0  0.6869  0.40783  0.47375  1.0000
  N   N15       1.0  0.77978  0.4073  0.52073  1.0000
  N   N16       1.0  0.09691000000000001  0.67947  0.6649899999999999  1.0000
  N   N17       1.0  0.8318  0.0255  0.2621899999999999  1.0000
  N   N18       1.0  0.67306  0.48546000000000006  0.24751999999999993  1.0000
  N   N19       1.0  0.5870399999999998  0.18432  0.17803999999999998  1.0000
  N   N20       1.0  0.31309  0.90783  0.02625  1.0000
  N   N21       1.0  0.2202  0.9073  0.9792799999999998  1.0000
  N   N22       1.0  0.90308  0.17948  0.8350099999999998  1.0000
  N   N23       1.0  0.16816  0.52554  0.23781999999999995  1.0000
  N   N24       1.0  0.327  0.98546  0.25247  1.0000
  O   O1        1.0  0.24148999999999993  0.37416  0.5077699999999999  1.0000
  O   O2        1.0  0.75849  0.87416  0.99224  1.0000
  O   O3        1.0  0.75851  0.62584  0.49223  1.0000
  O   O4        1.0  0.24152  0.12585  0.00777  1.0000
