data_image0
_chemical_formula_structural       Ba4Zn4H24C64O36
_chemical_formula_sum              "Ba4 Zn4 H24 C64 O36"
_cell_length_a       11.06071
_cell_length_b       12.95714
_cell_length_c       19.39253
_cell_angle_alpha    102.77739999999999
_cell_angle_beta     89.98469
_cell_angle_gamma    90.13433

_symmetry_space_group_name_H-M    'P 1'
_symmetry_Int_Tables_number       1

loop_
  _symmetry_equiv_pos_as_xyz
  'x,y,z'

loop_
  _atom_site_type_symbol
  _atom_site_label
  _atom_site_symmetry_multiplicity
  _atom_site_fract_x
  _atom_site_fract_y
  _atom_site_fract_z
  _atom_site_occupancy
  Ba  Ba1       1.0  0.04329  0.12143999999999998  0.1023  1.0000
  Ba  Ba2       1.0  0.5413400000000002  0.37828999999999996  0.39783  1.0000
  Ba  Ba3       1.0  0.9567  0.8785599999999999  0.8977099999999999  1.0000
  Ba  Ba4       1.0  0.45865  0.62171  0.60217  1.0000
  Zn  Zn1       1.0  0.18508000000000002  0.83558  0.029519999999999998  1.0000
  Zn  Zn2       1.0  0.68774  0.6646099999999998  0.47090999999999994  1.0000
  Zn  Zn3       1.0  0.81491  0.16441999999999993  0.97048  1.0000
  Zn  Zn4       1.0  0.31225  0.33539999999999986  0.52909  1.0000
  H   H1        1.0  0.47829000000000005  0.05379999999999998  0.9558400000000001  1.0000
  H   H2        1.0  0.54598  0.20434999999999998  0.9054599999999999  1.0000
  H   H3        1.0  0.39441000000000004  0.31916  0.8636599999999999  1.0000
  H   H4        1.0  0.20339000000000002  0.28852999999999995  0.7349799999999999  1.0000
  H   H5        1.0  0.22012000000000004  0.6275899999999999  0.76606  1.0000
  H   H6        1.0  0.16756  0.48464999999999997  0.94469  1.0000
  H   H7        1.0  0.97878  0.44463  0.54476  1.0000
  H   H8        1.0  0.044070000000000005  0.29372999999999994  0.59526  1.0000
  H   H9        1.0  0.89053  0.17992  0.63687  1.0000
  H   H10       1.0  0.70079  0.21161  0.76525  1.0000
  H   H11       1.0  0.71997  0.8726899999999997  0.73388  1.0000
  H   H12       1.0  0.66572  0.01526999999999999  0.55543  1.0000
  H   H13       1.0  0.5217  0.9462099999999998  0.04416  1.0000
  H   H14       1.0  0.4540100000000001  0.79565  0.09454  1.0000
  H   H15       1.0  0.60558  0.68084  0.13634  1.0000
  H   H16       1.0  0.7966  0.7114699999999998  0.26503  1.0000
  H   H17       1.0  0.77987  0.3724099999999999  0.23394999999999996  1.0000
  H   H18       1.0  0.83243  0.51535  0.05531  1.0000
  H   H19       1.0  0.02121  0.55537  0.45524  1.0000
  H   H20       1.0  0.95592  0.7062699999999997  0.40474  1.0000
  H   H21       1.0  0.10946000000000002  0.82008  0.36313  1.0000
  H   H22       1.0  0.2992  0.78839  0.23474999999999996  1.0000
  H   H23       1.0  0.28002  0.12731  0.26612  1.0000
  H   H24       1.0  0.33427  0.9847299999999999  0.44457  1.0000
  C   C1        1.0  0.24935  0.9913599999999998  0.97222  1.0000
  C   C2        1.0  0.28811  0.08281999999999994  0.94277  1.0000
  C   C3        1.0  0.41222  0.10365000000000012  0.9374900000000002  1.0000
  C   C4        1.0  0.4499  0.18880999999999995  0.9097799999999999  1.0000
  C   C5        1.0  0.36542  0.25369999999999987  0.8864299999999999  1.0000
  C   C6        1.0  0.24214  0.23324  0.89183  1.0000
  C   C7        1.0  0.20178  0.14894  0.92066  1.0000
  C   C8        1.0  0.18134  0.3787899999999999  0.84204  1.0000
  C   C9        1.0  0.20141000000000003  0.36683  0.76973  1.0000
  C   C10       1.0  0.21865000000000004  0.45752999999999994  0.74256  1.0000
  C   C11       1.0  0.21166  0.55761  0.78786  1.0000
  C   C12       1.0  0.19430000000000003  0.56847  0.86056  1.0000
  C   C13       1.0  0.18119  0.47794999999999993  0.8883300000000001  1.0000
  C   C14       1.0  0.24741  0.44995  0.666  1.0000
  C   C15       1.0  0.18419  0.6774099999999998  0.90669  1.0000
  C   C16       1.0  0.06747  0.12859999999999994  0.9209599999999999  1.0000
  C   C17       1.0  0.75092  0.50851  0.5279  1.0000
  C   C18       1.0  0.78807  0.41688  0.5576  1.0000
  C   C19       1.0  0.9118600000000001  0.39531999999999995  0.56314  1.0000
  C   C20       1.0  0.94821  0.3100099999999999  0.59097  1.0000
  C   C21       1.0  0.86263  0.2456599999999999  0.61415  1.0000
  C   C22       1.0  0.73963  0.26676  0.6085  1.0000
  C   C23       1.0  0.70048  0.35131  0.57963  1.0000
  C   C24       1.0  0.67849  0.12133  0.65813  1.0000
  C   C25       1.0  0.6988  0.13336999999999993  0.73043  1.0000
  C   C26       1.0  0.71658  0.04282999999999994  0.75761  1.0000
  C   C27       1.0  0.71073  0.94272  0.7122399999999999  1.0000
  C   C28       1.0  0.69378  0.9318999999999998  0.63952  1.0000
  C   C29       1.0  0.67942  0.022239999999999975  0.61181  1.0000
  C   C30       1.0  0.74531  0.05054999999999996  0.83418  1.0000
  C   C31       1.0  0.68519  0.8231299999999999  0.59318  1.0000
  C   C32       1.0  0.5661  0.3717199999999999  0.57872  1.0000
  C   C33       1.0  0.75064  0.00865  0.02779  1.0000
  C   C34       1.0  0.71188  0.91718  0.05723  1.0000
  C   C35       1.0  0.58777  0.8963499999999998  0.06251  1.0000
  C   C36       1.0  0.55009  0.8111899999999999  0.09022  1.0000
  C   C37       1.0  0.63457  0.7462999999999999  0.11357000000000002  1.0000
  C   C38       1.0  0.75785  0.76676  0.10816999999999999  1.0000
  C   C39       1.0  0.79821  0.8510599999999998  0.07934  1.0000
  C   C40       1.0  0.8186500000000001  0.6212099999999998  0.15796  1.0000
  C   C41       1.0  0.79858  0.63317  0.23026999999999997  1.0000
  C   C42       1.0  0.78134  0.54248  0.25744  1.0000
  C   C43       1.0  0.78833  0.4423899999999999  0.21214  1.0000
  C   C44       1.0  0.80569  0.43153  0.13944  1.0000
  C   C45       1.0  0.8188000000000001  0.52205  0.11166999999999999  1.0000
  C   C46       1.0  0.75258  0.55006  0.33399999999999996  1.0000
  C   C47       1.0  0.8158000000000001  0.32259  0.09332  1.0000
  C   C48       1.0  0.93252  0.8714  0.07904  1.0000
  C   C49       1.0  0.24907000000000004  0.49148999999999987  0.47209999999999996  1.0000
  C   C50       1.0  0.21192000000000003  0.58312  0.4424  1.0000
  C   C51       1.0  0.08813  0.60468  0.43686  1.0000
  C   C52       1.0  0.05178  0.6899899999999999  0.40903  1.0000
  C   C53       1.0  0.13736  0.7543499999999999  0.38585  1.0000
  C   C54       1.0  0.26036  0.7332399999999998  0.3915  1.0000
  C   C55       1.0  0.29951  0.64869  0.42037  1.0000
  C   C56       1.0  0.3215  0.87867  0.34188  1.0000
  C   C57       1.0  0.30119  0.8666399999999997  0.26957  1.0000
  C   C58       1.0  0.28341  0.95718  0.24239  1.0000
  C   C59       1.0  0.28926  0.05728  0.28776  1.0000
  C   C60       1.0  0.30621  0.06809999999999997  0.36048  1.0000
  C   C61       1.0  0.32058  0.97776  0.38819  1.0000
  C   C62       1.0  0.25468  0.9494499999999999  0.16582  1.0000
  C   C63       1.0  0.3148  0.17687  0.40682  1.0000
  C   C64       1.0  0.43389  0.62828  0.42128  1.0000
  O   O1        1.0  0.13506  0.98422  0.98874  1.0000
  O   O2        1.0  0.32234  0.9220199999999996  0.9825699999999999  1.0000
  O   O3        1.0  0.15137  0.29022999999999993  0.8684699999999999  1.0000
  O   O4        1.0  0.25337  0.35571  0.62658  1.0000
  O   O5        1.0  0.26606  0.53479  0.64558  1.0000
  O   O6        1.0  0.14301  0.7500499999999999  0.8787199999999998  1.0000
  O   O7        1.0  0.21625000000000003  0.69022  0.9716700000000001  1.0000
  O   O8        1.0  0.023780000000000003  0.06050000000000002  0.87078  1.0000
  O   O9        1.0  0.00559  0.1837599999999999  0.9727899999999999  1.0000
  O   O10       1.0  0.63689  0.51591  0.51112  1.0000
  O   O11       1.0  0.82472  0.57771  0.51765  1.0000
  O   O12       1.0  0.6483  0.2097  0.63163  1.0000
  O   O13       1.0  0.7513500000000001  0.14471  0.8737400000000001  1.0000
  O   O14       1.0  0.76386  0.9657399999999999  0.8545599999999999  1.0000
  O   O15       1.0  0.64744  0.7492299999999998  0.6212  1.0000
  O   O16       1.0  0.7148  0.81175  0.52789  1.0000
  O   O17       1.0  0.52177  0.43912  0.62898  1.0000
  O   O18       1.0  0.50444  0.3170599999999999  0.52642  1.0000
  O   O19       1.0  0.86493  0.01578  0.01126  1.0000
  O   O20       1.0  0.67765  0.07797999999999998  0.01743  1.0000
  O   O21       1.0  0.84862  0.70977  0.13153  1.0000
  O   O22       1.0  0.74662  0.6442899999999999  0.3734199999999999  1.0000
  O   O23       1.0  0.73393  0.46522  0.35442  1.0000
  O   O24       1.0  0.85698  0.24995  0.12128  1.0000
  O   O25       1.0  0.78374  0.30978999999999995  0.02833  1.0000
  O   O26       1.0  0.97621  0.9394999999999998  0.12923  1.0000
  O   O27       1.0  0.9944000000000001  0.81624  0.027210000000000005  1.0000
  O   O28       1.0  0.36310000000000003  0.48408999999999985  0.48889  1.0000
  O   O29       1.0  0.17527  0.42229  0.48235  1.0000
  O   O30       1.0  0.35169  0.7903  0.36837  1.0000
  O   O31       1.0  0.24864  0.8552899999999998  0.12626  1.0000
  O   O32       1.0  0.23613000000000003  0.034259999999999985  0.14544  1.0000
  O   O33       1.0  0.35255  0.25077  0.3788  1.0000
  O   O34       1.0  0.28519  0.18825000000000003  0.47211  1.0000
  O   O35       1.0  0.47822  0.56088  0.37102  1.0000
  O   O36       1.0  0.49555000000000005  0.6829399999999999  0.47357999999999995  1.0000
