data_image0
_chemical_formula_structural       Cd4H40C64N16O16
_chemical_formula_sum              "Cd4 H40 C64 N16 O16"
_cell_length_a       10.53257
_cell_length_b       11.68682
_cell_length_c       16.62309
_cell_angle_alpha    89.89298000000001
_cell_angle_beta     95.15717
_cell_angle_gamma    89.42658

_symmetry_space_group_name_H-M    'P 1'
_symmetry_Int_Tables_number       1

loop_
  _symmetry_equiv_pos_as_xyz
  'x,y,z'

loop_
  _atom_site_type_symbol
  _atom_site_label
  _atom_site_symmetry_multiplicity
  _atom_site_fract_x
  _atom_site_fract_y
  _atom_site_fract_z
  _atom_site_occupancy
  Cd  Cd1       1.0  0.48355  0.6882900000000001  0.0367  1.0000
  Cd  Cd2       1.0  0.01581  0.18618  0.46508  1.0000
  Cd  Cd3       1.0  0.51645  0.31171  0.9633  1.0000
  Cd  Cd4       1.0  0.98419  0.81381  0.53492  1.0000
  H   H1        1.0  0.21120000000000005  0.45519  0.14956  1.0000
  H   H2        1.0  0.8015  0.45417  0.15851  1.0000
  H   H3        1.0  0.97741  0.71242  0.02344  1.0000
  H   H4        1.0  0.04899000000000001  0.09409  0.133  1.0000
  H   H5        1.0  0.11924000000000001  0.21953  0.09482  1.0000
  H   H6        1.0  0.95079  0.20522  0.08551  1.0000
  H   H7        1.0  0.83236  0.41603  0.40682  1.0000
  H   H8        1.0  0.8174400000000002  0.60071  0.4834300000000001  1.0000
  H   H9        1.0  0.13062  0.73306  0.38374  1.0000
  H   H10       1.0  0.14915  0.563  0.29451  1.0000
  H   H11       1.0  0.29206  0.96138  0.35188  1.0000
  H   H12       1.0  0.70158  0.9487300000000002  0.34317  1.0000
  H   H13       1.0  0.52917  0.21064  0.47908  1.0000
  H   H14       1.0  0.45184  0.5955300000000001  0.36733  1.0000
  H   H15       1.0  0.38048  0.72126  0.40588  1.0000
  H   H16       1.0  0.5492600000000001  0.70476  0.4153  1.0000
  H   H17       1.0  0.66957  0.9146  0.09448  1.0000
  H   H18       1.0  0.68393  0.09864  0.01693  1.0000
  H   H19       1.0  0.36926  0.2363  0.11499999999999999  1.0000
  H   H20       1.0  0.35146  0.06713  0.20535  1.0000
  H   H21       1.0  0.7888  0.54481  0.85044  1.0000
  H   H22       1.0  0.19849000000000006  0.54582  0.84149  1.0000
  H   H23       1.0  0.022589999999999996  0.28757  0.9765599999999999  1.0000
  H   H24       1.0  0.9510100000000001  0.9059  0.867  1.0000
  H   H25       1.0  0.88076  0.78046  0.90518  1.0000
  H   H26       1.0  0.04919999999999999  0.79477  0.91449  1.0000
  H   H27       1.0  0.16763  0.58396  0.59318  1.0000
  H   H28       1.0  0.18256  0.39929  0.51658  1.0000
  H   H29       1.0  0.86938  0.26693  0.61626  1.0000
  H   H30       1.0  0.85085  0.43699  0.7055  1.0000
  H   H31       1.0  0.70794  0.038610000000000005  0.64812  1.0000
  H   H32       1.0  0.2984200000000001  0.05126  0.65683  1.0000
  H   H33       1.0  0.47082000000000007  0.78935  0.52092  1.0000
  H   H34       1.0  0.54815  0.40447  0.63267  1.0000
  H   H35       1.0  0.6195099999999999  0.27873  0.59412  1.0000
  H   H36       1.0  0.45074000000000003  0.29523  0.5847  1.0000
  H   H37       1.0  0.33043  0.08539  0.90553  1.0000
  H   H38       1.0  0.31607  0.90135  0.98308  1.0000
  H   H39       1.0  0.63073  0.76369  0.885  1.0000
  H   H40       1.0  0.64854  0.93287  0.79466  1.0000
  C   C1        1.0  0.22334000000000007  0.63938  0.0528  1.0000
  C   C2        1.0  0.10561  0.58741  0.08161  1.0000
  C   C3        1.0  0.11708  0.49129  0.13229  1.0000
  C   C4        1.0  0.007620000000000002  0.44669  0.16108  1.0000
  C   C5        1.0  0.88679  0.49125000000000013  0.13742  1.0000
  C   C6        1.0  0.8754600000000001  0.58648  0.08611  1.0000
  C   C7        1.0  0.98538  0.63576  0.06046000000000001  1.0000
  C   C8        1.0  0.7459200000000001  0.6353  0.06019  1.0000
  C   C9        1.0  0.03829  0.1869  0.12524  1.0000
  C   C10       1.0  0.03031  0.23914000000000002  0.20581  1.0000
  C   C11       1.0  0.006650000000000003  0.36682000000000003  0.30068  1.0000
  C   C12       1.0  0.99271  0.47437  0.34426  1.0000
  C   C13       1.0  0.89843  0.48533  0.39841  1.0000
  C   C14       1.0  0.89085  0.58614  0.44231  1.0000
  C   C15       1.0  0.06401  0.66264  0.38441  1.0000
  C   C16       1.0  0.07511  0.56666  0.33609  1.0000
  C   C17       1.0  0.2807  0.1425  0.45002  1.0000
  C   C18       1.0  0.39883  0.09004  0.42035  1.0000
  C   C19       1.0  0.38652  0.99502  0.36911  1.0000
  C   C20       1.0  0.49532  0.94755  0.34027  1.0000
  C   C21       1.0  0.6168  0.98819  0.36427  1.0000
  C   C22       1.0  0.62925  0.08276  0.41573999999999994  1.0000
  C   C23       1.0  0.5197400000000001  0.13491  0.44154999999999994  1.0000
  C   C24       1.0  0.7594500000000002  0.12799  0.44139  1.0000
  C   C25       1.0  0.46188000000000007  0.68808  0.37552  1.0000
  C   C26       1.0  0.46969  0.74101  0.29511  1.0000
  C   C27       1.0  0.4940800000000001  0.8686600000000001  0.20032  1.0000
  C   C28       1.0  0.50854  0.97592  0.15645999999999996  1.0000
  C   C29       1.0  0.6032  0.9849900000000001  0.10251  1.0000
  C   C30       1.0  0.6104700000000001  0.08548000000000001  0.05806  1.0000
  C   C31       1.0  0.43649000000000004  0.16505000000000003  0.11508  1.0000
  C   C32       1.0  0.42576  0.06956  0.16396  1.0000
  C   C33       1.0  0.77665  0.36061  0.94721  1.0000
  C   C34       1.0  0.8943900000000001  0.41258  0.91839  1.0000
  C   C35       1.0  0.88291  0.5087  0.86771  1.0000
  C   C36       1.0  0.9923700000000001  0.5533  0.83892  1.0000
  C   C37       1.0  0.11321000000000002  0.50875  0.86258  1.0000
  C   C38       1.0  0.12453000000000003  0.41351  0.9139  1.0000
  C   C39       1.0  0.014610000000000015  0.36423  0.93955  1.0000
  C   C40       1.0  0.25408  0.36469  0.93981  1.0000
  C   C41       1.0  0.9617100000000002  0.81309  0.87476  1.0000
  C   C42       1.0  0.96969  0.76085  0.79419  1.0000
  C   C43       1.0  0.99334  0.6331800000000001  0.69932  1.0000
  C   C44       1.0  0.007290000000000001  0.52562  0.65575  1.0000
  C   C45       1.0  0.10157  0.51466  0.6016  1.0000
  C   C46       1.0  0.10915  0.41385000000000005  0.55769  1.0000
  C   C47       1.0  0.9359900000000001  0.33735000000000004  0.6156  1.0000
  C   C48       1.0  0.92489  0.43333  0.66391  1.0000
  C   C49       1.0  0.7193000000000002  0.85749  0.54998  1.0000
  C   C50       1.0  0.60116  0.9099500000000001  0.57965  1.0000
  C   C51       1.0  0.61348  0.00497  0.63089  1.0000
  C   C52       1.0  0.50468  0.05244  0.65973  1.0000
  C   C53       1.0  0.38319000000000003  0.011800000000000001  0.63574  1.0000
  C   C54       1.0  0.3707500000000001  0.91723  0.58426  1.0000
  C   C55       1.0  0.48026  0.8650800000000001  0.55845  1.0000
  C   C56       1.0  0.24055000000000004  0.872  0.55861  1.0000
  C   C57       1.0  0.53812  0.31192  0.62448  1.0000
  C   C58       1.0  0.5303  0.25898  0.7049  1.0000
  C   C59       1.0  0.50592  0.13133  0.79969  1.0000
  C   C60       1.0  0.49146000000000006  0.024070000000000005  0.84355  1.0000
  C   C61       1.0  0.3968  0.015000000000000001  0.8975  1.0000
  C   C62       1.0  0.38953000000000004  0.9145100000000002  0.94194  1.0000
  C   C63       1.0  0.5635  0.83494  0.88493  1.0000
  C   C64       1.0  0.5742400000000001  0.93043  0.83604  1.0000
  N   N1        1.0  0.019  0.35545  0.21942  1.0000
  N   N2        1.0  0.027560000000000008  0.18305  0.27494  1.0000
  N   N3        1.0  0.01193  0.26326  0.33388  1.0000
  N   N4        1.0  0.97378  0.67261  0.43684  1.0000
  N   N5        1.0  0.48244  0.85712  0.28169  1.0000
  N   N6        1.0  0.47081  0.68537  0.22586  1.0000
  N   N7        1.0  0.48688000000000003  0.76555  0.16698  1.0000
  N   N8        1.0  0.52692  0.17309  0.06275  1.0000
  N   N9        1.0  0.981  0.64454  0.78058  1.0000
  N   N10       1.0  0.9724400000000001  0.81695  0.72507  1.0000
  N   N11       1.0  0.98807  0.73673  0.66612  1.0000
  N   N12       1.0  0.02622  0.32739  0.56316  1.0000
  N   N13       1.0  0.51756  0.14287  0.71831  1.0000
  N   N14       1.0  0.52918  0.31462  0.77414  1.0000
  N   N15       1.0  0.5131099999999998  0.23444  0.83303  1.0000
  N   N16       1.0  0.47307000000000005  0.8269  0.93726  1.0000
  O   O1        1.0  0.32465  0.57657  0.06329  1.0000
  O   O2        1.0  0.21819  0.73844  0.02252  1.0000
  O   O3        1.0  0.7368800000000001  0.72666  0.01903  1.0000
  O   O4        1.0  0.6505400000000001  0.57992  0.08292  1.0000
  O   O5        1.0  0.18110000000000004  0.07907  0.44047  1.0000
  O   O6        1.0  0.28373000000000004  0.24128000000000002  0.48007999999999995  1.0000
  O   O7        1.0  0.76933  0.21752000000000005  0.48447  1.0000
  O   O8        1.0  0.85491  0.07371  0.41651  1.0000
  O   O9        1.0  0.67534  0.42342000000000013  0.93671  1.0000
  O   O10       1.0  0.78181  0.26155  0.9774800000000001  1.0000
  O   O11       1.0  0.2631200000000001  0.27333  0.9809799999999999  1.0000
  O   O12       1.0  0.34946000000000005  0.42007000000000005  0.91708  1.0000
  O   O13       1.0  0.81889  0.92092  0.55953  1.0000
  O   O14       1.0  0.71627  0.75871  0.51992  1.0000
  O   O15       1.0  0.23066999999999996  0.78247  0.51554  1.0000
  O   O16       1.0  0.14509  0.9262800000000001  0.58349  1.0000
