data_image0
_chemical_formula_structural       Zn4H40C62N8O18
_chemical_formula_sum              "Zn4 H40 C62 N8 O18"
_cell_length_a       4.60033
_cell_length_b       11.77158
_cell_length_c       25.23149
_cell_angle_alpha    95.09258
_cell_angle_beta     90.12037
_cell_angle_gamma    89.82241

_symmetry_space_group_name_H-M    'P 1'
_symmetry_Int_Tables_number       1

loop_
  _symmetry_equiv_pos_as_xyz
  'x,y,z'

loop_
  _atom_site_type_symbol
  _atom_site_label
  _atom_site_symmetry_multiplicity
  _atom_site_fract_x
  _atom_site_fract_y
  _atom_site_fract_z
  _atom_site_occupancy
  Zn  Zn1       1.0  0.29328  0.07751999999999999  0.54894  1.0000
  Zn  Zn2       1.0  0.19473  0.81434  0.96835  1.0000
  Zn  Zn3       1.0  0.79398  0.9236599999999998  0.4492  1.0000
  Zn  Zn4       1.0  0.69229  0.1804  0.030299999999999997  1.0000
  H   H1        1.0  0.8656  0.24007999999999993  0.42411  1.0000
  H   H2        1.0  0.03425  0.27837999999999996  0.33307  1.0000
  H   H3        1.0  0.34109  0.06886  0.26463  1.0000
  H   H4        1.0  0.007790000000000001  0.96917  0.20794  1.0000
  H   H5        1.0  0.7538  0.8312799999999998  0.14207  1.0000
  H   H6        1.0  0.39372  0.22764  0.1719  1.0000
  H   H7        1.0  0.46203000000000005  0.22359999999999994  0.6568  1.0000
  H   H8        1.0  0.77089  0.26325  0.55016  1.0000
  H   H9        1.0  0.75717  0.4439099999999999  0.62952  1.0000
  H   H10       1.0  0.22923  0.52189  0.69352  1.0000
  H   H11       1.0  0.4389700000000001  0.40883999999999987  0.71575  1.0000
  H   H12       1.0  0.04409  0.23755999999999994  0.7473999999999998  1.0000
  H   H13       1.0  0.66832  0.22059999999999994  0.81443  1.0000
  H   H14       1.0  0.49234000000000006  0.5811099999999999  0.8171099999999999  1.0000
  H   H15       1.0  0.8724  0.5990399999999999  0.75186  1.0000
  H   H16       1.0  0.09535  0.38505  0.84752  1.0000
  H   H17       1.0  0.35413  0.309  0.88247  1.0000
  H   H18       1.0  0.99013  0.5957199999999999  0.88726  1.0000
  H   H19       1.0  0.66768  0.6393099999999999  0.9999  1.0000
  H   H20       1.0  0.72821  0.4245899999999999  0.9423  1.0000
  H   H21       1.0  0.37541  0.7641399999999998  0.57503  1.0000
  H   H22       1.0  0.53757  0.7216899999999998  0.66609  1.0000
  H   H23       1.0  0.83279  0.9269299999999998  0.73376  1.0000
  H   H24       1.0  0.51656  0.02164999999999997  0.7917199999999999  1.0000
  H   H25       1.0  0.27662  0.16195  0.85889  1.0000
  H   H26       1.0  0.8732500000000001  0.7740199999999998  0.82555  1.0000
  H   H27       1.0  0.95394  0.7749499999999999  0.34153  1.0000
  H   H28       1.0  0.26776  0.7411699999999999  0.4492499999999999  1.0000
  H   H29       1.0  0.25063  0.55783  0.37146  1.0000
  H   H30       1.0  0.7179  0.4760099999999999  0.30771  1.0000
  H   H31       1.0  0.92692  0.58712  0.28408  1.0000
  H   H32       1.0  0.51786  0.75887  0.25335  1.0000
  H   H33       1.0  0.13874000000000003  0.7734999999999997  0.18638  1.0000
  H   H34       1.0  0.9861200000000001  0.41184  0.18301999999999996  1.0000
  H   H35       1.0  0.3693  0.39608999999999994  0.24812999999999996  1.0000
  H   H36       1.0  0.57304  0.60488  0.15313  1.0000
  H   H37       1.0  0.82811  0.68453  0.11899  1.0000
  H   H38       1.0  0.4812100000000001  0.39547999999999994  0.11206  1.0000
  H   H39       1.0  0.16291  0.35872  0.00040999999999999994  1.0000
  H   H40       1.0  0.21014000000000005  0.5726699999999999  0.05897  1.0000
  C   C1        1.0  0.40412  0.12644999999999995  0.4507  1.0000
  C   C2        1.0  0.4961  0.14261  0.39487  1.0000
  C   C3        1.0  0.7405900000000001  0.20924999999999994  0.38897999999999994  1.0000
  C   C4        1.0  0.8463400000000001  0.22507999999999995  0.33845  1.0000
  C   C5        1.0  0.69672  0.17585999999999996  0.29298  1.0000
  C   C6        1.0  0.44994999999999996  0.11006  0.29927  1.0000
  C   C7        1.0  0.34236  0.09309999999999997  0.35016  1.0000
  C   C8        1.0  0.1167  0.0037799999999999917  0.35746  1.0000
  C   C9        1.0  0.8282200000000001  0.18287  0.24055  1.0000
  C   C10       1.0  0.70824  0.10634999999999999  0.19495  1.0000
  C   C11       1.0  0.82615  0.99633  0.18446  1.0000
  C   C12       1.0  0.67748  0.9184099999999997  0.14933  1.0000
  C   C13       1.0  0.43964000000000003  0.9509499999999997  0.12054  1.0000
  C   C14       1.0  0.34419  0.06543999999999998  0.12618  1.0000
  C   C15       1.0  0.47878  0.14140999999999998  0.16477  1.0000
  C   C16       1.0  0.15872  0.11140000000000001  0.08295  1.0000
  C   C17       1.0  0.31307  0.8655  0.0793  1.0000
  C   C18       1.0  0.29567  0.2651  0.63502  1.0000
  C   C19       1.0  0.9157400000000001  0.28371  0.58341  1.0000
  C   C20       1.0  0.9074900000000001  0.37341  0.62241  1.0000
  C   C21       1.0  0.21726000000000004  0.43275999999999987  0.70298  1.0000
  C   C22       1.0  0.99173  0.42016999999999993  0.74476  1.0000
  C   C23       1.0  0.92114  0.31329999999999997  0.76196  1.0000
  C   C24       1.0  0.7093400000000001  0.30367  0.8005299999999999  1.0000
  C   C25       1.0  0.54604  0.39891  0.8210999999999999  1.0000
  C   C26       1.0  0.61485  0.50521  0.80303  1.0000
  C   C27       1.0  0.82921  0.5153399999999999  0.76513  1.0000
  C   C28       1.0  0.32148  0.38781999999999994  0.86329  1.0000
  C   C29       1.0  0.16784  0.57621  0.91298  1.0000
  C   C30       1.0  0.53333  0.59691  0.9691699999999999  1.0000
  C   C31       1.0  0.57273  0.49332999999999994  0.94016  1.0000
  C   C32       1.0  0.9079000000000002  0.87455  0.54788  1.0000
  C   C33       1.0  0.9978800000000001  0.85798  0.60381  1.0000
  C   C34       1.0  0.24518  0.79224  0.6099  1.0000
  C   C35       1.0  0.34739  0.7741799999999998  0.66053  1.0000
  C   C36       1.0  0.19259  0.8210399999999999  0.70578  1.0000
  C   C37       1.0  0.94581  0.8872  0.69928  1.0000
  C   C38       1.0  0.8407200000000002  0.90598  0.64844  1.0000
  C   C39       1.0  0.6127100000000001  0.9954999999999998  0.64189  1.0000
  C   C40       1.0  0.31929  0.81223  0.7585  1.0000
  C   C41       1.0  0.20209  0.8898799999999998  0.80383  1.0000
  C   C42       1.0  0.33275  0.9970899999999998  0.81508  1.0000
  C   C43       1.0  0.19196  0.07637999999999998  0.8508  1.0000
  C   C44       1.0  0.9508400000000001  0.04759999999999998  0.8795299999999999  1.0000
  C   C45       1.0  0.8448500000000001  0.93452  0.87333  1.0000
  C   C46       1.0  0.96934  0.8580499999999998  0.83366  1.0000
  C   C47       1.0  0.65841  0.88584  0.91597  1.0000
  C   C48       1.0  0.8307  0.13608  0.92021  1.0000
  C   C49       1.0  0.7886300000000002  0.7347099999999998  0.36380000000000007  1.0000
  C   C50       1.0  0.4113800000000001  0.7191999999999997  0.41605  1.0000
  C   C51       1.0  0.40099000000000007  0.6282  0.37777  1.0000
  C   C52       1.0  0.70576  0.56455  0.29736  1.0000
  C   C53       1.0  0.47741  0.57586  0.25571  1.0000
  C   C54       1.0  0.39888  0.6823899999999999  0.23878  1.0000
  C   C55       1.0  0.18443000000000007  0.6908499999999997  0.20043  1.0000
  C   C56       1.0  0.025929999999999998  0.5946699999999999  0.17975  1.0000
  C   C57       1.0  0.10350000000000001  0.4886199999999999  0.19734  1.0000
  C   C58       1.0  0.32015  0.47967999999999994  0.23514999999999997  1.0000
  C   C59       1.0  0.7991200000000002  0.6048499999999999  0.13756  1.0000
  C   C60       1.0  0.65874  0.41651999999999995  0.08684  1.0000
  C   C61       1.0  0.02693000000000001  0.39933  0.03134  1.0000
  C   C62       1.0  0.05875  0.50285  0.060669999999999995  1.0000
  N   N1        1.0  0.1542200000000001  0.2172  0.59179  1.0000
  N   N2        1.0  0.14935  0.3613499999999999  0.6538599999999999  1.0000
  N   N3        1.0  0.3405599999999999  0.48161  0.90534  1.0000
  N   N4        1.0  0.28469  0.64785  0.95213  1.0000
  N   N5        1.0  0.64941  0.7846399999999998  0.40683  1.0000
  N   N6        1.0  0.6412600000000002  0.63828  0.34591999999999995  1.0000
  N   N7        1.0  0.8251000000000001  0.5123899999999999  0.09505  1.0000
  N   N8        1.0  0.78127  0.34627  0.047799999999999995  1.0000
  O   O1        1.0  0.20257  0.18267999999999995  0.47346999999999995  1.0000
  O   O2        1.0  0.57029  0.06243999999999997  0.47856  1.0000
  O   O3        1.0  0.11162  0.9773999999999999  0.40668999999999994  1.0000
  O   O4        1.0  0.97068  0.9599699999999999  0.31967  1.0000
  O   O5        1.0  0.04238  0.24483999999999997  0.23555  1.0000
  O   O6        1.0  0.89947  0.07836  0.07676  1.0000
  O   O7        1.0  0.2715600000000001  0.18432999999999994  0.05390999999999999  1.0000
  O   O8        1.0  0.27123  0.76488  0.08987000000000002  1.0000
  O   O9        1.0  0.27069  0.90667  0.03425  1.0000
  O   O10       1.0  0.7111300000000002  0.8171799999999998  0.52431  1.0000
  O   O11       1.0  0.07074  0.9398399999999998  0.5206  1.0000
  O   O12       1.0  0.6024200000000001  0.022059999999999986  0.59279  1.0000
  O   O13       1.0  0.47079000000000004  0.03946999999999996  0.68019  1.0000
  O   O14       1.0  0.53041  0.7486799999999999  0.7641900000000001  1.0000
  O   O15       1.0  0.39253  0.9100399999999997  0.91834  1.0000
  O   O16       1.0  0.77304  0.8164799999999998  0.94695  1.0000
  O   O17       1.0  0.84467  0.23974999999999985  0.9127299999999999  1.0000
  O   O18       1.0  0.72626  0.09395999999999996  0.96167  1.0000
