data_image0
_chemical_formula_structural       Cu6H40C56N4O28
_chemical_formula_sum              "Cu6 H40 C56 N4 O28"
_cell_length_a       11.02613
_cell_length_b       12.21658
_cell_length_c       19.54818
_cell_angle_alpha    91.84669999999998
_cell_angle_beta     90.01152
_cell_angle_gamma    116.7465

_symmetry_space_group_name_H-M    'P 1'
_symmetry_Int_Tables_number       1

loop_
  _symmetry_equiv_pos_as_xyz
  'x,y,z'

loop_
  _atom_site_type_symbol
  _atom_site_label
  _atom_site_symmetry_multiplicity
  _atom_site_fract_x
  _atom_site_fract_y
  _atom_site_fract_z
  _atom_site_occupancy
  Cu  Cu1       1.0  0.5584900000000002  0.39203  0.80613  1.0000
  Cu  Cu2       1.0  0.9709999999999999  0.9628000000000001  0.5583  1.0000
  Cu  Cu3       1.0  0.64253  0.25183  0.8489  1.0000
  Cu  Cu4       1.0  0.16751999999999997  0.60837  0.19397  1.0000
  Cu  Cu5       1.0  0.00818  0.03727  0.44164  1.0000
  Cu  Cu6       1.0  0.3906399999999999  0.7479899999999999  0.151  1.0000
  H   H1        1.0  0.94477  0.72197  0.8222200000000001  1.0000
  H   H2        1.0  0.7955  0.17984  0.65704  1.0000
  H   H3        1.0  0.7990599999999999  0.52731  0.61955  1.0000
  H   H4        1.0  0.19701999999999997  0.05983000000000001  0.7350000000000001  1.0000
  H   H5        1.0  0.94823  0.51777  0.9970600000000001  1.0000
  H   H6        1.0  0.2592599999999999  0.8889299999999998  0.97732  1.0000
  H   H7        1.0  0.08596  0.71678  0.39508  1.0000
  H   H8        1.0  0.98713  0.37429  0.47747  1.0000
  H   H9        1.0  0.23504999999999995  0.9439199999999999  0.6448  1.0000
  H   H10       1.0  0.40766  0.04935  0.66096  1.0000
  H   H11       1.0  0.13307000000000008  0.74769  0.73584  1.0000
  H   H12       1.0  0.25208  0.76651  0.80237  1.0000
  H   H13       1.0  0.21021  0.56996  0.5197  1.0000
  H   H14       1.0  0.15191999999999997  0.62814  0.58989  1.0000
  H   H15       1.0  0.29738  0.83709  0.56482  1.0000
  H   H16       1.0  0.4016199999999999  0.7709099999999999  0.53222  1.0000
  H   H17       1.0  0.31579  0.7619  0.41581000000000007  1.0000
  H   H18       1.0  0.3263  0.90379  0.44792  1.0000
  H   H19       1.0  0.3389899999999999  0.80674  0.67  1.0000
  H   H20       1.0  0.44103  0.9092799999999999  0.73704  1.0000
  H   H21       1.0  0.22295  0.27791  0.17749  1.0000
  H   H22       1.0  0.6160299999999999  0.82043  0.34287  1.0000
  H   H23       1.0  0.27258999999999994  0.47364999999999996  0.3806  1.0000
  H   H24       1.0  0.13718  0.94119  0.26537  1.0000
  H   H25       1.0  0.43042  0.48196  0.00298  1.0000
  H   H26       1.0  0.37049  0.11043000000000001  0.02248  1.0000
  H   H27       1.0  0.36869  0.28281  0.60486  1.0000
  H   H28       1.0  0.6130499999999999  0.62593  0.52283  1.0000
  H   H29       1.0  0.29151999999999995  0.05643000000000001  0.35539000000000004  1.0000
  H   H30       1.0  0.3582399999999999  0.95051  0.33901  1.0000
  H   H31       1.0  0.38522  0.25257  0.26403  1.0000
  H   H32       1.0  0.48492  0.23308999999999996  0.19748  1.0000
  H   H33       1.0  0.63984  0.42965999999999993  0.48063  1.0000
  H   H34       1.0  0.52371  0.3718  0.41028  1.0000
  H   H35       1.0  0.46057999999999993  0.16258  0.43513  1.0000
  H   H36       1.0  0.6304599999999999  0.22831999999999997  0.46794  1.0000
  H   H37       1.0  0.55351  0.23757  0.58426  1.0000
  H   H38       1.0  0.42289  0.09571  0.55206  1.0000
  H   H39       1.0  0.53178  0.19298  0.33001  1.0000
  H   H40       1.0  0.5310699999999999  0.09003  0.26299  1.0000
  C   C1        1.0  0.71938  0.34531  0.712  1.0000
  C   C2        1.0  0.99228  0.71764  0.87019  1.0000
  C   C3        1.0  0.17332  0.69612  0.06025  1.0000
  C   C4        1.0  0.93392  0.60963  0.9067800000000001  1.0000
  C   C5        1.0  0.17484  0.93323  0.85577  1.0000
  C   C6        1.0  0.91666  0.1612  0.53936  1.0000
  C   C7        1.0  0.07154000000000002  0.8414599999999999  0.46896  1.0000
  C   C8        1.0  0.11066999999999991  0.8176199999999999  0.89494  1.0000
  C   C9        1.0  0.80975  0.50331  0.8782900000000001  1.0000
  C   C10       1.0  0.8232899999999999  0.25887  0.62539  1.0000
  C   C11       1.0  0.7918799999999999  0.35388  0.64603  1.0000
  C   C12       1.0  0.8268699999999999  0.4551  0.60451  1.0000
  C   C13       1.0  0.8998  0.4641  0.54452  1.0000
  C   C14       1.0  0.10932999999999998  0.70318  0.9942600000000001  1.0000
  C   C15       1.0  0.39451  0.13513  0.78018  1.0000
  C   C16       1.0  0.27151  0.026530000000000005  0.74719  1.0000
  C   C17       1.0  0.9393799999999999  0.57252  0.4999100000000001  1.0000
  C   C18       1.0  0.9927599999999999  0.60175  0.9687500000000001  1.0000
  C   C19       1.0  0.16834999999999997  0.81087  0.95735  1.0000
  C   C20       1.0  0.12196  0.74782  0.4478  1.0000
  C   C21       1.0  0.93062  0.36889  0.52392  1.0000
  C   C22       1.0  0.31717  0.97725  0.68346  1.0000
  C   C23       1.0  0.22786000000000006  0.81351  0.76174  1.0000
  C   C24       1.0  0.8886699999999998  0.26464  0.56332  1.0000
  C   C25       1.0  0.18481  0.64364  0.53662  1.0000
  C   C26       1.0  0.3026899999999999  0.7712299999999999  0.52699  1.0000
  C   C27       1.0  0.27822  0.80462  0.45500000000000007  1.0000
  C   C28       1.0  0.34212000000000004  0.87228  0.71046  1.0000
  C   C29       1.0  0.37507999999999997  0.6551  0.28795  1.0000
  C   C30       1.0  0.27463  0.28198  0.12954  1.0000
  C   C31       1.0  0.47744  0.30357  0.9398  1.0000
  C   C32       1.0  0.32426000000000005  0.39003  0.09302  1.0000
  C   C33       1.0  0.2417  0.06643  0.14429  1.0000
  C   C34       1.0  0.7558699999999999  0.83887  0.46069000000000004  1.0000
  C   C35       1.0  0.22993999999999998  0.15871  0.5309  1.0000
  C   C36       1.0  0.29295999999999994  0.18180999999999997  0.10485  1.0000
  C   C37       1.0  0.30706  0.49671  0.12164000000000001  1.0000
  C   C38       1.0  0.5650799999999999  0.74161  0.37469  1.0000
  C   C39       1.0  0.4388  0.64676  0.35405  1.0000
  C   C40       1.0  0.37252  0.54572  0.39563  1.0000
  C   C41       1.0  0.43632  0.53655  0.45563  1.0000
  C   C42       1.0  0.4062  0.29632  0.00567  1.0000
  C   C43       1.0  0.25875  0.86478  0.21990999999999997  1.0000
  C   C44       1.0  0.24467999999999987  0.9736599999999999  0.25299  1.0000
  C   C45       1.0  0.3669299999999999  0.42792  0.49999  1.0000
  C   C46       1.0  0.3910199999999999  0.39783  0.031130000000000005  1.0000
  C   C47       1.0  0.35746999999999995  0.18848  0.04248  1.0000
  C   C48       1.0  0.37386  0.25192  0.55213  1.0000
  C   C49       1.0  0.5621999999999999  0.63155  0.47631  1.0000
  C   C50       1.0  0.33981  0.02277  0.31662  1.0000
  C   C51       1.0  0.41408999999999996  0.18647  0.23827000000000004  1.0000
  C   C52       1.0  0.62449  0.73573  0.43684000000000006  1.0000
  C   C53       1.0  0.54098  0.35613  0.46353000000000005  1.0000
  C   C54       1.0  0.5313699999999999  0.22841  0.47307000000000005  1.0000
  C   C55       1.0  0.4733699999999999  0.19493  0.54502  1.0000
  C   C56       1.0  0.46951  0.12752  0.28953  1.0000
  N   N1        1.0  0.21259  0.9198700000000001  0.79059  1.0000
  N   N2        1.0  0.07493000000000002  0.64417  0.49304000000000003  1.0000
  N   N3        1.0  0.29244999999999993  0.08028  0.20957  1.0000
  N   N4        1.0  0.43050999999999995  0.35579  0.50703  1.0000
  O   O1        1.0  0.72973  0.5283  0.84165  1.0000
  O   O2        1.0  0.89739  0.07795  0.58224  1.0000
  O   O3        1.0  0.40107  0.24072  0.77149  1.0000
  O   O4        1.0  0.06025999999999994  0.9041099999999999  0.42058000000000006  1.0000
  O   O5        1.0  0.30125999999999986  0.76444  0.06716  1.0000
  O   O6        1.0  0.48435  0.11152  0.80824  1.0000
  O   O7        1.0  0.95694  0.16372  0.47780999999999996  1.0000
  O   O8        1.0  0.052360000000000004  0.85386  0.53256  1.0000
  O   O9        1.0  0.6481099999999999  0.40388  0.71683  1.0000
  O   O10       1.0  0.09578  0.62133  0.1039  1.0000
  O   O11       1.0  0.7344399999999999  0.27990000000000004  0.75777  1.0000
  O   O12       1.0  0.79435  0.39612  0.89197  1.0000
  O   O13       1.0  0.19120999999999996  0.03388  0.88034  1.0000
  O   O14       1.0  0.8524399999999999  0.59254  0.46964  1.0000
  O   O15       1.0  0.20193999999999998  0.47203  0.15813  1.0000
  O   O16       1.0  0.8196399999999999  0.92194  0.41774000000000006  1.0000
  O   O17       1.0  0.16016  0.75916  0.22877  1.0000
  O   O18       1.0  0.15629999999999997  0.09597000000000001  0.57928  1.0000
  O   O19       1.0  0.53624  0.23454  0.93266  1.0000
  O   O20       1.0  0.37190999999999996  0.88826  0.19163  1.0000
  O   O21       1.0  0.7936999999999997  0.8362699999999998  0.52223  1.0000
  O   O22       1.0  0.19828999999999994  0.14703  0.46733  1.0000
  O   O23       1.0  0.24532999999999994  0.59661  0.28317  1.0000
  O   O24       1.0  0.47554999999999986  0.37926  0.8964399999999999  1.0000
  O   O25       1.0  0.45552  0.72016  0.24213  1.0000
  O   O26       1.0  0.39948999999999996  0.60368  0.10820000000000002  1.0000
  O   O27       1.0  0.15774  0.96557  0.12008  1.0000
  O   O28       1.0  0.25965  0.40833  0.52959  1.0000
