data_image0
_chemical_formula_structural       Cd6H56C40N16O16
_chemical_formula_sum              "Cd6 H56 C40 N16 O16"
_cell_length_a       11.83246
_cell_length_b       14.61136
_cell_length_c       14.93127
_cell_angle_alpha    90.11656
_cell_angle_beta     90.32745999999999
_cell_angle_gamma    114.73686

_symmetry_space_group_name_H-M    'P 1'
_symmetry_Int_Tables_number       1

loop_
  _symmetry_equiv_pos_as_xyz
  'x,y,z'

loop_
  _atom_site_type_symbol
  _atom_site_label
  _atom_site_symmetry_multiplicity
  _atom_site_fract_x
  _atom_site_fract_y
  _atom_site_fract_z
  _atom_site_occupancy
  Cd  Cd1       1.0  0.76674  0.4327  0.23488  1.0000
  Cd  Cd2       1.0  0.33518  0.56737  0.2653  1.0000
  Cd  Cd3       1.0  0.2332599999999999  0.5672999999999999  0.76512  1.0000
  Cd  Cd4       1.0  0.66482  0.4326299999999999  0.73471  1.0000
  Cd  Cd5       1.0  0.7175199999999998  0.9991599999999999  0.2476  1.0000
  Cd  Cd6       1.0  0.28248  0.0008400000000000003  0.75241  1.0000
  H   H1        1.0  0.79279  0.66779  0.2971100000000001  1.0000
  H   H2        1.0  0.8864200000000001  0.69404  0.19879  1.0000
  H   H3        1.0  0.53011  0.4551699999999999  0.19709  1.0000
  H   H4        1.0  0.58732  0.52858  0.29704  1.0000
  H   H5        1.0  0.8070900000000001  0.59424  0.06431  1.0000
  H   H6        1.0  0.65798  0.4917599999999999  0.06444  1.0000
  H   H7        1.0  0.6921699999999997  0.7893899999999998  0.07317  1.0000
  H   H8        1.0  0.8275800000000001  0.7646499999999998  0.06815  1.0000
  H   H9        1.0  0.6124399999999999  0.7011899999999999  0.30138000000000004  1.0000
  H   H10       1.0  0.5705599999999998  0.7548999999999998  0.20671  1.0000
  H   H11       1.0  0.47322  0.5250799999999999  0.06957  1.0000
  H   H12       1.0  0.48761000000000004  0.6513  0.06996000000000002  1.0000
  H   H13       1.0  0.4385  0.19266999999999998  0.54548  1.0000
  H   H14       1.0  0.43867  0.17942999999999995  0.3835  1.0000
  H   H15       1.0  0.11583000000000003  0.33178  0.20293  1.0000
  H   H16       1.0  0.18427999999999997  0.30443999999999993  0.3006300000000001  1.0000
  H   H17       1.0  0.07679999999999994  0.5442599999999999  0.30547  1.0000
  H   H18       1.0  0.05623  0.47192  0.20468  1.0000
  H   H19       1.0  0.21143999999999993  0.4030399999999999  0.4357600000000001  1.0000
  H   H20       1.0  0.1695199999999999  0.5063999999999999  0.43709  1.0000
  H   H21       1.0  0.8940800000000001  0.20935  0.42751  1.0000
  H   H22       1.0  0.05507999999999997  0.23360999999999996  0.43159000000000003  1.0000
  H   H23       1.0  0.90137  0.29873999999999995  0.19986  1.0000
  H   H24       1.0  0.80587  0.24519  0.29491  1.0000
  H   H25       1.0  0.95044  0.4742699999999999  0.43224000000000007  1.0000
  H   H26       1.0  0.8336599999999997  0.3484899999999999  0.4318900000000001  1.0000
  H   H27       1.0  0.24128999999999987  0.8025899999999998  0.95468  1.0000
  H   H28       1.0  0.25857  0.81748  0.11634  1.0000
  H   H29       1.0  0.20720999999999998  0.33220999999999995  0.70289  1.0000
  H   H30       1.0  0.11358000000000001  0.30596  0.80121  1.0000
  H   H31       1.0  0.46989  0.54483  0.8029100000000002  1.0000
  H   H32       1.0  0.41269000000000006  0.47142  0.70296  1.0000
  H   H33       1.0  0.19290999999999991  0.4057599999999999  0.9356900000000002  1.0000
  H   H34       1.0  0.34202000000000005  0.50824  0.9355600000000002  1.0000
  H   H35       1.0  0.30784  0.21060999999999994  0.9268400000000002  1.0000
  H   H36       1.0  0.17242  0.23535  0.93186  1.0000
  H   H37       1.0  0.38755999999999996  0.29880999999999996  0.6986200000000002  1.0000
  H   H38       1.0  0.42944  0.2451  0.79329  1.0000
  H   H39       1.0  0.52679  0.47492  0.93044  1.0000
  H   H40       1.0  0.51239  0.3487  0.93004  1.0000
  H   H41       1.0  0.5615  0.80733  0.45452  1.0000
  H   H42       1.0  0.56133  0.8205699999999998  0.6165000000000002  1.0000
  H   H43       1.0  0.88417  0.66822  0.7970700000000002  1.0000
  H   H44       1.0  0.81573  0.69556  0.6993700000000003  1.0000
  H   H45       1.0  0.9232000000000001  0.45574  0.6945400000000003  1.0000
  H   H46       1.0  0.9437800000000001  0.5280799999999999  0.7953300000000002  1.0000
  H   H47       1.0  0.7885600000000001  0.59696  0.5642500000000001  1.0000
  H   H48       1.0  0.83048  0.49359999999999987  0.56291  1.0000
  H   H49       1.0  0.10591999999999994  0.7906499999999999  0.57249  1.0000
  H   H50       1.0  0.9449200000000001  0.7663899999999998  0.56842  1.0000
  H   H51       1.0  0.09862999999999987  0.7012599999999998  0.80014  1.0000
  H   H52       1.0  0.19413000000000002  0.75481  0.7051  1.0000
  H   H53       1.0  0.04957  0.52573  0.5677600000000003  1.0000
  H   H54       1.0  0.16634  0.65151  0.56811  1.0000
  H   H55       1.0  0.75871  0.19740999999999995  0.04532  1.0000
  H   H56       1.0  0.74144  0.18251999999999993  0.8836700000000001  1.0000
  C   C1        1.0  0.79117  0.6693099999999997  0.22368  1.0000
  C   C2        1.0  0.5856299999999999  0.5311199999999999  0.22364000000000006  1.0000
  C   C3        1.0  0.71161  0.56864  0.08899  1.0000
  C   C4        1.0  0.73298  0.73805  0.09471  1.0000
  C   C5        1.0  0.61223  0.70402  0.228  1.0000
  C   C6        1.0  0.53019  0.60188  0.09355000000000002  1.0000
  C   C7        1.0  0.59945  0.33474  0.56427  1.0000
  C   C8        1.0  0.50783  0.25332999999999994  0.50681  1.0000
  C   C9        1.0  0.50638  0.24601  0.41716  1.0000
  C   C10       1.0  0.59866  0.32024  0.35764  1.0000
  C   C11       1.0  0.11445  0.32975  0.27641  1.0000
  C   C12       1.0  0.05318999999999996  0.4685899999999999  0.27807  1.0000
  C   C13       1.0  0.14256  0.42961  0.41191  1.0000
  C   C14       1.0  0.98764  0.26059  0.40571  1.0000
  C   C15       1.0  0.89983  0.29568  0.27324  1.0000
  C   C16       1.0  0.9269800000000001  0.3974499999999999  0.40811  1.0000
  C   C17       1.0  0.26556  0.66448  0.93591  1.0000
  C   C18       1.0  0.2535199999999999  0.7439499999999998  0.9934000000000002  1.0000
  C   C19       1.0  0.26143999999999995  0.7521599999999998  0.08297  1.0000
  C   C20       1.0  0.28260999999999986  0.6807199999999998  0.14358  1.0000
  C   C21       1.0  0.20883  0.33069  0.7763200000000002  1.0000
  C   C22       1.0  0.41437  0.46888  0.7763700000000002  1.0000
  C   C23       1.0  0.28839  0.4313599999999999  0.9110200000000003  1.0000
  C   C24       1.0  0.26702  0.26195  0.90529  1.0000
  C   C25       1.0  0.38777  0.29598  0.7720100000000002  1.0000
  C   C26       1.0  0.46981  0.3981199999999999  0.9064500000000002  1.0000
  C   C27       1.0  0.40055  0.6652699999999999  0.43573  1.0000
  C   C28       1.0  0.4921699999999999  0.7466699999999997  0.4932  1.0000
  C   C29       1.0  0.49362  0.75399  0.58284  1.0000
  C   C30       1.0  0.40134  0.67976  0.64236  1.0000
  C   C31       1.0  0.8855500000000001  0.67025  0.7236000000000002  1.0000
  C   C32       1.0  0.9468200000000002  0.53141  0.72193  1.0000
  C   C33       1.0  0.85744  0.57039  0.5880900000000002  1.0000
  C   C34       1.0  0.012360000000000019  0.73941  0.59429  1.0000
  C   C35       1.0  0.10017999999999994  0.70432  0.72676  1.0000
  C   C36       1.0  0.07302000000000002  0.60255  0.59189  1.0000
  C   C37       1.0  0.73444  0.33552  0.0641  1.0000
  C   C38       1.0  0.74648  0.25605  0.00661  1.0000
  C   C39       1.0  0.7385600000000001  0.24783999999999995  0.91703  1.0000
  C   C40       1.0  0.71739  0.31928  0.85642  1.0000
  N   N1        1.0  0.7387300000000001  0.7386199999999998  0.19363  1.0000
  N   N2        1.0  0.71547  0.56441  0.18993000000000004  1.0000
  N   N3        1.0  0.6570799999999999  0.6363899999999998  0.058880000000000016  1.0000
  N   N4        1.0  0.5301499999999999  0.5998899999999999  0.19412  1.0000
  N   N5        1.0  0.9908200000000001  0.26048  0.30676  1.0000
  N   N6        1.0  0.14875999999999995  0.4345499999999999  0.31093  1.0000
  N   N7        1.0  0.01831  0.36216  0.44208  1.0000
  N   N8        1.0  0.9270200000000001  0.39984  0.30758  1.0000
  N   N9        1.0  0.26126999999999995  0.26137999999999995  0.80637  1.0000
  N   N10       1.0  0.28453  0.4356  0.81007  1.0000
  N   N11       1.0  0.34292  0.36361  0.9411200000000002  1.0000
  N   N12       1.0  0.46984999999999993  0.40011  0.80588  1.0000
  N   N13       1.0  0.009179999999999917  0.7395199999999998  0.6932400000000002  1.0000
  N   N14       1.0  0.85124  0.56545  0.68907  1.0000
  N   N15       1.0  0.9817000000000001  0.63784  0.55793  1.0000
  N   N16       1.0  0.07297999999999996  0.6001599999999999  0.69243  1.0000
  O   O1        1.0  0.61204  0.28578  0.28083  1.0000
  O   O2        1.0  0.66162  0.41169  0.3815900000000001  1.0000
  O   O3        1.0  0.7076600000000001  0.34082  0.5736000000000002  1.0000
  O   O4        1.0  0.55291  0.3876  0.60808  1.0000
  O   O5        1.0  0.3380099999999999  0.7177999999999998  0.21811  1.0000
  O   O6        1.0  0.24786000000000002  0.5879399999999999  0.12248000000000003  1.0000
  O   O7        1.0  0.36938  0.6619099999999999  0.9273300000000002  1.0000
  O   O8        1.0  0.16496  0.60943  0.89164  1.0000
  O   O9        1.0  0.38796  0.71422  0.71917  1.0000
  O   O10       1.0  0.33838999999999997  0.5883099999999999  0.61841  1.0000
  O   O11       1.0  0.29233999999999993  0.6591799999999998  0.4264000000000001  1.0000
  O   O12       1.0  0.44709000000000004  0.6124  0.39192  1.0000
  O   O13       1.0  0.66199  0.28219999999999995  0.78189  1.0000
  O   O14       1.0  0.7521500000000001  0.41206  0.87753  1.0000
  O   O15       1.0  0.63063  0.3380899999999999  0.07268000000000001  1.0000
  O   O16       1.0  0.83504  0.39057  0.10836  1.0000
