data_image0
_chemical_formula_structural       Cu12H24C56I4N8O32
_chemical_formula_sum              "Cu12 H24 C56 I4 N8 O32"
_cell_length_a       16.95099
_cell_length_b       16.83463
_cell_length_c       16.83499
_cell_angle_alpha    101.61007
_cell_angle_beta     113.50013
_cell_angle_gamma    113.4977

_space_group_name_H-M_alt    "P 1"
_space_group_IT_number       1

loop_
  _space_group_symop_operation_xyz
  'x, y, z'

loop_
  _atom_site_type_symbol
  _atom_site_label
  _atom_site_symmetry_multiplicity
  _atom_site_fract_x
  _atom_site_fract_y
  _atom_site_fract_z
  _atom_site_occupancy
  Cu  Cu1       1.0  0.42982  0.9999100000000002  0.43045000000000005  1.0000
  Cu  Cu2       1.0  0.57017  8.999999999999049e-05  0.56955  1.0000
  Cu  Cu3       1.0  0.5702299999999999  0.56963  0.00013  1.0000
  Cu  Cu4       1.0  0.4297699999999999  0.43038  0.99987  1.0000
  Cu  Cu5       1.0  0.5684800000000001  0.07389000000000005  0.07389000000000003  1.0000
  Cu  Cu6       1.0  0.43173  0.50539  0.50541  1.0000
  Cu  Cu7       1.0  0.00047000000000000427  0.50503  0.07422  1.0000
  Cu  Cu8       1.0  0.0004900000000000079  0.07419  0.50503  1.0000
  Cu  Cu9       1.0  0.9995000000000003  0.9258100000000004  0.49497000000000013  1.0000
  Cu  Cu10      1.0  0.9995200000000002  0.4949700000000002  0.9257700000000002  1.0000
  Cu  Cu11      1.0  0.5682600000000002  0.49461000000000016  0.4945900000000001  1.0000
  Cu  Cu12      1.0  0.43150999999999995  0.9261099999999999  0.92611  1.0000
  H   H1        1.0  0.4754  0.029110000000000007  0.28025  1.0000
  H   H2        1.0  0.52582  0.80575  0.55359  1.0000
  H   H3        1.0  0.7495199999999996  0.55345  0.03027  1.0000
  H   H4        1.0  0.2513200000000001  0.2807700000000001  0.8051500000000001  1.0000
  H   H5        1.0  0.25043  0.96969  0.44652  1.0000
  H   H6        1.0  0.7486600000000001  0.1948500000000001  0.7192400000000001  1.0000
  H   H7        1.0  0.47418  0.44643000000000016  0.19427  1.0000
  H   H8        1.0  0.52459  0.7197000000000002  0.97088  1.0000
  H   H9        1.0  0.5246000000000002  0.9708900000000005  0.71974  1.0000
  H   H10       1.0  0.47418  0.19425000000000003  0.4464  1.0000
  H   H11       1.0  0.25047000000000014  0.44655000000000006  0.9697300000000002  1.0000
  H   H12       1.0  0.74867  0.71923  0.19485000000000002  1.0000
  H   H13       1.0  0.74956  0.030310000000000004  0.55347  1.0000
  H   H14       1.0  0.25133  0.80516  0.28076  1.0000
  H   H15       1.0  0.52582  0.55357  0.80572  1.0000
  H   H16       1.0  0.4754  0.2803  0.029120000000000007  1.0000
  H   H17       1.0  0.24319999999999992  0.77377  0.01636  1.0000
  H   H18       1.0  0.75702  0.7739100000000002  0.53055  1.0000
  H   H19       1.0  0.7570200000000001  0.53058  0.7738600000000001  1.0000
  H   H20       1.0  0.24318000000000012  0.01637000000000009  0.7737400000000002  1.0000
  H   H21       1.0  0.24297999999999997  0.22609  0.46945  1.0000
  H   H22       1.0  0.7567900000000002  0.22623000000000013  0.9836400000000002  1.0000
  H   H23       1.0  0.24297000000000002  0.46942000000000017  0.22614000000000004  1.0000
  H   H24       1.0  0.7568200000000002  0.9836300000000002  0.22626000000000002  1.0000
  C   C1        1.0  0.40634000000000003  0.9580200000000002  0.23889  1.0000
  C   C2        1.0  0.36415  0.9072  0.14123  1.0000
  C   C3        1.0  0.4133700000000001  0.9471600000000002  0.09021  1.0000
  C   C4        1.0  0.5946999999999998  0.83334  0.55157  1.0000
  C   C5        1.0  0.6367  0.7779000000000003  0.54334  1.0000
  C   C6        1.0  0.58746  0.6775900000000002  0.53442  1.0000
  C   C7        1.0  0.7198500000000001  0.55144  0.9589400000000002  1.0000
  C   C8        1.0  0.7664399999999998  0.54319  0.90805  1.0000
  C   C9        1.0  0.8574500000000002  0.5343800000000002  0.94818  1.0000
  C   C10       1.0  0.2808600000000001  0.23906  0.83274  1.0000
  C   C11       1.0  0.23392999999999997  0.14129999999999995  0.7775  1.0000
  C   C12       1.0  0.1426100000000001  0.09027000000000007  0.6775100000000002  1.0000
  C   C13       1.0  0.28013  0.04102000000000002  0.44854000000000005  1.0000
  C   C14       1.0  0.23354  0.09192  0.4568  1.0000
  C   C15       1.0  0.1425199999999999  0.05183  0.46561  1.0000
  C   C16       1.0  0.71911  0.16724  0.76094  1.0000
  C   C17       1.0  0.76605  0.22248000000000007  0.8587  1.0000
  C   C18       1.0  0.8573699999999997  0.32247  0.90971  1.0000
  C   C19       1.0  0.40529  0.44843000000000005  0.16667  1.0000
  C   C20       1.0  0.36329  0.45667000000000013  0.22211  1.0000
  C   C21       1.0  0.4125499999999999  0.46557999999999994  0.32241  1.0000
  C   C22       1.0  0.5936600000000001  0.7611100000000002  0.04198000000000001  1.0000
  C   C23       1.0  0.63585  0.85877  0.09280000000000001  1.0000
  C   C24       1.0  0.58662  0.9097900000000002  0.05284  1.0000
  C   C25       1.0  0.59366  0.04198000000000003  0.76111  1.0000
  C   C26       1.0  0.63585  0.09279999999999998  0.85876  1.0000
  C   C27       1.0  0.58662  0.05283999999999999  0.90978  1.0000
  C   C28       1.0  0.40529000000000004  0.1666600000000001  0.4484200000000001  1.0000
  C   C29       1.0  0.3633  0.22210000000000002  0.45666  1.0000
  C   C30       1.0  0.41253  0.3224100000000001  0.46558  1.0000
  C   C31       1.0  0.28015  0.44856  0.04106  1.0000
  C   C32       1.0  0.23355  0.45681  0.09195  1.0000
  C   C33       1.0  0.14254  0.46562  0.05182  1.0000
  C   C34       1.0  0.71913  0.76094  0.16726  1.0000
  C   C35       1.0  0.7660600000000001  0.8587000000000002  0.22250000000000006  1.0000
  C   C36       1.0  0.8573899999999995  0.90973  0.3224900000000001  1.0000
  C   C37       1.0  0.71987  0.95898  0.55145  1.0000
  C   C38       1.0  0.76646  0.9080800000000002  0.5432  1.0000
  C   C39       1.0  0.8574699999999998  0.94817  0.53438  1.0000
  C   C40       1.0  0.28088  0.8327600000000002  0.23906000000000005  1.0000
  C   C41       1.0  0.23395000000000013  0.7775200000000002  0.1413  1.0000
  C   C42       1.0  0.14262  0.67753  0.09029  1.0000
  C   C43       1.0  0.59471  0.55157  0.8333200000000001  1.0000
  C   C44       1.0  0.6367  0.54334  0.77788  1.0000
  C   C45       1.0  0.5874399999999997  0.53442  0.67759  1.0000
  C   C46       1.0  0.40633  0.23889000000000005  0.95802  1.0000
  C   C47       1.0  0.3641400000000001  0.14123000000000005  0.90719  1.0000
  C   C48       1.0  0.4133700000000002  0.0902100000000001  0.9471600000000002  1.0000
  C   C49       1.0  0.27664999999999995  0.81549  0.09189  1.0000
  C   C50       1.0  0.72378  0.81598  0.53882  1.0000
  C   C51       1.0  0.72379  0.5388200000000001  0.81594  1.0000
  C   C52       1.0  0.27664  0.09190000000000001  0.81548  1.0000
  C   C53       1.0  0.27621000000000007  0.18402000000000007  0.46118000000000003  1.0000
  C   C54       1.0  0.7233499999999998  0.18451  0.90811  1.0000
  C   C55       1.0  0.2762  0.4611800000000001  0.18405000000000005  1.0000
  C   C56       1.0  0.7233499999999998  0.9081000000000002  0.18452  1.0000
  I   I1        1.0  0.37655000000000005  0.8745900000000001  0.50074  1.0000
  I   I2        1.0  0.6234499999999998  0.12541  0.49926  1.0000
  I   I3        1.0  0.37656999999999985  0.50071  0.8746  1.0000
  I   I4        1.0  0.62343  0.49929000000000007  0.1254  1.0000
  N   N1        1.0  0.3655700000000001  0.9215600000000003  0.28717  1.0000
  N   N2        1.0  0.63539  0.9223700000000002  0.55556  1.0000
  N   N3        1.0  0.6353900000000001  0.5555700000000001  0.9223500000000002  1.0000
  N   N4        1.0  0.36555  0.28716000000000014  0.92154  1.0000
  N   N5        1.0  0.3646  0.07763000000000009  0.4444400000000001  1.0000
  N   N6        1.0  0.63442  0.07843999999999994  0.71283  1.0000
  N   N7        1.0  0.36461000000000005  0.4444400000000001  0.07765  1.0000
  N   N8        1.0  0.63444  0.71285  0.07846  1.0000
  O   O1        1.0  0.49559  0.02963  0.1393  1.0000
  O   O2        1.0  0.3687400000000001  0.8931400000000003  0.0015400000000000001  1.0000
  O   O3        1.0  0.50529  0.64431  0.53433  1.0000
  O   O4        1.0  0.63197  0.6335800000000003  0.52545  1.0000
  O   O5        1.0  0.8912599999999999  0.5344900000000002  0.0309  1.0000
  O   O6        1.0  0.89164  0.52541  0.8938400000000001  1.0000
  O   O7        1.0  0.10982999999999993  0.13972999999999994  0.64395  1.0000
  O   O8        1.0  0.10711  0.0012200000000000119  0.63406  1.0000
  O   O9        1.0  0.10868000000000007  0.9691200000000002  0.4655  1.0000
  O   O10       1.0  0.10835  0.10619  0.47459  1.0000
  O   O11       1.0  0.8901300000000001  0.35604000000000013  0.8602400000000002  1.0000
  O   O12       1.0  0.89287  0.36591000000000007  0.99876  1.0000
  O   O13       1.0  0.4947200000000001  0.4656700000000001  0.35566  1.0000
  O   O14       1.0  0.36806  0.47455  0.36643  1.0000
  O   O15       1.0  0.5044100000000001  0.8607100000000002  0.97036  1.0000
  O   O16       1.0  0.63125  0.99848  0.10685  1.0000
  O   O17       1.0  0.5044100000000001  0.9703700000000001  0.86069  1.0000
  O   O18       1.0  0.63126  0.10686000000000002  0.99846  1.0000
  O   O19       1.0  0.4947  0.35569  0.46567  1.0000
  O   O20       1.0  0.36803000000000013  0.36643000000000014  0.47455000000000014  1.0000
  O   O21       1.0  0.10873  0.46551  0.9691  1.0000
  O   O22       1.0  0.10835000000000003  0.4745900000000001  0.10616000000000003  1.0000
  O   O23       1.0  0.8901600000000001  0.8602700000000002  0.3560500000000001  1.0000
  O   O24       1.0  0.89288  0.9987800000000001  0.36594  1.0000
  O   O25       1.0  0.8913100000000002  0.03088000000000001  0.53449  1.0000
  O   O26       1.0  0.8916400000000001  0.8938100000000002  0.52541  1.0000
  O   O27       1.0  0.10986000000000007  0.6439600000000002  0.13975  1.0000
  O   O28       1.0  0.10713000000000006  0.6340900000000003  0.00123  1.0000
  O   O29       1.0  0.5052700000000001  0.53433  0.6443400000000001  1.0000
  O   O30       1.0  0.63193  0.5254600000000003  0.63356  1.0000
  O   O31       1.0  0.49558  0.13929  0.029630000000000007  1.0000
  O   O32       1.0  0.36874  0.0015200000000000185  0.89314  1.0000
