data_image0
_chemical_formula_structural       Ag12H48C48N30O12
_chemical_formula_sum              "Ag12 H48 C48 N30 O12"
_cell_length_a       12.77555
_cell_length_b       12.77854
_cell_length_c       12.51336
_cell_angle_alpha    91.03569000000002
_cell_angle_beta     89.00576
_cell_angle_gamma    86.95905

_space_group_name_H-M_alt    "P 1"
_space_group_IT_number       1

loop_
  _space_group_symop_operation_xyz
  'x, y, z'

loop_
  _atom_site_type_symbol
  _atom_site_label
  _atom_site_symmetry_multiplicity
  _atom_site_fract_x
  _atom_site_fract_y
  _atom_site_fract_z
  _atom_site_occupancy
  Ag  Ag1       1.0  0.3483900000000001  0.36369  0.69603  1.0000
  Ag  Ag2       1.0  0.81173  0.21732  0.51689  1.0000
  Ag  Ag3       1.0  0.39656  0.36635  0.4743700000000001  1.0000
  Ag  Ag4       1.0  0.42152  0.53356  0.3308700000000001  1.0000
  Ag  Ag5       1.0  0.24902000000000005  0.73034  0.4007300000000001  1.0000
  Ag  Ag6       1.0  0.4778200000000001  0.14837  0.18329  1.0000
  Ag  Ag7       1.0  0.62524  0.59151  0.28835000000000005  1.0000
  Ag  Ag8       1.0  0.59263  0.45236  0.44345  1.0000
  Ag  Ag9       1.0  0.6106800000000002  0.7696899999999999  0.73524  1.0000
  Ag  Ag10      1.0  0.8197000000000001  0.52309  0.17209  1.0000
  Ag  Ag11      1.0  0.7487900000000001  0.41584  0.59529  1.0000
  Ag  Ag12      1.0  0.5544  0.34504  0.6237700000000002  1.0000
  H   H1        1.0  0.16963  0.41966  0.23796  1.0000
  H   H2        1.0  0.04764000000000002  0.40358  0.17471  1.0000
  H   H3        1.0  0.09043000000000001  0.2782  0.7592  1.0000
  H   H4        1.0  0.98627  0.2297  0.68494  1.0000
  H   H5        1.0  0.09846000000000003  0.20714999999999997  0.15038  1.0000
  H   H6        1.0  0.181  0.28847  0.08132000000000003  1.0000
  H   H7        1.0  0.1377  0.06859  0.63617  1.0000
  H   H8        1.0  0.20976000000000006  0.97992  0.7154300000000002  1.0000
  H   H9        1.0  0.24698000000000006  0.51804  0.56168  1.0000
  H   H10       1.0  0.37247  0.85906  0.69744  1.0000
  H   H11       1.0  0.8139000000000002  0.04154000000000001  0.6572  1.0000
  H   H12       1.0  0.75332  0.92951  0.6999900000000001  1.0000
  H   H13       1.0  0.59771  0.21181  0.42759  1.0000
  H   H14       1.0  0.25391  0.95129  0.5169400000000001  1.0000
  H   H15       1.0  0.29099  0.08349  0.50962  1.0000
  H   H16       1.0  0.94486  0.23308  0.28681  1.0000
  H   H17       1.0  0.7747900000000001  0.82027  0.42104000000000014  1.0000
  H   H18       1.0  0.8255800000000001  0.94655  0.41186  1.0000
  H   H19       1.0  0.2599000000000001  0.8927599999999999  0.26043  1.0000
  H   H20       1.0  0.32099  0.011280000000000002  0.23484000000000005  1.0000
  H   H21       1.0  0.8587600000000001  0.91638  0.21247000000000002  1.0000
  H   H22       1.0  0.9272100000000001  0.823  0.28809  1.0000
  H   H23       1.0  0.3328800000000001  0.8243  0.0616  1.0000
  H   H24       1.0  0.24794000000000002  0.74316  0.9950600000000002  1.0000
  H   H25       1.0  0.46571  0.69929  0.48283000000000004  1.0000
  H   H26       1.0  0.29931  0.5981  0.8247800000000002  1.0000
  H   H27       1.0  0.34723000000000004  0.15328  0.016300000000000002  1.0000
  H   H28       1.0  0.3013700000000001  0.21299  0.9001100000000002  1.0000
  H   H29       1.0  0.5501  0.36454  0.20267  1.0000
  H   H30       1.0  0.44345  0.72168  0.9358300000000003  1.0000
  H   H31       1.0  0.47101  0.67104  0.064  1.0000
  H   H32       1.0  0.7113400000000002  0.05527  0.23934000000000005  1.0000
  H   H33       1.0  0.60312  0.23885  0.82969  1.0000
  H   H34       1.0  0.61671  0.18299  0.9577600000000002  1.0000
  H   H35       1.0  0.7258  0.75809  0.9154400000000003  1.0000
  H   H36       1.0  0.77001  0.68648  0.02545  1.0000
  H   H37       1.0  0.8136700000000002  0.15703  0.92412  1.0000
  H   H38       1.0  0.74047  0.08805  0.8317400000000001  1.0000
  H   H39       1.0  0.9275900000000002  0.68132  0.8673300000000003  1.0000
  H   H40       1.0  0.9982200000000001  0.76026  0.78246  1.0000
  H   H41       1.0  0.5269200000000003  0.55583  0.71006  1.0000
  H   H42       1.0  0.13867  0.72269  0.63869  1.0000
  H   H43       1.0  0.9862500000000001  0.65962  0.17447  1.0000
  H   H44       1.0  0.09930000000000004  0.6952499999999999  0.24108000000000004  1.0000
  H   H45       1.0  0.79653  0.46069  0.39082000000000006  1.0000
  H   H46       1.0  0.04250999999999999  0.55956  0.75758  1.0000
  H   H47       1.0  0.9126200000000002  0.54827  0.7122600000000002  1.0000
  H   H48       1.0  0.77181  0.29584  0.07448000000000002  1.0000
  C   C1        1.0  0.07987  0.33514  0.60924  1.0000
  C   C2        1.0  0.10942  0.36368  0.22140000000000007  1.0000
  C   C3        1.0  0.25346  0.21417  0.21469000000000005  1.0000
  C   C4        1.0  0.10135999999999999  0.37287  0.4231200000000001  1.0000
  C   C5        1.0  0.15654000000000004  0.26648  0.16237  1.0000
  C   C6        1.0  0.04518000000000002  0.32182  0.50222  1.0000
  C   C7        1.0  0.21779  0.04625  0.66171  1.0000
  C   C8        1.0  0.25754  0.13957  0.72614  1.0000
  C   C9        1.0  0.19291000000000005  0.45759  0.54224  1.0000
  C   C10       1.0  0.42613999999999996  0.91056  0.66001  1.0000
  C   C11       1.0  0.5668200000000002  0.9872599999999999  0.61368  1.0000
  C   C12       1.0  0.6678800000000003  0.02696  0.59866  1.0000
  C   C13       1.0  0.48309000000000013  0.036199999999999996  0.55944  1.0000
  C   C14       1.0  0.58588  0.14718  0.48129  1.0000
  C   C15       1.0  0.28556  0.016499999999999994  0.56259  1.0000
  C   C16       1.0  0.98788  0.27116  0.34878000000000003  1.0000
  C   C17       1.0  0.4059400000000001  0.89692  0.32121  1.0000
  C   C18       1.0  0.78574  0.88588  0.36727  1.0000
  C   C19       1.0  0.7988200000000002  0.76311  0.20076  1.0000
  C   C20       1.0  0.5882200000000001  0.88031  0.36792000000000014  1.0000
  C   C21       1.0  0.8476000000000002  0.85038  0.26607  1.0000
  C   C22       1.0  0.5084200000000001  0.93425  0.31271  1.0000
  C   C23       1.0  0.3136800000000001  0.7418199999999999  0.05079000000000001  1.0000
  C   C24       1.0  0.27334  0.70469  0.15915000000000004  1.0000
  C   C25       1.0  0.48080000000000006  0.76717  0.43458  1.0000
  C   C26       1.0  0.33361  0.54256  0.8802700000000001  1.0000
  C   C27       1.0  0.3832100000000001  0.40011  0.95851  1.0000
  C   C28       1.0  0.3981300000000001  0.29807  0.00096  1.0000
  C   C29       1.0  0.42388  0.48291999999999996  0.01686  1.0000
  C   C30       1.0  0.50072  0.37704000000000004  0.13334000000000001  1.0000
  C   C31       1.0  0.41012000000000004  0.6803300000000001  0.00361  1.0000
  C   C32       1.0  0.6540100000000001  0.00545  0.27318  1.0000
  C   C33       1.0  0.67907  0.60846  0.91534  1.0000
  C   C34       1.0  0.6572900000000003  0.22661  0.89609  1.0000
  C   C35       1.0  0.8174  0.22056  0.76729  1.0000
  C   C36       1.0  0.64636  0.42526  0.8927800000000001  1.0000
  C   C37       1.0  0.7588000000000003  0.16741  0.8578200000000001  1.0000
  C   C38       1.0  0.6932700000000002  0.50394  0.9514400000000001  1.0000
  C   C39       1.0  0.9390400000000002  0.70085  0.7827500000000002  1.0000
  C   C40       1.0  0.83472  0.75103  0.74485  1.0000
  C   C41       1.0  0.57481  0.53937  0.77968  1.0000
  C   C42       1.0  0.08993  0.68555  0.5809000000000001  1.0000
  C   C43       1.0  0.022779999999999998  0.6331300000000001  0.43294  1.0000
  C   C44       1.0  0.9906000000000003  0.61275  0.32682  1.0000
  C   C45       1.0  0.9653800000000001  0.59106  0.51705  1.0000
  C   C46       1.0  0.8613200000000001  0.51118  0.4050600000000001  1.0000
  C   C47       1.0  0.9763000000000001  0.60203  0.71998  1.0000
  C   C48       1.0  0.7376300000000002  0.35502999999999996  0.02299  1.0000
  N   N1        1.0  0.06507999999999999  0.33836  0.3260700000000001  1.0000
  N   N2        1.0  0.9728200000000002  0.25887  0.4536400000000001  1.0000
  N   N3        1.0  0.047040000000000005  0.27985  0.6915200000000001  1.0000
  N   N4        1.0  0.17363000000000006  0.44409  0.4382400000000001  1.0000
  N   N5        1.0  0.52919  0.90823  0.6764000000000002  1.0000
  N   N6        1.0  0.7555000000000001  0.98931  0.64545  1.0000
  N   N7        1.0  0.48896  0.1145  0.49001  1.0000
  N   N8        1.0  0.67365  0.10943  0.53065  1.0000
  N   N9        1.0  0.3942200000000001  0.98608  0.59014  1.0000
  N   N10       1.0  0.15342000000000006  0.40727  0.6264400000000001  1.0000
  N   N11       1.0  0.67997  0.92723  0.34225000000000005  1.0000
  N   N12       1.0  0.55166  0.01274  0.25343  1.0000
  N   N13       1.0  0.32167  0.9395900000000001  0.27339  1.0000
  N   N14       1.0  0.5782300000000002  0.79836  0.43202  1.0000
  N   N15       1.0  0.32762  0.43898  0.8720200000000001  1.0000
  N   N16       1.0  0.35528  0.21223000000000003  0.96269  1.0000
  N   N17       1.0  0.4854000000000001  0.47543  0.10257000000000002  1.0000
  N   N18       1.0  0.46056  0.29033  0.08941000000000002  1.0000
  N   N19       1.0  0.3899400000000001  0.57372  0.9669700000000001  1.0000
  N   N20       1.0  0.39622  0.81013  0.38348000000000004  1.0000
  N   N21       1.0  0.6750999999999999  0.33144  0.9397  1.0000
  N   N22       1.0  0.7506800000000002  0.45765  0.03309000000000001  1.0000
  N   N23       1.0  0.72093  0.69165  0.96007  1.0000
  N   N24       1.0  0.58524  0.4393  0.8076700000000002  1.0000
  N   N25       1.0  0.10110000000000001  0.69216  0.47490000000000004  1.0000
  N   N26       1.0  0.03522  0.64848  0.23829000000000006  1.0000
  N   N27       1.0  0.8855800000000001  0.52741  0.50655  1.0000
  N   N28       1.0  0.90626  0.55136  0.31741  1.0000
  N   N29       1.0  0.009060000000000006  0.62582  0.61034  1.0000
  N   N30       1.0  0.6173500000000002  0.62236  0.8271200000000002  1.0000
  O   O1        1.0  0.28602  0.12631  0.16878  1.0000
  O   O2        1.0  0.3333  0.18481000000000003  0.6830100000000001  1.0000
  O   O3        1.0  0.21153000000000002  0.16406999999999997  0.8145200000000001  1.0000
  O   O4        1.0  0.2961600000000001  0.25883  0.29102  1.0000
  O   O5        1.0  0.8570900000000002  0.71913  0.12632000000000002  1.0000
  O   O6        1.0  0.30735  0.61843  0.19519000000000006  1.0000
  O   O7        1.0  0.20454000000000006  0.7679599999999999  0.2064  1.0000
  O   O8        1.0  0.70585  0.74048  0.22274000000000005  1.0000
  O   O9        1.0  0.87287  0.15872  0.7033100000000002  1.0000
  O   O10       1.0  0.7895200000000002  0.70891  0.6675200000000001  1.0000
  O   O11       1.0  0.79824  0.8312899999999999  0.79959  1.0000
  O   O12       1.0  0.8095000000000002  0.31879  0.7623000000000001  1.0000
