data_image0
_chemical_formula_structural       In2H28C56O16
_chemical_formula_sum              "In2 H28 C56 O16"
_cell_length_a       9.89239
_cell_length_b       10.00338
_cell_length_c       19.38766
_cell_angle_alpha    108.49933
_cell_angle_beta     106.71269000000001
_cell_angle_gamma    76.14382

_symmetry_space_group_name_H-M    'P 1'
_symmetry_Int_Tables_number       1

loop_
  _symmetry_equiv_pos_as_xyz
  'x,y,z'

loop_
  _atom_site_type_symbol
  _atom_site_label
  _atom_site_symmetry_multiplicity
  _atom_site_fract_x
  _atom_site_fract_y
  _atom_site_fract_z
  _atom_site_occupancy
  In  In1       1.0  0.8626499999999999  0.03786999999999997  0.72196  1.0000
  In  In2       1.0  0.13734999999999992  0.9621400000000001  0.27804  1.0000
  H   H1        1.0  0.67717  0.13655999999999996  0.92352  1.0000
  H   H2        1.0  0.73815  0.16731  0.032810000000000006  1.0000
  H   H3        1.0  0.8077599999999999  0.23162  0.16845  1.0000
  H   H4        1.0  0.45796  0.22584  0.28069  1.0000
  H   H5        1.0  0.52573  0.28929  0.41591  1.0000
  H   H6        1.0  0.24004000000000017  0.15035999999999994  0.9362500000000001  1.0000
  H   H7        1.0  0.29498  0.2166  0.04257  1.0000
  H   H8        1.0  0.36490999999999996  0.27825  0.17764  1.0000
  H   H9        1.0  0.82613  0.38475  0.27523  1.0000
  H   H10       1.0  0.8862699999999999  0.4591299999999999  0.41168  1.0000
  H   H11       1.0  0.35437999999999986  0.019180000000000003  0.72553  1.0000
  H   H12       1.0  0.78386  0.63732  0.51018  1.0000
  H   H13       1.0  0.86102  0.5506800000000001  0.7234500000000003  1.0000
  H   H14       1.0  0.72489  0.23144  0.52157  1.0000
  H   H15       1.0  0.75997  0.8496399999999998  0.06376000000000001  1.0000
  H   H16       1.0  0.7050299999999999  0.7834100000000002  0.9574300000000001  1.0000
  H   H17       1.0  0.63509  0.72176  0.82237  1.0000
  H   H18       1.0  0.17386999999999997  0.61525  0.72477  1.0000
  H   H19       1.0  0.11372999999999994  0.54088  0.58832  1.0000
  H   H20       1.0  0.32283  0.8634499999999999  0.07648  1.0000
  H   H21       1.0  0.26185999999999965  0.8327  0.9672  1.0000
  H   H22       1.0  0.19225000000000006  0.76838  0.83155  1.0000
  H   H23       1.0  0.54204  0.77417  0.71932  1.0000
  H   H24       1.0  0.47426999999999997  0.71071  0.58409  1.0000
  H   H25       1.0  0.6456299999999999  0.98083  0.27447  1.0000
  H   H26       1.0  0.21615  0.36268  0.48982000000000003  1.0000
  H   H27       1.0  0.13899  0.44933  0.27656  1.0000
  H   H28       1.0  0.27511  0.76856  0.47844000000000003  1.0000
  C   C1        1.0  0.62877  0.06137999999999999  0.7757  1.0000
  C   C2        1.0  0.5245499999999998  0.08043000000000002  0.82169  1.0000
  C   C3        1.0  0.5659199999999999  0.12317000000000004  0.8992500000000001  1.0000
  C   C4        1.0  0.65539  0.19437999999999997  0.0641  1.0000
  C   C5        1.0  0.6948299999999997  0.23232999999999998  0.14125  1.0000
  C   C6        1.0  0.55091  0.27882  0.30867  1.0000
  C   C7        1.0  0.58974  0.31374  0.38562  1.0000
  C   C8        1.0  0.13317999999999994  0.06068000000000002  0.79171  1.0000
  C   C9        1.0  0.28318000000000004  0.08346000000000006  0.82855  1.0000
  C   C10       1.0  0.32347000000000004  0.12889000000000014  0.9061400000000001  1.0000
  C   C11       1.0  0.40791  0.21918  0.06962  1.0000
  C   C12       1.0  0.44775  0.25409  0.14667  1.0000
  C   C13       1.0  0.75808  0.36677  0.30559  1.0000
  C   C14       1.0  0.79166  0.40938  0.38258  1.0000
  C   C15       1.0  0.38405999999999996  0.057300000000000025  0.78606  1.0000
  C   C16       1.0  0.46667000000000003  0.14670000000000005  0.9437000000000001  1.0000
  C   C17       1.0  0.50988  0.18793  0.02538  1.0000
  C   C18       1.0  0.59279  0.26365  0.18535  1.0000
  C   C19       1.0  0.63386  0.30335  0.26641  1.0000
  C   C20       1.0  0.70938  0.38347  0.42444  1.0000
  C   C21       1.0  0.7483800000000002  0.42909  0.506  1.0000
  C   C22       1.0  0.78758  0.56491  0.5425  1.0000
  C   C23       1.0  0.8249799999999999  0.61084  0.62047  1.0000
  C   C24       1.0  0.8297799999999999  0.51834  0.66268  1.0000
  C   C25       1.0  0.7945299999999998  0.38132  0.62694  1.0000
  C   C26       1.0  0.7506799999999999  0.33829  0.54907  1.0000
  C   C27       1.0  0.8528799999999999  0.7601000000000001  0.65773  1.0000
  C   C28       1.0  0.8125699999999999  0.28022  0.67298  1.0000
  C   C29       1.0  0.8668299999999999  0.93933  0.20829  1.0000
  C   C30       1.0  0.7168199999999998  0.9165499999999999  0.17145000000000002  1.0000
  C   C31       1.0  0.67653  0.8711199999999999  0.09386  1.0000
  C   C32       1.0  0.5921  0.78082  0.93038  1.0000
  C   C33       1.0  0.5522499999999999  0.7459200000000001  0.85333  1.0000
  C   C34       1.0  0.24191999999999997  0.63323  0.69441  1.0000
  C   C35       1.0  0.20835  0.59063  0.61742  1.0000
  C   C36       1.0  0.37124  0.93862  0.22431  1.0000
  C   C37       1.0  0.47545000000000004  0.91957  0.17831  1.0000
  C   C38       1.0  0.43409  0.8768300000000001  0.10075  1.0000
  C   C39       1.0  0.3446100000000001  0.80562  0.9359000000000001  1.0000
  C   C40       1.0  0.30517  0.76767  0.85876  1.0000
  C   C41       1.0  0.4491  0.72119  0.69134  1.0000
  C   C42       1.0  0.41026  0.68626  0.61438  1.0000
  C   C43       1.0  0.6159499999999998  0.9427000000000001  0.21395  1.0000
  C   C44       1.0  0.53334  0.8532999999999998  0.05631  1.0000
  C   C45       1.0  0.4901199999999998  0.8120700000000001  0.9746200000000002  1.0000
  C   C46       1.0  0.40721  0.73636  0.81466  1.0000
  C   C47       1.0  0.36614  0.69665  0.73359  1.0000
  C   C48       1.0  0.29061999999999993  0.61653  0.57556  1.0000
  C   C49       1.0  0.25162  0.57092  0.49401  1.0000
  C   C50       1.0  0.21242  0.4351  0.4575  1.0000
  C   C51       1.0  0.17501999999999993  0.38917  0.37953000000000003  1.0000
  C   C52       1.0  0.17022999999999996  0.48166000000000003  0.33732  1.0000
  C   C53       1.0  0.20547999999999997  0.61868  0.37307  1.0000
  C   C54       1.0  0.24931999999999999  0.66172  0.45093  1.0000
  C   C55       1.0  0.14711999999999997  0.23990000000000006  0.3422700000000001  1.0000
  C   C56       1.0  0.18744  0.71978  0.32703  1.0000
  O   O1        1.0  0.74833  0.10701  0.81142  1.0000
  O   O2        1.0  0.59953  0.003719999999999972  0.70662  1.0000
  O   O3        1.0  0.045030000000000035  0.08233000000000014  0.8320200000000001  1.0000
  O   O4        1.0  0.09674999999999996  0.021020000000000007  0.72001  1.0000
  O   O5        1.0  0.8921199999999998  0.80113  0.72927  1.0000
  O   O6        1.0  0.83135  0.84504  0.61735  1.0000
  O   O7        1.0  0.7840699999999999  0.15292  0.63592  1.0000
  O   O8        1.0  0.8570399999999999  0.31853  0.74299  1.0000
  O   O9        1.0  0.95497  0.9176799999999999  0.16798  1.0000
  O   O10       1.0  0.9032499999999999  0.9789799999999999  0.27999  1.0000
  O   O11       1.0  0.25166999999999995  0.8930000000000001  0.18859000000000004  1.0000
  O   O12       1.0  0.4004699999999998  0.99629  0.29338  1.0000
  O   O13       1.0  0.10789  0.19888  0.27074  1.0000
  O   O14       1.0  0.16865000000000002  0.15497000000000002  0.38265000000000005  1.0000
  O   O15       1.0  0.21592999999999998  0.84708  0.36408  1.0000
  O   O16       1.0  0.14296  0.68148  0.25702  1.0000
