data_image0
_chemical_formula_structural       La8H16C44N16O44
_chemical_formula_sum              "La8 H16 C44 N16 O44"
_cell_length_a       8.60176
_cell_length_b       15.418059999999999
_cell_length_c       16.890170000000005
_cell_angle_alpha    89.71374000000002
_cell_angle_beta     90.12802
_cell_angle_gamma    90.16262999999998

_space_group_name_H-M_alt    "P 1"
_space_group_IT_number       1

loop_
  _space_group_symop_operation_xyz
  'x, y, z'

loop_
  _atom_site_type_symbol
  _atom_site_label
  _atom_site_symmetry_multiplicity
  _atom_site_fract_x
  _atom_site_fract_y
  _atom_site_fract_z
  _atom_site_occupancy
  La  La1       1.0  0.64759  0.73318  0.3944400000000001  1.0000
  La  La2       1.0  0.85255  0.23136  0.60555  1.0000
  La  La3       1.0  0.35521  0.26723  0.88932  1.0000
  La  La4       1.0  0.14582  0.76757  0.11052000000000002  1.0000
  La  La5       1.0  0.35241  0.26681  0.60555  1.0000
  La  La6       1.0  0.14745  0.76864  0.39445  1.0000
  La  La7       1.0  0.64479  0.73277  0.11068  1.0000
  La  La8       1.0  0.85418  0.23242999999999997  0.8894800000000003  1.0000
  H   H1        1.0  0.45921  0.99325  0.60776  1.0000
  H   H2        1.0  0.99046  0.9343  0.55554  1.0000
  H   H3        1.0  0.03971  0.49369  0.3932000000000001  1.0000
  H   H4        1.0  0.50935  0.43649  0.4442800000000001  1.0000
  H   H5        1.0  0.54041  0.00945  0.10655  1.0000
  H   H6        1.0  0.01126  0.06311  0.05400000000000001  1.0000
  H   H7        1.0  0.95969  0.51021  0.8963000000000002  1.0000
  H   H8        1.0  0.48825999999999997  0.56287  0.9458  1.0000
  H   H9        1.0  0.54079  0.00674  0.39224  1.0000
  H   H10       1.0  0.00954  0.06569  0.44445  1.0000
  H   H11       1.0  0.9602900000000001  0.50631  0.6068000000000002  1.0000
  H   H12       1.0  0.4906499999999999  0.56351  0.55572  1.0000
  H   H13       1.0  0.45959  0.99055  0.89345  1.0000
  H   H14       1.0  0.9887400000000001  0.93689  0.94599  1.0000
  H   H15       1.0  0.04031  0.48979  0.1037  1.0000
  H   H16       1.0  0.51174  0.43713  0.0542  1.0000
  C   C1        1.0  0.45498  0.82413  0.51098  1.0000
  C   C2        1.0  0.33894  0.88296  0.546  1.0000
  C   C3        1.0  0.35422  0.96129  0.58771  1.0000
  C   C4        1.0  0.20287  0.99152  0.59605  1.0000
  C   C5        1.0  0.14187  0.07569  0.62421  1.0000
  C   C6        1.0  0.04561  0.32274  0.48827  1.0000
  C   C7        1.0  0.16136  0.38302  0.45397  1.0000
  C   C8        1.0  0.14530000000000004  0.46206  0.4128000000000001  1.0000
  C   C9        1.0  0.29654  0.49306  0.40423  1.0000
  C   C10       1.0  0.35847  0.57766  0.37625  1.0000
  C   C11       1.0  0.54844  0.17598  0.007  1.0000
  C   C12       1.0  0.66413  0.11688  0.04257  1.0000
  C   C13       1.0  0.64704  0.0394  0.08606  1.0000
  C   C14       1.0  0.79781  0.00828  0.09542000000000003  1.0000
  C   C15       1.0  0.85844  0.92433  0.12551000000000004  1.0000
  C   C16       1.0  0.9506699999999999  0.67733  0.9937500000000001  1.0000
  C   C17       1.0  0.8351  0.61776  0.95866  1.0000
  C   C18       1.0  0.85311  0.54023  0.91606  1.0000
  C   C19       1.0  0.70266  0.50854  0.90615  1.0000
  C   C20       1.0  0.64348  0.42463  0.87521  1.0000
  C   C21       1.0  0.54502  0.17587  0.48902000000000007  1.0000
  C   C22       1.0  0.66106  0.11703  0.45399  1.0000
  C   C23       1.0  0.64578  0.03871  0.4122900000000001  1.0000
  C   C24       1.0  0.79713  0.00848  0.40395  1.0000
  C   C25       1.0  0.85813  0.92431  0.37579  1.0000
  C   C26       1.0  0.95439  0.67725  0.51173  1.0000
  C   C27       1.0  0.83864  0.61697  0.54603  1.0000
  C   C28       1.0  0.8547  0.53793  0.5872000000000003  1.0000
  C   C29       1.0  0.70346  0.50694  0.59577  1.0000
  C   C30       1.0  0.64153  0.42234  0.62375  1.0000
  C   C31       1.0  0.45156  0.82402  0.993  1.0000
  C   C32       1.0  0.33587  0.88312  0.95743  1.0000
  C   C33       1.0  0.35296  0.96059  0.9139400000000002  1.0000
  C   C34       1.0  0.20219  0.99172  0.90458  1.0000
  C   C35       1.0  0.14156  0.07567  0.8744900000000002  1.0000
  C   C36       1.0  0.04933  0.32267  0.00625  1.0000
  C   C37       1.0  0.16489  0.38224  0.04133  1.0000
  C   C38       1.0  0.14689  0.45976  0.08394000000000003  1.0000
  C   C39       1.0  0.29733  0.49146  0.09385000000000003  1.0000
  C   C40       1.0  0.35651  0.57537  0.12479  1.0000
  C   C41       1.0  0.44652000000000003  0.7913  0.2518800000000001  1.0000
  C   C42       1.0  0.05184  0.29002  0.74664  1.0000
  C   C43       1.0  0.55348  0.2087  0.7481100000000003  1.0000
  C   C44       1.0  0.9481600000000001  0.70998  0.25336  1.0000
  N   N1        1.0  0.10842  0.93173  0.56036  1.0000
  N   N2        1.0  0.18757  0.86583  0.52926  1.0000
  N   N3        1.0  0.39142  0.43309  0.4394900000000001  1.0000
  N   N4        1.0  0.31289  0.36627  0.4704300000000001  1.0000
  N   N5        1.0  0.89336  0.06684  0.05835  1.0000
  N   N6        1.0  0.8156  0.13277  0.02546  1.0000
  N   N7        1.0  0.60626  0.56687  0.9421  1.0000
  N   N8        1.0  0.68327  0.63318  0.97474  1.0000
  N   N9        1.0  0.89158  0.06827  0.43963000000000013  1.0000
  N   N10       1.0  0.81243  0.13416  0.4707400000000001  1.0000
  N   N11       1.0  0.60858  0.56691  0.5605000000000002  1.0000
  N   N12       1.0  0.68711  0.63373  0.52957  1.0000
  N   N13       1.0  0.10663  0.93316  0.94165  1.0000
  N   N14       1.0  0.1844  0.86723  0.9745400000000001  1.0000
  N   N15       1.0  0.39374  0.43312  0.057900000000000014  1.0000
  N   N16       1.0  0.31673  0.36682  0.02525  1.0000
  O   O1        1.0  0.59828  0.84052  0.51215  1.0000
  O   O2        1.0  0.39868  0.75716  0.4736300000000001  1.0000
  O   O3        1.0  0.9961  0.08794  0.61588  1.0000
  O   O4        1.0  0.24084000000000003  0.12953  0.6505500000000002  1.0000
  O   O5        1.0  0.39087  0.81586  0.31885  1.0000
  O   O6        1.0  0.90237  0.33912  0.48786  1.0000
  O   O7        1.0  0.10184  0.2547  0.52408  1.0000
  O   O8        1.0  0.50454  0.5895400000000001  0.38458  1.0000
  O   O9        1.0  0.26048  0.63203  0.35012  1.0000
  O   O10       1.0  0.10846  0.31204  0.67867  1.0000
  O   O11       1.0  0.40532  0.15936  0.008020000000000003  1.0000
  O   O12       1.0  0.60395  0.24337  0.96965  1.0000
  O   O13       1.0  0.00466  0.9123  0.11949  1.0000
  O   O14       1.0  0.75875  0.87036  0.15112  1.0000
  O   O15       1.0  0.60847  0.18655000000000002  0.81661  1.0000
  O   O16       1.0  0.09385  0.66114  0.9923800000000002  1.0000
  O   O17       1.0  0.89546  0.74453  0.030700000000000005  1.0000
  O   O18       1.0  0.49756999999999996  0.41114  0.88091  1.0000
  O   O19       1.0  0.74355  0.37198  0.84904  1.0000
  O   O20       1.0  0.89071  0.68796  0.18584  1.0000
  O   O21       1.0  0.40172  0.15948  0.48785  1.0000
  O   O22       1.0  0.60132  0.24284000000000003  0.5263700000000002  1.0000
  O   O23       1.0  0.003889999999999999  0.91206  0.38412  1.0000
  O   O24       1.0  0.75916  0.87047  0.34944  1.0000
  O   O25       1.0  0.60913  0.18414  0.6811500000000003  1.0000
  O   O26       1.0  0.09763  0.66087  0.51214  1.0000
  O   O27       1.0  0.89816  0.7453  0.47592000000000007  1.0000
  O   O28       1.0  0.49546  0.41046  0.61542  1.0000
  O   O29       1.0  0.73951  0.36797  0.64988  1.0000
  O   O30       1.0  0.89154  0.68796  0.32133  1.0000
  O   O31       1.0  0.59468  0.84064  0.9919700000000001  1.0000
  O   O32       1.0  0.39604  0.75663  0.030350000000000002  1.0000
  O   O33       1.0  0.9953299999999999  0.0877  0.8805100000000002  1.0000
  O   O34       1.0  0.24125  0.12964  0.84888  1.0000
  O   O35       1.0  0.39153  0.81344  0.18339  1.0000
  O   O36       1.0  0.90615  0.33886  0.007620000000000002  1.0000
  O   O37       1.0  0.10454  0.25547  0.9692900000000001  1.0000
  O   O38       1.0  0.50242  0.5888500000000001  0.11909  1.0000
  O   O39       1.0  0.25645  0.62802  0.15096  1.0000
  O   O40       1.0  0.10929  0.31204  0.81416  1.0000
  O   O41       1.0  0.57011  0.74092  0.25299  1.0000
  O   O42       1.0  0.92448  0.24232  0.74686  1.0000
  O   O43       1.0  0.42989  0.25908  0.74701  1.0000
  O   O44       1.0  0.07552  0.75768  0.2531400000000001  1.0000
