data_image0
_chemical_formula_structural       Zn2H40C56N4O8
_chemical_formula_sum              "Zn2 H40 C56 N4 O8"
_cell_length_a       8.58916
_cell_length_b       13.37359
_cell_length_c       14.25128
_cell_angle_alpha    61.76609
_cell_angle_beta     84.76724000000002
_cell_angle_gamma    78.24153

_symmetry_space_group_name_H-M    'P 1'
_symmetry_Int_Tables_number       1

loop_
  _symmetry_equiv_pos_as_xyz
  'x,y,z'

loop_
  _atom_site_type_symbol
  _atom_site_label
  _atom_site_symmetry_multiplicity
  _atom_site_fract_x
  _atom_site_fract_y
  _atom_site_fract_z
  _atom_site_occupancy
  Zn  Zn1       1.0  0.52092  0.20718000000000003  0.17478999999999997  1.0000
  Zn  Zn2       1.0  0.027199999999999988  0.37945  0.82432  1.0000
  H   H1        1.0  0.022649999999999997  0.27894  0.2492  1.0000
  H   H2        1.0  0.76498  0.3049299999999999  0.33686  1.0000
  H   H3        1.0  0.017970000000000014  0.25389  0.609  1.0000
  H   H4        1.0  0.27366000000000007  0.22712  0.51957  1.0000
  H   H5        1.0  0.61519  0.30757000000000023  0.48135999999999995  1.0000
  H   H6        1.0  0.7941599999999999  0.31072000000000005  0.65835  1.0000
  H   H7        1.0  0.63139  0.27779999999999994  0.81564  1.0000
  H   H8        1.0  0.36701000000000006  0.30999000000000004  0.89239  1.0000
  H   H9        1.0  0.14011999999999994  0.4375000000000001  0.60232  1.0000
  H   H10       1.0  0.3957899999999999  0.40746000000000004  0.5136  1.0000
  H   H11       1.0  0.40697  0.11302000000000006  0.9181999999999999  1.0000
  H   H12       1.0  0.3053  0.9948400000000001  0.85419  1.0000
  H   H13       1.0  0.2947  0.72581  0.17838  1.0000
  H   H14       1.0  0.39448  0.84564  0.24063  1.0000
  H   H15       1.0  0.21172000000000002  0.8295399999999999  0.88473  1.0000
  H   H16       1.0  0.24869  0.62479  0.1112  1.0000
  H   H17       1.0  0.10886000000000001  0.74312  0.82222  1.0000
  H   H18       1.0  0.03376999999999999  0.6144100000000001  0.7599599999999999  1.0000
  H   H19       1.0  0.13185000000000002  0.32773  0.05598999999999999  1.0000
  H   H20       1.0  0.20707999999999996  0.4432500000000001  0.1313  1.0000
  H   H21       1.0  0.52762  0.52902  0.75108  1.0000
  H   H22       1.0  0.26820999999999995  0.6433300000000001  0.66328  1.0000
  H   H23       1.0  0.5157799999999999  0.8651100000000003  0.3897199999999999  1.0000
  H   H24       1.0  0.7737299999999999  0.7476700000000001  0.4787199999999999  1.0000
  H   H25       1.0  0.11597999999999996  0.78917  0.51834  1.0000
  H   H26       1.0  0.29089999999999994  0.9696600000000002  0.339  1.0000
  H   H27       1.0  0.12575  0.09407  0.18168  1.0000
  H   H28       1.0  0.8599399999999999  0.20388  0.10465  1.0000
  H   H29       1.0  0.63847  0.04111999999999998  0.39545  1.0000
  H   H30       1.0  0.89585  0.92208  0.48466  1.0000
  H   H31       1.0  0.90743  0.031509999999999996  0.08004  1.0000
  H   H32       1.0  0.8034299999999999  0.84968  0.14376  1.0000
  H   H33       1.0  0.7933999999999999  0.9060400000000002  0.82003  1.0000
  H   H34       1.0  0.89764  0.08707000000000002  0.75818  1.0000
  H   H35       1.0  0.7097800000000001  0.7159  0.11311  1.0000
  H   H36       1.0  0.7538800000000001  0.7358200000000001  0.88839  1.0000
  H   H37       1.0  0.60967  0.56728  0.17569  1.0000
  H   H38       1.0  0.53016  0.37721  0.23812  1.0000
  H   H39       1.0  0.62969  0.38522  0.94423  1.0000
  H   H40       1.0  0.71151  0.57469  0.86933  1.0000
  C   C1        1.0  0.32084  0.23537000000000002  0.32818  1.0000
  C   C2        1.0  0.16414000000000004  0.25214  0.3789199999999999  1.0000
  C   C3        1.0  0.020209999999999995  0.27438000000000007  0.32741  1.0000
  C   C4        1.0  0.87616  0.28935000000000016  0.37654999999999994  1.0000
  C   C5        1.0  0.87155  0.2842900000000001  0.47785  1.0000
  C   C6        1.0  0.017229999999999985  0.261  0.52971  1.0000
  C   C7        1.0  0.16062999999999997  0.24537000000000003  0.48055999999999993  1.0000
  C   C8        1.0  0.71725  0.30449000000000004  0.52385  1.0000
  C   C9        1.0  0.69316  0.31783  0.61293  1.0000
  C   C10       1.0  0.53794  0.3379300000000001  0.6574299999999998  1.0000
  C   C11       1.0  0.5257100000000001  0.31296000000000007  0.7653499999999999  1.0000
  C   C12       1.0  0.37804999999999994  0.3319300000000001  0.8083799999999998  1.0000
  C   C13       1.0  0.25195999999999996  0.40075  0.64632  1.0000
  C   C14       1.0  0.39505  0.38361  0.59797  1.0000
  C   C15       1.0  0.46112999999999993  0.057690000000000005  0.12534  1.0000
  C   C16       1.0  0.4076299999999999  0.9867900000000002  0.08337  1.0000
  C   C17       1.0  0.3825500000000001  0.02815999999999999  0.97442  1.0000
  C   C18       1.0  0.32641  0.9612800000000001  0.9389099999999999  1.0000
  C   C19       1.0  0.29452  0.85079  0.011079999999999998  1.0000
  C   C20       1.0  0.32053  0.80989  0.12066999999999999  1.0000
  C   C21       1.0  0.37604999999999994  0.8767  0.15612  1.0000
  C   C22       1.0  0.2379700000000001  0.7836499999999998  0.96989  1.0000
  C   C23       1.0  0.21915  0.67199  0.026629999999999997  1.0000
  C   C24       1.0  0.16708000000000003  0.60513  0.98355  1.0000
  C   C25       1.0  0.11566  0.65182  0.8773299999999999  1.0000
  C   C26       1.0  0.07308999999999996  0.5811099999999999  0.84176  1.0000
  C   C27       1.0  0.12594999999999998  0.4203300000000001  0.00687  1.0000
  C   C28       1.0  0.16879999999999998  0.4861800000000001  0.04853  1.0000
  C   C29       1.0  0.82355  0.56148  0.67158  1.0000
  C   C30       1.0  0.6667399999999999  0.6314100000000001  0.62034  1.0000
  C   C31       1.0  0.5236  0.6027900000000002  0.67242  1.0000
  C   C32       1.0  0.37872000000000006  0.6672299999999999  0.62327  1.0000
  C   C33       1.0  0.37229999999999985  0.7634700000000004  0.52135  1.0000
  C   C34       1.0  0.51702  0.7923400000000002  0.46923999999999993  1.0000
  C   C35       1.0  0.66148  0.72694  0.5183  1.0000
  C   C36       1.0  0.2168900000000001  0.8291  0.4751599999999999  1.0000
  C   C37       1.0  0.19082  0.9313800000000002  0.38500999999999996  1.0000
  C   C38       1.0  0.03491000000000004  0.99593  0.34027  1.0000
  C   C39       1.0  0.02087999999999999  0.07904000000000003  0.23197999999999996  1.0000
  C   C40       1.0  0.8725000000000002  0.14148  0.18883  1.0000
  C   C41       1.0  0.7494700000000001  0.048170000000000025  0.35142999999999996  1.0000
  C   C42       1.0  0.8933099999999998  0.9823300000000003  0.39996  1.0000
  C   C43       1.0  0.9649  0.18205000000000002  0.87365  1.0000
  C   C44       1.0  0.9098399999999999  0.06996000000000004  0.9152999999999999  1.0000
  C   C45       1.0  0.8832  0.0028700000000000006  0.02404  1.0000
  C   C46       1.0  0.82582  0.9009400000000002  0.05935  1.0000
  C   C47       1.0  0.79422  0.86311  0.98714  1.0000
  C   C48       1.0  0.8206299999999999  0.93176  0.8776799999999999  1.0000
  C   C49       1.0  0.878  0.03332999999999997  0.84246  1.0000
  C   C50       1.0  0.7379300000000001  0.7547300000000001  0.02845  1.0000
  C   C51       1.0  0.7218400000000001  0.69916  0.9723099999999999  1.0000
  C   C52       1.0  0.66887  0.58949  0.015609999999999997  1.0000
  C   C53       1.0  0.61571  0.53089  0.12119  1.0000
  C   C54       1.0  0.5705299999999999  0.42532  0.15672  1.0000
  C   C55       1.0  0.62467  0.42875  0.99282  1.0000
  C   C56       1.0  0.6708699999999999  0.5353200000000001  0.9513399999999997  1.0000
  N   N1        1.0  0.24222999999999997  0.37512  0.75043  1.0000
  N   N2        1.0  0.07866999999999999  0.46621000000000024  0.9046699999999999  1.0000
  N   N3        1.0  0.73792  0.12689  0.24708  1.0000
  N   N4        1.0  0.57478  0.37351  0.09423  1.0000
  O   O1        1.0  0.3127999999999999  0.23346000000000008  0.23802999999999994  1.0000
  O   O2        1.0  0.44798000000000004  0.22599  0.37097  1.0000
  O   O3        1.0  0.47645999999999994  0.16325  0.06028  1.0000
  O   O4        1.0  0.48529000000000005  0.014460000000000023  0.22415999999999997  1.0000
  O   O5        1.0  0.8152399999999999  0.46980000000000005  0.76257  1.0000
  O   O6        1.0  0.95149  0.5921399999999999  0.62848  1.0000
  O   O7        1.0  0.9780600000000002  0.22266000000000002  0.93858  1.0000
  O   O8        1.0  0.99248  0.23714  0.77527  1.0000
