data_image0
_chemical_formula_structural       In6H36C72N12O24
_chemical_formula_sum              "In6 H36 C72 N12 O24"
_cell_length_a       14.95079
_cell_length_b       15.887440000000002
_cell_length_c       15.88189
_cell_angle_alpha    111.57171
_cell_angle_beta     108.34039
_cell_angle_gamma    108.34051

_symmetry_space_group_name_H-M    'P 1'
_symmetry_Int_Tables_number       1

loop_
  _symmetry_equiv_pos_as_xyz
  'x,y,z'

loop_
  _atom_site_type_symbol
  _atom_site_label
  _atom_site_symmetry_multiplicity
  _atom_site_fract_x
  _atom_site_fract_y
  _atom_site_fract_z
  _atom_site_occupancy
  In  In1       1.0  0.6034100000000001  0.9302999999999998  0.43776  1.0000
  In  In2       1.0  0.10335000000000011  0.43772999999999995  0.9304200000000001  1.0000
  In  In3       1.0  0.6736  0.50515  0.07049  1.0000
  In  In4       1.0  0.6671  0.4921299999999999  0.56372  1.0000
  In  In5       1.0  0.16705999999999993  0.5636099999999998  0.49218  1.0000
  In  In6       1.0  0.17380000000000004  0.07067999999999998  0.50525  1.0000
  H   H1        1.0  0.44253  0.64054  0.97894  1.0000
  H   H2        1.0  0.97161  0.5262699999999998  0.53564  1.0000
  H   H3        1.0  0.28569999999999984  0.9614699999999998  0.66672  1.0000
  H   H4        1.0  0.29532  0.3579399999999999  0.34148  1.0000
  H   H5        1.0  0.99513  0.27038  0.38625  1.0000
  H   H6        1.0  0.83242  0.036390000000000026  0.71083  1.0000
  H   H7        1.0  0.3822599999999999  0.7018299999999997  0.4984  1.0000
  H   H8        1.0  0.4333199999999999  0.6010899999999998  0.79755  1.0000
  H   H9        1.0  0.6817599999999999  0.7964799999999997  0.30082  1.0000
  H   H10       1.0  0.33229999999999993  0.7106499999999998  0.03634  1.0000
  H   H11       1.0  0.79537  0.34148  0.35787  1.0000
  H   H12       1.0  0.33598999999999996  0.4071699999999999  0.20124  1.0000
  H   H13       1.0  0.18175999999999995  0.3008799999999999  0.7965499999999999  1.0000
  H   H14       1.0  0.93553  0.9924699999999997  0.46613  1.0000
  H   H15       1.0  0.8835600000000001  0.5001  0.20281  1.0000
  H   H16       1.0  0.49518999999999996  0.38613999999999987  0.27039  1.0000
  H   H17       1.0  0.11713000000000003  0.28944  0.33299  1.0000
  H   H18       1.0  0.94271  0.9790600000000002  0.64074  1.0000
  H   H19       1.0  0.22582  0.72905  0.10577  1.0000
  H   H20       1.0  0.72579  0.10576000000000003  0.729  1.0000
  H   H21       1.0  0.47163999999999995  0.5355799999999997  0.52629  1.0000
  H   H22       1.0  0.94246  0.4731399999999999  0.00865  1.0000
  H   H23       1.0  0.4528899999999999  0.020949999999999913  0.6547899999999999  1.0000
  H   H24       1.0  0.78591  0.66682  0.96172  1.0000
  H   H25       1.0  0.63399  0.19427999999999995  0.79815  1.0000
  H   H26       1.0  0.6120799999999997  0.6184999999999998  0.88821  1.0000
  H   H27       1.0  0.3836  0.20290999999999995  0.5001  1.0000
  H   H28       1.0  0.83598  0.20117999999999994  0.40731  1.0000
  H   H29       1.0  0.13412  0.7983  0.19427  1.0000
  H   H30       1.0  0.43548  0.4661999999999999  0.99253  1.0000
  H   H31       1.0  0.9530699999999999  0.6548599999999999  0.02111  1.0000
  H   H32       1.0  0.11193999999999994  0.8879799999999998  0.61822  1.0000
  H   H33       1.0  0.44264000000000003  0.008730000000000045  0.47318000000000005  1.0000
  H   H34       1.0  0.88223  0.49835  0.70185  1.0000
  H   H35       1.0  0.61715  0.3329199999999999  0.28936  1.0000
  H   H36       1.0  0.93322  0.79744  0.60089  1.0000
  C   C1        1.0  0.73606  0.40094  0.95742  1.0000
  C   C2        1.0  0.15288999999999997  0.20879999999999996  0.41225  1.0000
  C   C3        1.0  0.0170799999999999  0.5475599999999998  0.89286  1.0000
  C   C4        1.0  0.4459599999999999  0.7905799999999997  0.20040999999999998  1.0000
  C   C5        1.0  0.78052  0.04317999999999999  0.45036  1.0000
  C   C6        1.0  0.83356  0.5938499999999998  0.55471  1.0000
  C   C7        1.0  0.5009899999999998  0.5549999999999998  0.60643  1.0000
  C   C8        1.0  0.3086099999999999  0.9057499999999998  0.6295399999999999  1.0000
  C   C9        1.0  0.93112  0.57356  0.86571  1.0000
  C   C10       1.0  0.94596  0.2004399999999999  0.79063  1.0000
  C   C11       1.0  0.72109  0.23531999999999995  0.83025  1.0000
  C   C12       1.0  0.12945  0.10944  0.65627  1.0000
  C   C13       1.0  0.7763  0.3735499999999999  0.30918  1.0000
  C   C14       1.0  0.65289  0.4122399999999999  0.20875  1.0000
  C   C15       1.0  0.78176  0.34159  0.9108  1.0000
  C   C16       1.0  0.47083  0.68933  0.06098  1.0000
  C   C17       1.0  0.90942  0.09324  0.72796  1.0000
  C   C18       1.0  0.28043  0.45023999999999986  0.04326  1.0000
  C   C19       1.0  0.3859999999999999  0.8308099999999998  0.24182  1.0000
  C   C20       1.0  0.67747  0.3695  0.27156  1.0000
  C   C21       1.0  0.86361  0.53632  0.76133  1.0000
  C   C22       1.0  0.64085  0.58686  0.75629  1.0000
  C   C23       1.0  0.55376  0.41488999999999987  0.16887  1.0000
  C   C24       1.0  0.40934  0.72781  0.09318  1.0000
  C   C25       1.0  0.89096  0.16955  0.41377  1.0000
  C   C26       1.0  0.17746  0.27164  0.36954  1.0000
  C   C27       1.0  0.43824  0.5678199999999998  0.65403  1.0000
  C   C28       1.0  0.5814699999999999  0.6031699999999998  0.8093  1.0000
  C   C29       1.0  0.7415  0.58768  0.79886  1.0000
  C   C30       1.0  0.48109  0.5923699999999998  0.75884  1.0000
  C   C31       1.0  0.07080999999999998  0.1359099999999999  0.71043  1.0000
  C   C32       1.0  0.43103999999999987  0.8655999999999996  0.57354  1.0000
  C   C33       1.0  0.39287999999999995  0.9473999999999998  0.39194  1.0000
  C   C34       1.0  0.88592  0.24182  0.8308  1.0000
  C   C35       1.0  0.08131999999999989  0.8091099999999998  0.60296  1.0000
  C   C36       1.0  0.33360999999999996  0.5547899999999998  0.59398  1.0000
  C   C37       1.0  0.40234  0.9391299999999998  0.62398  1.0000
  C   C38       1.0  0.10511999999999999  0.2405  0.77626  1.0000
  C   C39       1.0  0.9381299999999999  0.6538999999999998  0.56767  1.0000
  C   C40       1.0  0.32638  0.22287  0.46195  1.0000
  C   C41       1.0  0.22119999999999995  0.8303599999999998  0.23535  1.0000
  C   C42       1.0  0.62937  0.6561699999999998  0.10933  1.0000
  C   C43       1.0  0.51705  0.89272  0.54758  1.0000
  C   C44       1.0  0.8561400000000001  0.42409  0.28794  1.0000
  C   C45       1.0  0.44614  0.4477299999999999  0.05324  1.0000
  C   C46       1.0  0.27319999999999994  0.7926599999999999  0.18610000000000002  1.0000
  C   C47       1.0  0.2363699999999999  0.9576999999999998  0.40111  1.0000
  C   C48       1.0  0.87204  0.08948  0.43728  1.0000
  C   C49       1.0  0.14072999999999994  0.7561399999999998  0.58675  1.0000
  C   C50       1.0  0.57073  0.71031  0.13581  1.0000
  C   C51       1.0  0.90247  0.62405  0.93928  1.0000
  C   C52       1.0  0.97959  0.2072  0.4013  1.0000
  C   C53       1.0  0.053769999999999984  0.16888999999999998  0.41491999999999996  1.0000
  C   C54       1.0  0.46872  0.3415  0.45001  1.0000
  C   C55       1.0  0.39095  0.4136500000000001  0.16958  1.0000
  C   C56       1.0  0.24138999999999994  0.7987  0.58758  1.0000
  C   C57       1.0  0.98094  0.7586799999999998  0.59217  1.0000
  C   C58       1.0  0.28191999999999995  0.9109399999999997  0.34165  1.0000
  C   C59       1.0  0.9687200000000002  0.4499899999999999  0.3414  1.0000
  C   C60       1.0  0.8087599999999999  0.6296399999999996  0.9059399999999999  1.0000
  C   C61       1.0  0.35613  0.28805  0.42412  1.0000
  C   C62       1.0  0.372  0.4372099999999999  0.08953000000000001  1.0000
  C   C63       1.0  0.27628  0.3092699999999999  0.37357  1.0000
  C   C64       1.0  0.0009400000000000466  0.60636  0.55497  1.0000
  C   C65       1.0  0.97096  0.061079999999999995  0.6895  1.0000
  C   C66       1.0  0.8927300000000002  0.39191  0.94732  1.0000
  C   C67       1.0  0.6051  0.77619  0.24044  1.0000
  C   C68       1.0  0.94619  0.053199999999999976  0.44771  1.0000
  C   C69       1.0  0.7731299999999999  0.1860899999999999  0.7926  1.0000
  C   C70       1.0  0.36357  0.76125  0.53632  1.0000
  C   C71       1.0  0.47959999999999997  0.4012099999999999  0.20721  1.0000
  C   C72       1.0  0.82635  0.46195  0.22277  1.0000
  N   N1        1.0  0.9425099999999998  0.3454199999999999  0.9084899999999999  1.0000
  N   N2        1.0  0.09679999999999996  0.6540999999999998  0.56271  1.0000
  N   N3        1.0  0.72939  0.45513  0.18367  1.0000
  N   N4        1.0  0.7740200000000002  0.5437899999999999  0.7292900000000001  1.0000
  N   N5        1.0  0.22941  0.18373000000000003  0.45510000000000006  1.0000
  N   N6        1.0  0.53339  0.43840999999999997  0.09136  1.0000
  N   N7        1.0  0.44263000000000013  0.9085300000000001  0.34544  1.0000
  N   N8        1.0  0.5968399999999999  0.5627199999999998  0.65417  1.0000
  N   N9        1.0  0.27394999999999997  0.7291699999999998  0.54375  1.0000
  N   N10       1.0  0.033430000000000015  0.09137  0.4384  1.0000
  N   N11       1.0  0.5468099999999999  0.8155899999999999  0.27152  1.0000
  N   N12       1.0  0.04678000000000004  0.27155  0.81562  1.0000
  O   O1        1.0  0.52799  0.8214099999999998  0.48559  1.0000
  O   O2        1.0  0.77176  0.6329799999999999  0.56617  1.0000
  O   O3        1.0  0.4995  0.40779999999999994  0.42184999999999995  1.0000
  O   O4        1.0  0.30280999999999997  0.5338899999999998  0.49863  1.0000
  O   O5        1.0  0.0756199999999999  0.5761699999999997  0.9887899999999998  1.0000
  O   O6        1.0  0.5756399999999999  0.9886199999999998  0.57624  1.0000
  O   O7        1.0  0.27175999999999995  0.5661199999999997  0.63308  1.0000
  O   O8        1.0  0.20733  0.4388  0.07085  1.0000
  O   O9        1.0  0.77033  0.9689099999999999  0.47045000000000003  1.0000
  O   O10       1.0  0.20965  0.18144  0.66519  1.0000
  O   O11       1.0  0.59315  0.5879  0.01311  1.0000
  O   O12       1.0  0.9995399999999999  0.42177  0.40767  1.0000
  O   O13       1.0  0.8008399999999998  0.49802999999999986  0.03204  1.0000
  O   O14       1.0  0.13536000000000004  0.93023  0.36053  1.0000
  O   O15       1.0  0.70964  0.66516  0.18135  1.0000
  O   O16       1.0  0.27024999999999993  0.4704699999999999  0.9690499999999999  1.0000
  O   O17       1.0  0.54155  0.33356999999999987  0.51225  1.0000
  O   O18       1.0  0.04156  0.51231  0.33356  1.0000
  O   O19       1.0  0.028009999999999972  0.4855899999999999  0.82151  1.0000
  O   O20       1.0  0.80276  0.49852999999999986  0.5338  1.0000
  O   O21       1.0  0.70745  0.07080999999999998  0.43909000000000004  1.0000
  O   O22       1.0  0.30124  0.03240000000000001  0.49817  1.0000
  O   O23       1.0  0.09328999999999997  0.013240000000000023  0.58806  1.0000
  O   O24       1.0  0.63507  0.3602799999999998  0.92995  1.0000
