data_image0
_chemical_formula_structural       V12Ni8H24C40N16O46
_chemical_formula_sum              "V12 Ni8 H24 C40 N16 O46"
_cell_length_a       12.22887
_cell_length_b       13.803109999999998
_cell_length_c       13.8486
_cell_angle_alpha    78.57339
_cell_angle_beta     63.80519999999999
_cell_angle_gamma    63.74315000000001

_symmetry_space_group_name_H-M    'P 1'
_symmetry_Int_Tables_number       1

loop_
  _symmetry_equiv_pos_as_xyz
  'x,y,z'

loop_
  _atom_site_type_symbol
  _atom_site_label
  _atom_site_symmetry_multiplicity
  _atom_site_fract_x
  _atom_site_fract_y
  _atom_site_fract_z
  _atom_site_occupancy
  V   V1        1.0  0.12768999999999994  0.49837  0.20602000000000004  1.0000
  V   V2        1.0  0.11480999999999995  0.5040999999999999  0.7904000000000001  1.0000
  V   V3        1.0  0.9084099999999995  0.60228  0.42979  1.0000
  V   V4        1.0  0.83199  0.50142  0.79395  1.0000
  V   V5        1.0  0.4094299999999999  0.49591  0.20953000000000002  1.0000
  V   V6        1.0  0.9400499999999998  0.39882  0.57136  1.0000
  V   V7        1.0  0.6275000000000001  0.20688999999999994  0.50067  1.0000
  V   V8        1.0  0.61635  0.79154  0.49894  1.0000
  V   V9        1.0  0.5104500000000001  0.42262  0.39483  1.0000
  V   V10       1.0  0.3344300000000002  0.7937499999999998  0.49942  1.0000
  V   V11       1.0  0.9070399999999998  0.20871  0.50112  1.0000
  V   V12       1.0  0.32785000000000003  0.57735  0.60525  1.0000
  Ni  Ni1       1.0  0.04468999999999999  0.6649  0.0008  1.0000
  Ni  Ni2       1.0  0.6058799999999999  0.76838  0.7656900000000001  1.0000
  Ni  Ni3       1.0  0.71026  0.33516999999999997  0.99979  1.0000
  Ni  Ni4       1.0  0.14018000000000003  0.23123  0.23446  1.0000
  Ni  Ni5       1.0  0.70988  0.9998099999999999  0.3353300000000001  1.0000
  Ni  Ni6       1.0  0.37545999999999996  0.7643  0.23178000000000007  1.0000
  Ni  Ni7       1.0  0.04423000000000007  0.00126  0.66488  1.0000
  Ni  Ni8       1.0  0.37149  0.23566  0.76849  1.0000
  H   H1        1.0  0.33709000000000006  0.5421899999999998  0.0018000000000000004  1.0000
  H   H2        1.0  0.5385  0.58916  0.91678  1.0000
  H   H3        1.0  0.3390100000000001  0.8527199999999998  0.76274  1.0000
  H   H4        1.0  0.61255  0.66799  0.31993  1.0000
  H   H5        1.0  0.8518699999999999  0.6466699999999999  0.22833  1.0000
  H   H6        1.0  0.82033  0.71707  0.93274  1.0000
  H   H7        1.0  0.88065  0.45822999999999997  0.99861  1.0000
  H   H8        1.0  0.04509000000000001  0.4103  0.08274  1.0000
  H   H9        1.0  0.9540999999999998  0.1472  0.23716000000000004  1.0000
  H   H10       1.0  0.6000999999999997  0.33214999999999995  0.6803600000000002  1.0000
  H   H11       1.0  0.7265800000000002  0.35336999999999996  0.77202  1.0000
  H   H12       1.0  0.46962  0.28321  0.06762  1.0000
  H   H13       1.0  0.88106  2.9999999999999736e-05  0.45783000000000007  1.0000
  H   H14       1.0  0.12932000000000005  0.9158699999999999  0.40991  1.0000
  H   H15       1.0  0.19106000000000012  0.7625499999999997  0.14795  1.0000
  H   H16       1.0  0.27966  0.31975999999999993  0.33173  1.0000
  H   H17       1.0  0.49719  0.22794999999999999  0.35335  1.0000
  H   H18       1.0  0.5384500000000001  0.9316299999999997  0.28164  1.0000
  H   H19       1.0  0.33874  0.00015000000000000007  0.54238  1.0000
  H   H20       1.0  0.45483  0.08437  0.59042  1.0000
  H   H21       1.0  0.10157999999999992  0.23795  0.8520200000000001  1.0000
  H   H22       1.0  0.93065  0.6800799999999999  0.66867  1.0000
  H   H23       1.0  0.07821000000000024  0.7718699999999997  0.64681  1.0000
  H   H24       1.0  0.75217  0.06832999999999999  0.71811  1.0000
  C   C1        1.0  0.33864  0.6112899999999999  0.9482  1.0000
  C   C2        1.0  0.44893  0.63776  0.90173  1.0000
  C   C3        1.0  0.33843999999999996  0.7839799999999998  0.8167100000000002  1.0000
  C   C4        1.0  0.22798000000000007  0.7576899999999999  0.86372  1.0000
  C   C5        1.0  0.10533000000000016  0.8198199999999998  0.84014  1.0000
  C   C6        1.0  0.65917  0.6789199999999999  0.23353000000000002  1.0000
  C   C7        1.0  0.7919300000000001  0.6659499999999998  0.18263000000000001  1.0000
  C   C8        1.0  0.7750800000000002  0.7062999999999998  0.0192  1.0000
  C   C9        1.0  0.64125  0.72184  0.07076  1.0000
  C   C10       1.0  0.55482  0.75615  0.00933  1.0000
  C   C11       1.0  0.89791  0.38890999999999987  0.05195000000000001  1.0000
  C   C12       1.0  0.9886  0.36198  0.09811  1.0000
  C   C13       1.0  0.93888  0.21593999999999994  0.18321000000000004  1.0000
  C   C14       1.0  0.8491099999999999  0.2424  0.13621  1.0000
  C   C15       1.0  0.76523  0.18008  0.15951  1.0000
  C   C16       1.0  0.5713199999999999  0.32119  0.76678  1.0000
  C   C17       1.0  0.64023  0.3341  0.8177200000000001  1.0000
  C   C18       1.0  0.50036  0.29379999999999995  0.98112  1.0000
  C   C19       1.0  0.43374  0.2781199999999999  0.92952  1.0000
  C   C20       1.0  0.3204199999999997  0.24353999999999998  0.9909000000000002  1.0000
  C   C21       1.0  0.9511199999999994  0.94679  0.38887  1.0000
  C   C22       1.0  0.08796000000000016  0.9006699999999997  0.36184  1.0000
  C   C23       1.0  0.12228000000000001  0.8160399999999999  0.21664  1.0000
  C   C24       1.0  0.9854700000000001  0.8629199999999999  0.24335  1.0000
  C   C25       1.0  0.9240800000000001  0.8398399999999999  0.18184  1.0000
  C   C26       1.0  0.33748000000000006  0.23313999999999993  0.32058  1.0000
  C   C27       1.0  0.45731999999999995  0.18194999999999995  0.3336100000000001  1.0000
  C   C28       1.0  0.4819499999999999  0.01826  0.29245  1.0000
  C   C29       1.0  0.36357  0.07003  0.27684  1.0000
  C   C30       1.0  0.3117599999999999  0.00854  0.24234000000000003  1.0000
  C   C31       1.0  0.28648000000000007  0.05353  0.61127  1.0000
  C   C32       1.0  0.35029  0.09951999999999997  0.63835  1.0000
  C   C33       1.0  0.15500999999999998  0.18431999999999998  0.78344  1.0000
  C   C34       1.0  0.09165000000000002  0.13758  0.75674  1.0000
  C   C35       1.0  0.9458299999999998  0.16057  0.8185500000000001  1.0000
  C   C36       1.0  0.8908699999999999  0.7667699999999997  0.67961  1.0000
  C   C37       1.0  0.9726999999999999  0.8179499999999997  0.6665  1.0000
  C   C38       1.0  0.79282  0.98165  0.70739  1.0000
  C   C39       1.0  0.71045  0.9299199999999999  0.7230800000000001  1.0000
  C   C40       1.0  0.5627000000000001  0.9916499999999999  0.75777  1.0000
  N   N1        1.0  0.22838999999999984  0.67221  0.9299400000000002  1.0000
  N   N2        1.0  0.44782  0.72466  0.83653  1.0000
  N   N3        1.0  0.5834199999999999  0.70769  0.17743  1.0000
  N   N4        1.0  0.85054  0.67867  0.07525  1.0000
  N   N5        1.0  0.83007  0.32809999999999995  0.07034  1.0000
  N   N6        1.0  0.009110000000000054  0.27505999999999997  0.16329  1.0000
  N   N7        1.0  0.46825000000000006  0.29239  0.82288  1.0000
  N   N8        1.0  0.60419  0.32152  0.92514  1.0000
  N   N9        1.0  0.9010400000000001  0.9285699999999999  0.3287  1.0000
  N   N10       1.0  0.1730799999999999  0.83561  0.27538  1.0000
  N   N11       1.0  0.29104  0.17692  0.2913  1.0000
  N   N12       1.0  0.52928  0.07441  0.32058  1.0000
  N   N13       1.0  0.15798  0.07197  0.67137  1.0000
  N   N14       1.0  0.28408  0.16459  0.72479  1.0000
  N   N15       1.0  0.759  0.8229299999999999  0.70888  1.0000
  N   N16       1.0  0.9242999999999997  0.92559  0.6793200000000001  1.0000
  O   O1        1.0  0.010030000000000195  0.7892199999999998  0.88757  1.0000
  O   O2        1.0  0.11334000000000014  0.8955199999999999  0.77252  1.0000
  O   O3        1.0  0.43149  0.7786899999999999  0.06254  1.0000
  O   O4        1.0  0.6196  0.75753  0.90831  1.0000
  O   O5        1.0  0.10302999999999997  0.53392  0.09269  1.0000
  O   O6        1.0  0.7452500000000001  0.60893  0.73773  1.0000
  O   O7        1.0  0.02152999999999998  0.61234  0.29454  1.0000
  O   O8        1.0  0.297  0.47076999999999997  0.17781  1.0000
  O   O9        1.0  0.11059  0.5571  0.88974  1.0000
  O   O10       1.0  0.5845200000000002  0.7807699999999999  0.62889  1.0000
  O   O11       1.0  0.1718599999999999  0.57153  0.6608600000000002  1.0000
  O   O12       1.0  0.68726  0.21018  0.11172000000000003  1.0000
  O   O13       1.0  0.7813900000000001  0.10448  0.22721  1.0000
  O   O14       1.0  0.27306000000000014  0.22072  0.93765  1.0000
  O   O15       1.0  0.28556  0.24218  0.09193  1.0000
  O   O16       1.0  0.72986  0.46587  0.9074300000000001  1.0000
  O   O17       1.0  0.09287999999999998  0.39063999999999993  0.26191  1.0000
  O   O18       1.0  0.9279399999999998  0.38625  0.7069100000000001  1.0000
  O   O19       1.0  0.9456299999999997  0.52929  0.8215700000000002  1.0000
  O   O20       1.0  0.5578300000000002  0.4432399999999999  0.11050000000000001  1.0000
  O   O21       1.0  0.9941699999999999  0.21918  0.37106000000000006  1.0000
  O   O22       1.0  0.40441999999999995  0.4284799999999999  0.33906  1.0000
  O   O23       1.0  0.7980000000000004  0.8864799999999998  0.21377000000000004  1.0000
  O   O24       1.0  0.006959999999999978  0.77378  0.10538  1.0000
  O   O25       1.0  0.21147999999999997  0.06179  0.21902  1.0000
  O   O26       1.0  0.3779600000000001  0.9071299999999999  0.24175000000000002  1.0000
  O   O27       1.0  0.6362899999999998  0.09572  0.46262  1.0000
  O   O28       1.0  0.3562199999999999  0.73964  0.39111  1.0000
  O   O29       1.0  0.64493  0.29599999999999993  0.38438  1.0000
  O   O30       1.0  0.76834  0.17666  0.53006  1.0000
  O   O31       1.0  0.6681800000000001  0.8898399999999997  0.44581  1.0000
  O   O32       1.0  0.36681999999999976  0.62552  0.22510000000000005  1.0000
  O   O33       1.0  0.7427899999999998  0.6609499999999999  0.4391  1.0000
  O   O34       1.0  0.8979799999999999  0.11421  0.78657  1.0000
  O   O35       1.0  0.8866500000000002  0.22614999999999993  0.89538  1.0000
  O   O36       1.0  0.4921500000000002  0.9385799999999997  0.78083  1.0000
  O   O37       1.0  0.52725  0.09303  0.75864  1.0000
  O   O38       1.0  0.19451000000000007  0.9051199999999998  0.53699  1.0000
  O   O39       1.0  0.4868799999999999  0.26107  0.60895  1.0000
  O   O40       1.0  0.32415000000000005  0.70462  0.61548  1.0000
  O   O41       1.0  0.47447  0.8239199999999999  0.47029000000000004  1.0000
  O   O42       1.0  0.004029999999999994  0.11028999999999997  0.5541  1.0000
  O   O43       1.0  0.21758000000000005  0.37452  0.77506  1.0000
  O   O44       1.0  0.8439  0.33936  0.56034  1.0000
  O   O45       1.0  0.0007199999999999852  0.50035  0.50052  1.0000
  O   O46       1.0  0.47904  0.49993999999999994  0.50023  1.0000
