data_image0
_chemical_formula_structural       Zn2H32C46N12O8
_chemical_formula_sum              "Zn2 H32 C46 N12 O8"
_cell_length_a       7.93061
_cell_length_b       14.75598
_cell_length_c       14.75669
_cell_angle_alpha    93.94454999999999
_cell_angle_beta     103.06557
_cell_angle_gamma    103.06481999999998

_symmetry_space_group_name_H-M    'P 1'
_symmetry_Int_Tables_number       1

loop_
  _symmetry_equiv_pos_as_xyz
  'x,y,z'

loop_
  _atom_site_type_symbol
  _atom_site_label
  _atom_site_symmetry_multiplicity
  _atom_site_fract_x
  _atom_site_fract_y
  _atom_site_fract_z
  _atom_site_occupancy
  Zn  Zn1       1.0  0.58507  0.7321800000000002  0.74853  1.0000
  Zn  Zn2       1.0  0.41492999999999997  0.25148  0.26782  1.0000
  H   H1        1.0  0.13615000000000008  0.6075000000000003  0.5024  1.0000
  H   H2        1.0  0.12794000000000014  0.41119000000000017  0.70282  1.0000
  H   H3        1.0  0.28134000000000003  0.8603300000000002  0.89728  1.0000
  H   H4        1.0  0.8261500000000004  0.9998400000000001  0.0329  1.0000
  H   H5        1.0  0.8962  0.92827  0.76588  1.0000
  H   H6        1.0  0.6062500000000001  0.9631300000000003  0.4956599999999999  1.0000
  H   H7        1.0  0.4491400000000002  0.7924200000000002  0.54762  1.0000
  H   H8        1.0  0.015839999999999913  0.08463  0.7815399999999998  1.0000
  H   H9        1.0  0.30317999999999995  0.12163000000000003  0.8852699999999999  1.0000
  H   H10       1.0  0.53392  0.26805  0.01199  1.0000
  H   H11       1.0  0.35244  0.37541  0.76147  1.0000
  H   H12       1.0  0.2983500000000001  0.27317000000000013  0.62333  1.0000
  H   H13       1.0  0.3835  0.21192000000000005  0.47406999999999994  1.0000
  H   H14       1.0  0.9819200000000001  0.2151700000000001  0.23282  1.0000
  H   H15       1.0  0.8203  0.17425000000000004  0.37867  1.0000
  H   H16       1.0  0.85833  0.044760000000000015  0.47867  1.0000
  H   H17       1.0  0.86391  0.4976500000000001  0.39252  1.0000
  H   H18       1.0  0.87199  0.29716  0.58877  1.0000
  H   H19       1.0  0.71867  0.10273  0.13968  1.0000
  H   H20       1.0  0.17386  0.96711  0.00017  1.0000
  H   H21       1.0  0.10380000000000003  0.23412000000000005  0.07175  1.0000
  H   H22       1.0  0.39379  0.50434  0.036869999999999986  1.0000
  H   H23       1.0  0.5508600000000001  0.4523900000000001  0.20758  1.0000
  H   H24       1.0  0.98417  0.21845000000000003  0.9153899999999999  1.0000
  H   H25       1.0  0.6968399999999999  0.11469999999999997  0.8783699999999998  1.0000
  H   H26       1.0  0.4660699999999999  0.98799  0.73196  1.0000
  H   H27       1.0  0.6475700000000002  0.23853  0.62462  1.0000
  H   H28       1.0  0.70168  0.3766600000000002  0.72684  1.0000
  H   H29       1.0  0.61652  0.52593  0.78809  1.0000
  H   H30       1.0  0.018099999999999967  0.76719  0.78483  1.0000
  H   H31       1.0  0.17972000000000007  0.6213300000000003  0.82575  1.0000
  H   H32       1.0  0.14168999999999993  0.52134  0.95524  1.0000
  C   C1        1.0  0.3066900000000002  0.5797800000000002  0.67598  1.0000
  C   C2        1.0  0.1486099999999999  0.5151  0.60838  1.0000
  C   C3        1.0  0.07471000000000007  0.5400100000000002  0.52081  1.0000
  C   C4        1.0  0.07245000000000004  0.42827000000000004  0.63369  1.0000
  C   C5        1.0  0.6235900000000001  0.8630800000000002  0.89584  1.0000
  C   C6        1.0  0.55918  0.9246200000000002  0.95868  1.0000
  C   C7        1.0  0.3752899999999998  0.91492  0.9494799999999998  1.0000
  C   C8        1.0  0.6840300000000001  0.9933200000000002  0.02655  1.0000
  C   C9        1.0  0.7992100000000001  0.9134900000000002  0.6986799999999999  1.0000
  C   C10       1.0  0.64533  0.92899  0.55667  1.0000
  C   C11       1.0  0.56738  0.8462300000000003  0.58361  1.0000
  C   C12       1.0  0.9225499999999999  0.055539999999999985  0.6303199999999998  1.0000
  C   C13       1.0  0.03496999999999998  0.10530999999999997  0.7146199999999998  1.0000
  C   C14       1.0  0.17147000000000012  0.18324000000000001  0.71169  1.0000
  C   C15       1.0  0.34495999999999993  0.19553000000000004  0.8791299999999997  1.0000
  C   C16       1.0  0.4621100000000001  0.26918  0.94036  1.0000
  C   C17       1.0  0.37620999999999993  0.3275400000000001  0.8127099999999999  1.0000
  C   C18       1.0  0.19221  0.21306000000000005  0.62586  1.0000
  C   C19       1.0  0.07493000000000001  0.16355000000000003  0.54312  1.0000
  C   C20       1.0  0.25414  0.21017000000000002  0.42902  1.0000
  C   C21       1.0  0.04088000000000002  0.20793000000000006  0.3047  1.0000
  C   C22       1.0  0.95851  0.18635  0.37528  1.0000
  C   C23       1.0  0.9404200000000003  0.08485000000000002  0.54438  1.0000
  C   C24       1.0  0.69331  0.32402  0.42022  1.0000
  C   C25       1.0  0.85139  0.3916300000000001  0.48489  1.0000
  C   C26       1.0  0.9253100000000002  0.47921000000000014  0.4599999999999999  1.0000
  C   C27       1.0  0.92751  0.36630000000000007  0.57171  1.0000
  C   C28       1.0  0.37641000000000013  0.10416000000000003  0.13693  1.0000
  C   C29       1.0  0.44083  0.041330000000000006  0.07539  1.0000
  C   C30       1.0  0.62472  0.05052  0.08509  1.0000
  C   C31       1.0  0.31598000000000015  0.9734600000000002  0.006689999999999998  1.0000
  C   C32       1.0  0.20079  0.30132  0.08652  1.0000
  C   C33       1.0  0.35469  0.44333  0.07100999999999998  1.0000
  C   C34       1.0  0.43262  0.4164000000000001  0.15377  1.0000
  C   C35       1.0  0.0774699999999999  0.36967  0.9444699999999998  1.0000
  C   C36       1.0  0.96504  0.2853700000000001  0.8947099999999998  1.0000
  C   C37       1.0  0.8285500000000002  0.2883  0.81678  1.0000
  C   C38       1.0  0.65505  0.12085000000000003  0.80447  1.0000
  C   C39       1.0  0.5378800000000002  0.05961999999999999  0.7308299999999999  1.0000
  C   C40       1.0  0.6238  0.18728000000000006  0.67247  1.0000
  C   C41       1.0  0.80782  0.37413  0.78695  1.0000
  C   C42       1.0  0.9251  0.4568800000000001  0.83645  1.0000
  C   C43       1.0  0.7458800000000001  0.5709800000000003  0.7898399999999998  1.0000
  C   C44       1.0  0.9591300000000004  0.6953100000000002  0.7920699999999998  1.0000
  C   C45       1.0  0.04151000000000005  0.62472  0.81364  1.0000
  C   C46       1.0  0.05960999999999998  0.45562000000000014  0.9151499999999998  1.0000
  N   N1        1.0  0.66441  0.8375000000000002  0.6719599999999998  1.0000
  N   N2        1.0  0.7936599999999999  0.9712600000000002  0.6299499999999998  1.0000
  N   N3        1.0  0.47974  0.3510700000000001  0.89871  1.0000
  N   N4        1.0  0.29029000000000005  0.23269000000000006  0.79622  1.0000
  N   N5        1.0  0.22411000000000003  0.22206000000000006  0.33874  1.0000
  N   N6        1.0  0.09576000000000007  0.18900000000000006  0.45437  1.0000
  N   N7        1.0  0.3355900000000001  0.3280500000000001  0.16251  1.0000
  N   N8        1.0  0.20634999999999998  0.37005  0.028749999999999994  1.0000
  N   N9        1.0  0.52025  0.10127999999999997  0.6489399999999997  1.0000
  N   N10       1.0  0.7097300000000002  0.20377000000000006  0.76732  1.0000
  N   N11       1.0  0.7759  0.6612600000000001  0.7779499999999999  1.0000
  N   N12       1.0  0.9042700000000001  0.5456300000000002  0.811  1.0000
  O   O1        1.0  0.38099000000000005  0.6555600000000003  0.64616  1.0000
  O   O2        1.0  0.35869000000000023  0.5585400000000003  0.75705  1.0000
  O   O3        1.0  0.49924  0.7929300000000002  0.8447799999999998  1.0000
  O   O4        1.0  0.78462  0.8813100000000001  0.8936899999999998  1.0000
  O   O5        1.0  0.61899  0.35384000000000004  0.34444  1.0000
  O   O6        1.0  0.64135  0.24294000000000004  0.44145  1.0000
  O   O7        1.0  0.50076  0.15522000000000005  0.20708  1.0000
  O   O8        1.0  0.21539000000000005  0.10632  0.11868999999999998  1.0000
