data_image0
_chemical_formula_structural       Nd4Cu4P4H24C24N4O36
_chemical_formula_sum              "Nd4 Cu4 P4 H24 C24 N4 O36"
_cell_length_a       8.64091
_cell_length_b       9.24655
_cell_length_c       20.04179
_cell_angle_alpha    90.20272999999999
_cell_angle_beta     89.79646
_cell_angle_gamma    113.3309

_space_group_name_H-M_alt    "P 1"
_space_group_IT_number       1

loop_
  _space_group_symop_operation_xyz
  'x, y, z'

loop_
  _atom_site_type_symbol
  _atom_site_label
  _atom_site_symmetry_multiplicity
  _atom_site_fract_x
  _atom_site_fract_y
  _atom_site_fract_z
  _atom_site_occupancy
  Nd  Nd1       1.0  0.39803  0.4249699999999999  0.65157  1.0000
  Nd  Nd2       1.0  0.60489  0.07456  0.15309  1.0000
  Nd  Nd3       1.0  0.60582  0.57486  0.35022  1.0000
  Nd  Nd4       1.0  0.39546  0.92554  0.8502900000000001  1.0000
  Cu  Cu1       1.0  0.07675  0.93417  0.71226  1.0000
  Cu  Cu2       1.0  0.9244  0.56582  0.21329000000000004  1.0000
  Cu  Cu3       1.0  0.9271400000000001  0.06736  0.28949  1.0000
  Cu  Cu4       1.0  0.07588  0.43352  0.78919  1.0000
  P   P1        1.0  0.24935000000000002  0.70281  0.69305  1.0000
  P   P2        1.0  0.7514599999999999  0.7954399999999999  0.19331000000000004  1.0000
  P   P3        1.0  0.75292  0.29717  0.31006  1.0000
  P   P4        1.0  0.24867000000000003  0.20356  0.80874  1.0000
  H   H1        1.0  0.79834  0.69242  0.58848  1.0000
  H   H2        1.0  0.90144  0.56993  0.61147  1.0000
  H   H3        1.0  0.0824  0.90012  0.5225400000000001  1.0000
  H   H4        1.0  0.92454  0.93392  0.56818  1.0000
  H   H5        1.0  0.17876  0.6911  0.57434  1.0000
  H   H6        1.0  0.30729000000000006  0.88391  0.603  1.0000
  H   H7        1.0  0.20350000000000004  0.8061  0.08808  1.0000
  H   H8        1.0  0.10074  0.92865  0.11228  1.0000
  H   H9        1.0  0.91538  0.59168  0.02381  1.0000
  H   H10       1.0  0.07726  0.56345  0.06836  1.0000
  H   H11       1.0  0.8255  0.80893  0.07471  1.0000
  H   H12       1.0  0.69495  0.61581  0.10231000000000001  1.0000
  H   H13       1.0  0.20289999999999997  0.30565999999999993  0.41471  1.0000
  H   H14       1.0  0.10081999999999995  0.4288099999999999  0.39088  1.0000
  H   H15       1.0  0.91529  0.09258  0.47880000000000006  1.0000
  H   H16       1.0  0.07793  0.06475  0.434  1.0000
  H   H17       1.0  0.8249  0.30843  0.42861000000000005  1.0000
  H   H18       1.0  0.69505  0.11599  0.4002  1.0000
  H   H19       1.0  0.79667  0.19425  0.91328  1.0000
  H   H20       1.0  0.89984  0.07119  0.8903500000000001  1.0000
  H   H21       1.0  0.08213  0.40532  0.97867  1.0000
  H   H22       1.0  0.92171  0.43474  0.9335700000000002  1.0000
  H   H23       1.0  0.17721999999999996  0.19279999999999994  0.9274900000000001  1.0000
  H   H24       1.0  0.30611  0.38543  0.89903  1.0000
  C   C1        1.0  0.80093  0.65326  0.6938  1.0000
  C   C2        1.0  0.8845899999999999  0.67759  0.6252  1.0000
  C   C3        1.0  0.05096999999999986  0.9330299999999998  0.5719  1.0000
  C   C4        1.0  0.17163  0.09851  0.59088  1.0000
  C   C5        1.0  0.1975699999999999  0.7760299999999999  0.61516  1.0000
  C   C6        1.0  0.56446  0.46021  0.5043300000000001  1.0000
  C   C7        1.0  0.20137  0.8449899999999999  0.1937  1.0000
  C   C8        1.0  0.11752000000000005  0.82082  0.12528  1.0000
  C   C9        1.0  0.9504  0.56296  0.07310000000000001  1.0000
  C   C10       1.0  0.83201  0.39791  0.09367  1.0000
  C   C11       1.0  0.80472  0.7231499999999997  0.11509000000000001  1.0000
  C   C12       1.0  0.43993  0.04351  0.00546  1.0000
  C   C13       1.0  0.20312  0.34554  0.30936  1.0000
  C   C14       1.0  0.11774999999999994  0.3209799999999999  0.37762  1.0000
  C   C15       1.0  0.9508400000000001  0.06359  0.4294000000000001  1.0000
  C   C16       1.0  0.8341  0.8983  0.4083800000000001  1.0000
  C   C17       1.0  0.80503  0.22338  0.38777  1.0000
  C   C18       1.0  0.43902  0.54204  0.49759  1.0000
  C   C19       1.0  0.79995  0.15319  0.80799  1.0000
  C   C20       1.0  0.88324  0.17872  0.87659  1.0000
  C   C21       1.0  0.04889999999999999  0.43577  0.92937  1.0000
  C   C22       1.0  0.16765  0.60131  0.90938  1.0000
  C   C23       1.0  0.19639000000000006  0.27756  0.88675  1.0000
  C   C24       1.0  0.5611399999999999  0.9573599999999999  0.9979900000000003  1.0000
  N   N1        1.0  0.047949999999999986  0.81749  0.62332  1.0000
  N   N2        1.0  0.9537300000000001  0.6810299999999998  0.12371  1.0000
  N   N3        1.0  0.9541499999999999  0.18138  0.3790300000000001  1.0000
  N   N4        1.0  0.04674  0.31875  0.87838  1.0000
  O   O1        1.0  0.86899  0.75155  0.74029  1.0000
  O   O2        1.0  0.66327  0.53351  0.7006  1.0000
  O   O3        1.0  0.21914  0.12119  0.6531700000000001  1.0000
  O   O4        1.0  0.21757  0.20798  0.54951  1.0000
  O   O5        1.0  0.40909  0.67178  0.683  1.0000
  O   O6        1.0  0.0944  0.5481  0.7070300000000002  1.0000
  O   O7        1.0  0.27302  0.83742  0.74346  1.0000
  O   O8        1.0  0.58296  0.41278999999999993  0.56193  1.0000
  O   O9        1.0  0.64019  0.4482199999999999  0.45164000000000004  1.0000
  O   O10       1.0  0.13369  0.7449399999999999  0.23952000000000004  1.0000
  O   O11       1.0  0.33763  0.9655599999999999  0.20158  1.0000
  O   O12       1.0  0.77997  0.37899  0.15537000000000004  1.0000
  O   O13       1.0  0.79122  0.28474999999999995  0.05399000000000002  1.0000
  O   O14       1.0  0.5922899999999999  0.8274299999999999  0.18419000000000002  1.0000
  O   O15       1.0  0.90637  0.9498200000000001  0.20789  1.0000
  O   O16       1.0  0.72666  0.65893  0.24249  1.0000
  O   O17       1.0  0.42278  0.09185999999999997  0.06327  1.0000
  O   O18       1.0  0.36626  0.05751  0.9527900000000001  1.0000
  O   O19       1.0  0.13733  0.24666999999999997  0.26283  1.0000
  O   O20       1.0  0.33965999999999996  0.4664  0.3028  1.0000
  O   O21       1.0  0.7812  0.87956  0.34688  1.0000
  O   O22       1.0  0.7959100000000001  0.78497  0.44764  1.0000
  O   O23       1.0  0.59151  0.3253699999999999  0.31994  1.0000
  O   O24       1.0  0.90588  0.454  0.29661  1.0000
  O   O25       1.0  0.73357  0.16419  0.25926  1.0000
  O   O26       1.0  0.42387  0.5934  0.4404600000000001  1.0000
  O   O27       1.0  0.35984  0.5503  0.54987  1.0000
  O   O28       1.0  0.86849  0.2507  0.7613700000000001  1.0000
  O   O29       1.0  0.66232  0.03354  0.80128  1.0000
  O   O30       1.0  0.21923000000000004  0.62071  0.84761  1.0000
  O   O31       1.0  0.20916  0.71413  0.94931  1.0000
  O   O32       1.0  0.40796  0.17235  0.81883  1.0000
  O   O33       1.0  0.09393  0.04869  0.79475  1.0000
  O   O34       1.0  0.2727899999999999  0.3371499999999999  0.75812  1.0000
  O   O35       1.0  0.57787  0.90925  0.9400800000000001  1.0000
  O   O36       1.0  0.63435  0.94236  0.050620000000000005  1.0000
