data_image0
_chemical_formula_structural       Mn8H28C64N4O40
_chemical_formula_sum              "Mn8 H28 C64 N4 O40"
_cell_length_a       10.00859
_cell_length_b       12.61295
_cell_length_c       16.48341
_cell_angle_alpha    104.24742
_cell_angle_beta     92.28626999999999
_cell_angle_gamma    98.22519999999999

_symmetry_space_group_name_H-M    'P 1'
_symmetry_Int_Tables_number       1

loop_
  _symmetry_equiv_pos_as_xyz
  'x,y,z'

loop_
  _atom_site_type_symbol
  _atom_site_label
  _atom_site_symmetry_multiplicity
  _atom_site_fract_x
  _atom_site_fract_y
  _atom_site_fract_z
  _atom_site_occupancy
  Mn  Mn1       1.0  0.12776000000000004  0.30236000000000013  0.7585000000000002  1.0000
  Mn  Mn2       1.0  0.09281999999999997  0.8522300000000002  0.77251  1.0000
  Mn  Mn3       1.0  0.44445999999999997  0.21736  0.24282000000000006  1.0000
  Mn  Mn4       1.0  0.6415599999999999  0.3486400000000001  0.7711500000000002  1.0000
  Mn  Mn5       1.0  0.87236  0.6977200000000001  0.24150000000000005  1.0000
  Mn  Mn6       1.0  0.90737  0.14786  0.22749  1.0000
  Mn  Mn7       1.0  0.55545  0.7827  0.75725  1.0000
  Mn  Mn8       1.0  0.35843  0.65138  0.22895000000000004  1.0000
  H   H1        1.0  0.435  0.42802  0.028250000000000008  1.0000
  H   H2        1.0  0.11681  0.07764999999999994  0.9773  1.0000
  H   H3        1.0  0.96577  0.6901400000000001  0.4981200000000001  1.0000
  H   H4        1.0  0.4915999999999999  0.80357  0.5029700000000003  1.0000
  H   H5        1.0  0.67704  0.3784200000000001  0.96102  1.0000
  H   H6        1.0  0.65412  0.4231100000000001  0.11848000000000003  1.0000
  H   H7        1.0  0.83756  0.43581  0.21159000000000006  1.0000
  H   H8        1.0  0.05668000000000002  0.4064200000000001  0.17003000000000004  1.0000
  H   H9        1.0  0.10008  0.36941  0.014820000000000003  1.0000
  H   H10       1.0  0.11815999999999999  0.87472  0.96557  1.0000
  H   H11       1.0  0.10628  0.92898  0.12383  1.0000
  H   H12       1.0  0.30477000000000004  0.9544200000000002  0.21535000000000007  1.0000
  H   H13       1.0  0.51248  0.9158400000000001  0.16722  1.0000
  H   H14       1.0  0.54521  0.87108  0.010270000000000003  1.0000
  H   H15       1.0  0.56506  0.5719700000000001  0.9717400000000003  1.0000
  H   H16       1.0  0.88321  0.92235  0.02264  1.0000
  H   H17       1.0  0.03424  0.30992  0.50185  1.0000
  H   H18       1.0  0.5082599999999999  0.19643000000000002  0.49714000000000014  1.0000
  H   H19       1.0  0.32297  0.62159  0.03902000000000001  1.0000
  H   H20       1.0  0.34591  0.57693  0.8815600000000002  1.0000
  H   H21       1.0  0.16246  0.56423  0.78843  1.0000
  H   H22       1.0  0.9433499999999999  0.5936100000000001  0.8299900000000002  1.0000
  H   H23       1.0  0.8999299999999999  0.63059  0.98519  1.0000
  H   H24       1.0  0.88179  0.12528  0.034470000000000015  1.0000
  H   H25       1.0  0.89374  0.07106999999999998  0.8762  1.0000
  H   H26       1.0  0.6952  0.04556999999999999  0.7847  1.0000
  H   H27       1.0  0.48746  0.08410000000000004  0.8328000000000002  1.0000
  H   H28       1.0  0.45472999999999997  0.1287900000000001  0.9897500000000002  1.0000
  C   C1        1.0  0.23304000000000002  0.19074000000000013  0.9187900000000002  1.0000
  C   C2        1.0  0.3245700000000001  0.2908500000000001  0.9337300000000002  1.0000
  C   C3        1.0  0.36475  0.3506600000000001  0.01691  1.0000
  C   C4        1.0  0.31726999999999994  0.31522  0.08611  1.0000
  C   C5        1.0  0.22587  0.21522  0.0713  1.0000
  C   C6        1.0  0.1861  0.15537000000000004  0.9883600000000002  1.0000
  C   C7        1.0  0.18497000000000002  0.11351000000000008  0.8335100000000002  1.0000
  C   C8        1.0  0.39229  0.33502  0.8661100000000003  1.0000
  C   C9        1.0  0.35922  0.39303  0.17211000000000007  1.0000
  C   C10       1.0  0.16612999999999997  0.17237000000000002  0.14135  1.0000
  C   C11       1.0  0.02473000000000005  0.5862700000000001  0.5746300000000002  1.0000
  C   C12       1.0  0.04505000000000004  0.4778200000000002  0.5752700000000002  1.0000
  C   C13       1.0  0.98167  0.6068900000000002  0.4989800000000001  1.0000
  C   C14       1.0  0.036649999999999995  0.68016  0.65185  1.0000
  C   C15       1.0  0.10544999999999999  0.45216000000000006  0.65133  1.0000
  C   C16       1.0  0.4611100000000001  0.9146900000000001  0.4261300000000001  1.0000
  C   C17       1.0  0.46518999999999994  0.026600000000000037  0.4247400000000001  1.0000
  C   C18       1.0  0.49427  0.88969  0.50185  1.0000
  C   C19       1.0  0.4315  0.8204400000000001  0.34921  1.0000
  C   C20       1.0  0.4155499999999999  0.05847000000000001  0.3487  1.0000
  C   C21       1.0  0.8916299999999999  0.37135  0.97707  1.0000
  C   C22       1.0  0.7639599999999999  0.38661  0.00512  1.0000
  C   C23       1.0  0.74884  0.4095600000000001  0.09057000000000003  1.0000
  C   C24       1.0  0.9787999999999999  0.40008  0.12038  1.0000
  C   C25       1.0  9.000000000000296e-05  0.37910000000000005  0.03569  1.0000
  C   C26       1.0  0.91439  0.34611  0.88488  1.0000
  C   C27       1.0  0.33452  0.87131  0.9773  1.0000
  C   C28       1.0  0.20795  0.8855700000000001  0.008240000000000004  1.0000
  C   C29       1.0  0.19918  0.91343  0.09437  1.0000
  C   C30       1.0  0.43139  0.90724  0.11909000000000003  1.0000
  C   C31       1.0  0.4468599999999999  0.8819400000000001  0.03360000000000001  1.0000
  C   C32       1.0  0.3516500000000001  0.8413200000000001  0.8845700000000002  1.0000
  C   C33       1.0  0.7669500000000001  0.8093400000000001  0.08122  1.0000
  C   C34       1.0  0.67545  0.7092000000000002  0.06626  1.0000
  C   C35       1.0  0.63526  0.6493600000000002  0.9830800000000002  1.0000
  C   C36       1.0  0.6827599999999999  0.68477  0.91387  1.0000
  C   C37       1.0  0.77417  0.78477  0.9286600000000003  1.0000
  C   C38       1.0  0.81389  0.8446600000000002  0.011610000000000004  1.0000
  C   C39       1.0  0.8150899999999999  0.88657  0.16653  1.0000
  C   C40       1.0  0.60775  0.66507  0.13391000000000006  1.0000
  C   C41       1.0  0.64077  0.6069700000000002  0.8278700000000002  1.0000
  C   C42       1.0  0.8339099999999997  0.82762  0.8586  1.0000
  C   C43       1.0  0.9752999999999998  0.41379  0.4253500000000001  1.0000
  C   C44       1.0  0.9549699999999998  0.52223  0.4247100000000001  1.0000
  C   C45       1.0  0.018360000000000005  0.39317  0.501  1.0000
  C   C46       1.0  0.96334  0.31989000000000006  0.3481400000000001  1.0000
  C   C47       1.0  0.8945599999999999  0.54784  0.34864  1.0000
  C   C48       1.0  0.53874  0.08533000000000003  0.57404  1.0000
  C   C49       1.0  0.53466  0.9734300000000001  0.57542  1.0000
  C   C50       1.0  0.50558  0.11033000000000005  0.49830000000000013  1.0000
  C   C51       1.0  0.5684  0.17958000000000005  0.6509500000000003  1.0000
  C   C52       1.0  0.58443  0.9415100000000001  0.6514000000000002  1.0000
  C   C53       1.0  0.10838  0.62866  0.02296  1.0000
  C   C54       1.0  0.23604999999999998  0.6134  0.99491  1.0000
  C   C55       1.0  0.25118  0.59047  0.9094600000000003  1.0000
  C   C56       1.0  0.02122999999999999  0.59994  0.87964  1.0000
  C   C57       1.0  0.99993  0.6209000000000001  0.9643300000000002  1.0000
  C   C58       1.0  0.08562  0.6539  0.11515000000000003  1.0000
  C   C59       1.0  0.66543  0.12873  0.02269  1.0000
  C   C60       1.0  0.79202  0.1144  0.99179  1.0000
  C   C61       1.0  0.8007999999999998  0.08652000000000008  0.9056600000000002  1.0000
  C   C62       1.0  0.56855  0.09264999999999998  0.88091  1.0000
  C   C63       1.0  0.55307  0.11798000000000011  0.9664000000000003  1.0000
  C   C64       1.0  0.64827  0.15878000000000003  0.11541000000000003  1.0000
  N   N1        1.0  0.8547299999999998  0.41477  0.1451  1.0000
  N   N2        1.0  0.30958  0.9235  0.14708000000000004  1.0000
  N   N3        1.0  0.14530999999999997  0.58527  0.85492  1.0000
  N   N4        1.0  0.69039  0.07646000000000008  0.8529500000000002  1.0000
  O   O1        1.0  0.14003  0.14815  0.7732  1.0000
  O   O2        1.0  0.18809999999999996  0.01180999999999999  0.8295  1.0000
  O   O3        1.0  0.32552  0.35778000000000004  0.8072000000000003  1.0000
  O   O4        1.0  0.5211499999999999  0.35159  0.87471  1.0000
  O   O5        1.0  0.30628  0.48086  0.18624  1.0000
  O   O6        1.0  0.44558  0.37113  0.22200000000000006  1.0000
  O   O7        1.0  0.04004  0.13222  0.13068  1.0000
  O   O8        1.0  0.23991999999999997  0.17511  0.20643000000000006  1.0000
  O   O9        1.0  0.09314000000000003  0.7770300000000002  0.64694  1.0000
  O   O10       1.0  0.9880099999999999  0.66662  0.71926  1.0000
  O   O11       1.0  0.19329000000000005  0.5244200000000001  0.6994800000000002  1.0000
  O   O12       1.0  0.06584000000000002  0.35425000000000006  0.6618200000000002  1.0000
  O   O13       1.0  0.47790999999999995  0.82758  0.2794700000000001  1.0000
  O   O14       1.0  0.36157000000000006  0.72923  0.35593000000000014  1.0000
  O   O15       1.0  0.31179  0.9996400000000001  0.30567  1.0000
  O   O16       1.0  0.48090999999999995  0.14753  0.33444  1.0000
  O   O17       1.0  0.8138399999999999  0.31752000000000014  0.8308600000000003  1.0000
  O   O18       1.0  0.038530000000000036  0.35412000000000016  0.8686500000000003  1.0000
  O   O19       1.0  0.24880999999999998  0.80012  0.8335700000000003  1.0000
  O   O20       1.0  0.47397  0.8565600000000001  0.8650000000000002  1.0000
  O   O21       1.0  0.86002  0.8518800000000001  0.22682000000000005  1.0000
  O   O22       1.0  0.81212  0.98829  0.17055  1.0000
  O   O23       1.0  0.67455  0.64232  0.19281  1.0000
  O   O24       1.0  0.4788799999999999  0.6485300000000003  0.12538  1.0000
  O   O25       1.0  0.69373  0.51913  0.81375  1.0000
  O   O26       1.0  0.55442  0.6288800000000001  0.7779900000000002  1.0000
  O   O27       1.0  0.95999  0.8678000000000001  0.8692600000000003  1.0000
  O   O28       1.0  0.76008  0.8249000000000002  0.7935400000000002  1.0000
  O   O29       1.0  0.9068599999999999  0.22303  0.35307  1.0000
  O   O30       1.0  0.012000000000000002  0.33339  0.28071  1.0000
  O   O31       1.0  0.80668  0.47558000000000006  0.3005200000000001  1.0000
  O   O32       1.0  0.93422  0.64572  0.33811  1.0000
  O   O33       1.0  0.52209  0.1724400000000001  0.7207100000000002  1.0000
  O   O34       1.0  0.63823  0.2708000000000001  0.6441700000000002  1.0000
  O   O35       1.0  0.68821  0.00028000000000001445  0.6944  1.0000
  O   O36       1.0  0.51911  0.8523900000000002  0.66559  1.0000
  O   O37       1.0  0.18614  0.68249  0.16919000000000003  1.0000
  O   O38       1.0  0.96147  0.64588  0.13135000000000005  1.0000
  O   O39       1.0  0.7511299999999999  0.19993  0.1664  1.0000
  O   O40       1.0  0.5259499999999999  0.14361  0.13501  1.0000
