data_image0
_chemical_formula_structural       Zn8H40C44N4O28
_chemical_formula_sum              "Zn8 H40 C44 N4 O28"
_cell_length_a       10.37809
_cell_length_b       12.49784
_cell_length_c       20.272150000000003
_cell_angle_alpha    90.00403999999999
_cell_angle_beta     90.00045
_cell_angle_gamma    89.88583

_symmetry_space_group_name_H-M    'P 1'
_symmetry_Int_Tables_number       1

loop_
  _symmetry_equiv_pos_as_xyz
  'x,y,z'

loop_
  _atom_site_type_symbol
  _atom_site_label
  _atom_site_symmetry_multiplicity
  _atom_site_fract_x
  _atom_site_fract_y
  _atom_site_fract_z
  _atom_site_occupancy
  Zn  Zn1       1.0  0.13352  0.67897  0.99159  1.0000
  Zn  Zn2       1.0  0.43642  0.6072699999999999  0.98855  1.0000
  Zn  Zn3       1.0  0.36614  0.32109  0.49156  1.0000
  Zn  Zn4       1.0  0.06356  0.3928799999999999  0.48852  1.0000
  Zn  Zn5       1.0  0.8666199999999998  0.17620999999999995  0.50845  1.0000
  Zn  Zn6       1.0  0.56545  0.10698  0.51176  1.0000
  Zn  Zn7       1.0  0.63362  0.82378  0.00841  1.0000
  Zn  Zn8       1.0  0.93446  0.8952099999999997  0.01153  1.0000
  H   H1        1.0  0.46694  0.4857299999999999  0.79243  1.0000
  H   H2        1.0  0.04163  0.51971  0.68041  1.0000
  H   H3        1.0  0.44505  0.4376  0.67412  1.0000
  H   H4        1.0  0.22368  0.97187  0.007179999999999999  1.0000
  H   H5        1.0  0.08706  0.59122  0.86358  1.0000
  H   H6        1.0  0.96181  0.52618  0.81053  1.0000
  H   H7        1.0  0.0014400000000000003  0.65028  0.7911500000000001  1.0000
  H   H8        1.0  0.12155  0.9422499999999998  0.12120000000000002  1.0000
  H   H9        1.0  0.2923  0.9604499999999998  0.12183  1.0000
  H   H10       1.0  0.22475999999999996  0.8293299999999999  0.13128  1.0000
  H   H11       1.0  0.03299  0.51422  0.29243  1.0000
  H   H12       1.0  0.45849  0.48026  0.18046  1.0000
  H   H13       1.0  0.055  0.56245  0.17417  1.0000
  H   H14       1.0  0.27631  0.02814  0.50742  1.0000
  H   H15       1.0  0.41320999999999997  0.4087099999999999  0.36348  1.0000
  H   H16       1.0  0.53819  0.4738  0.31054  1.0000
  H   H17       1.0  0.49858  0.34962  0.29115  1.0000
  H   H18       1.0  0.37891  0.05749999999999999  0.62137  1.0000
  H   H19       1.0  0.20821  0.03932  0.62211  1.0000
  H   H20       1.0  0.27568  0.17039999999999997  0.63166  1.0000
  H   H21       1.0  0.53389  0.9849099999999997  0.70724  1.0000
  H   H22       1.0  0.95864  0.02049  0.81971  1.0000
  H   H23       1.0  0.5558499999999998  0.9374299999999998  0.8258100000000002  1.0000
  H   H24       1.0  0.77553  0.46928  0.49313  1.0000
  H   H25       1.0  0.9141599999999999  0.09020999999999997  0.63673  1.0000
  H   H26       1.0  0.03903  0.0265  0.68937  1.0000
  H   H27       1.0  0.9980599999999998  0.15063999999999997  0.70866  1.0000
  H   H28       1.0  0.8782599999999999  0.44171  0.37942  1.0000
  H   H29       1.0  0.70744  0.45994  0.37853  1.0000
  H   H30       1.0  0.77566  0.3291  0.36803  1.0000
  H   H31       1.0  0.966  0.014979999999999997  0.20728  1.0000
  H   H32       1.0  0.54132  0.9798899999999998  0.3198  1.0000
  H   H33       1.0  0.94417  0.06256  0.32585  1.0000
  H   H34       1.0  0.7248099999999998  0.53089  0.99324  1.0000
  H   H35       1.0  0.58624  0.9097899999999999  0.13661  1.0000
  H   H36       1.0  0.46102  0.9734499999999999  0.18942  1.0000
  H   H37       1.0  0.50183  0.8493299999999998  0.20872999999999997  1.0000
  H   H38       1.0  0.62195  0.55832  0.87948  1.0000
  H   H39       1.0  0.7927399999999999  0.54009  0.8785699999999999  1.0000
  H   H40       1.0  0.72449  0.6709399999999998  0.8681500000000001  1.0000
  C   C1        1.0  0.26708  0.53044  0.8055000000000001  1.0000
  C   C2        1.0  0.24186  0.47409999999999997  0.66868  1.0000
  C   C3        1.0  0.14726  0.53923  0.77065  1.0000
  C   C4        1.0  0.37452  0.49266999999999994  0.76764  1.0000
  C   C5        1.0  0.13425  0.51248  0.70519  1.0000
  C   C6        1.0  0.36237  0.4658699999999999  0.70213  1.0000
  C   C7        1.0  0.2810099999999999  0.55821  0.87368  1.0000
  C   C8        1.0  0.34279  0.83366  0.01241  1.0000
  C   C9        1.0  0.21826  0.8925999999999998  0.03103  1.0000
  C   C10       1.0  0.22900999999999996  0.44183  0.60017  1.0000
  C   C11       1.0  0.21412  0.90698  0.10642  1.0000
  C   C12       1.0  0.23293999999999998  0.4695  0.30548  1.0000
  C   C13       1.0  0.25823  0.52599  0.16868  1.0000
  C   C14       1.0  0.35277  0.4607099999999999  0.27064  1.0000
  C   C15       1.0  0.12545999999999996  0.5072799999999998  0.26765  1.0000
  C   C16       1.0  0.36583  0.4875699999999999  0.20519  1.0000
  C   C17       1.0  0.1377  0.5341799999999999  0.20215  1.0000
  C   C18       1.0  0.21904  0.4417899999999999  0.37367  1.0000
  C   C19       1.0  0.15714  0.16645  0.5128  1.0000
  C   C20       1.0  0.28177  0.10741999999999997  0.53131  1.0000
  C   C21       1.0  0.27109  0.55825  0.10015  1.0000
  C   C22       1.0  0.28630999999999995  0.09285  0.60669  1.0000
  C   C23       1.0  0.7335799999999999  0.02956  0.69446  1.0000
  C   C24       1.0  0.75854  0.9748299999999999  0.83128  1.0000
  C   C25       1.0  0.8532399999999999  0.03901  0.72932  1.0000
  C   C26       1.0  0.62609  0.99208  0.73222  1.0000
  C   C27       1.0  0.86621  0.01287  0.79485  1.0000
  C   C28       1.0  0.63824  0.96589  0.7977999999999998  1.0000
  C   C29       1.0  0.71969  0.05637  0.62618  1.0000
  C   C30       1.0  0.65716  0.33161  0.48760000000000003  1.0000
  C   C31       1.0  0.7812399999999999  0.3903599999999999  0.46889999999999993  1.0000
  C   C32       1.0  0.7708899999999999  0.9438499999999997  0.89993  1.0000
  C   C33       1.0  0.78571  0.40611  0.39365  1.0000
  C   C34       1.0  0.7663699999999999  0.97027  0.19457  1.0000
  C   C35       1.0  0.74142  0.025709999999999997  0.33131  1.0000
  C   C36       1.0  0.64671  0.96094  0.22945  1.0000
  C   C37       1.0  0.8738799999999999  0.007709999999999998  0.23231  1.0000
  C   C38       1.0  0.63376  0.9874499999999998  0.29494  1.0000
  C   C39       1.0  0.8617999999999999  0.03405  0.29786  1.0000
  C   C40       1.0  0.78025  0.94362  0.12628  1.0000
  C   C41       1.0  0.84298  0.66874  0.9875800000000001  1.0000
  C   C42       1.0  0.71894  0.60977  0.96899  1.0000
  C   C43       1.0  0.72889  0.057989999999999986  0.39976000000000006  1.0000
  C   C44       1.0  0.71448  0.5939199999999999  0.89374  1.0000
  N   N1        1.0  0.03649999999999999  0.57942  0.8090900000000001  1.0000
  N   N2        1.0  0.46354  0.42051  0.30909  1.0000
  N   N3        1.0  0.9638  0.07946  0.69089  1.0000
  N   N4        1.0  0.53623  0.92047  0.19098  1.0000
  O   O1        1.0  0.17580999999999997  0.5926499999999999  0.90634  1.0000
  O   O2        1.0  0.39068  0.5489199999999999  0.9030499999999999  1.0000
  O   O3        1.0  0.1151  0.4494999999999999  0.57324  1.0000
  O   O4        1.0  0.33069  0.4068499999999999  0.5702  1.0000
  O   O5        1.0  0.10931  0.8364099999999998  0.0067  1.0000
  O   O6        1.0  0.33026999999999995  0.74596  0.9802  1.0000
  O   O7        1.0  0.44877999999999996  0.87312  0.03094  1.0000
  O   O8        1.0  0.32417  0.4073199999999999  0.40634  1.0000
  O   O9        1.0  0.10932  0.45104999999999995  0.40301999999999993  1.0000
  O   O10       1.0  0.38505  0.55082  0.07326  1.0000
  O   O11       1.0  0.16934  0.5931099999999999  0.07017  1.0000
  O   O12       1.0  0.39032  0.16378  0.50676  1.0000
  O   O13       1.0  0.16959  0.25387999999999994  0.4803  1.0000
  O   O14       1.0  0.05129999999999999  0.12702  0.53154  1.0000
  O   O15       1.0  0.82465  0.09018999999999999  0.59346  1.0000
  O   O16       1.0  0.6099699999999999  0.04664  0.5969  1.0000
  O   O17       1.0  0.8846499999999999  0.9517999999999998  0.9268700000000001  1.0000
  O   O18       1.0  0.66902  0.90978  0.92999  1.0000
  O   O19       1.0  0.89015  0.33379  0.4932  1.0000
  O   O20       1.0  0.6705299999999998  0.24417999999999995  0.52003  1.0000
  O   O21       1.0  0.55095  0.37105  0.46937  1.0000
  O   O22       1.0  0.67527  0.9098399999999998  0.09349  1.0000
  O   O23       1.0  0.8899099999999999  0.9535399999999999  0.09698  1.0000
  O   O24       1.0  0.61455  0.0531  0.42629999999999996  1.0000
  O   O25       1.0  0.83133  0.09023  0.43007  1.0000
  O   O26       1.0  0.60993  0.66624  0.99323  1.0000
  O   O27       1.0  0.82994  0.7564099999999998  0.01978  1.0000
  O   O28       1.0  0.94907  0.6289599999999999  0.96935  1.0000
