data_image0
_chemical_formula_structural       Ca8H16C48S8O32
_chemical_formula_sum              "Ca8 H16 C48 S8 O32"
_cell_length_a       10.05368
_cell_length_b       14.50736
_cell_length_c       17.61432
_cell_angle_alpha    90.0
_cell_angle_beta     94.88644
_cell_angle_gamma    90.0

_space_group_name_H-M_alt    "P 1"
_space_group_IT_number       1

loop_
  _space_group_symop_operation_xyz
  'x, y, z'

loop_
  _atom_site_type_symbol
  _atom_site_label
  _atom_site_symmetry_multiplicity
  _atom_site_fract_x
  _atom_site_fract_y
  _atom_site_fract_z
  _atom_site_occupancy
  Ca  Ca1       1.0  0.51824  0.10231999999999997  0.56517  1.0000
  Ca  Ca2       1.0  0.41835000000000006  0.34335  0.53781  1.0000
  Ca  Ca3       1.0  0.9817600000000001  0.6023199999999997  0.9348200000000001  1.0000
  Ca  Ca4       1.0  0.08164  0.8433499999999998  0.96219  1.0000
  Ca  Ca5       1.0  0.48176  0.8976799999999998  0.43483  1.0000
  Ca  Ca6       1.0  0.58164  0.6566499999999997  0.46219000000000005  1.0000
  Ca  Ca7       1.0  0.01824  0.3976799999999999  0.06517  1.0000
  Ca  Ca8       1.0  0.91835  0.15664999999999998  0.03781  1.0000
  H   H1        1.0  0.10235000000000002  0.25261  0.8736300000000001  1.0000
  H   H2        1.0  0.19095000000000004  0.31578  0.74416  1.0000
  H   H3        1.0  0.26339  0.00242  0.30797  1.0000
  H   H4        1.0  0.13904  0.07181999999999998  0.18248000000000003  1.0000
  H   H5        1.0  0.39765000000000006  0.75261  0.62637  1.0000
  H   H6        1.0  0.30905  0.8157799999999997  0.75583  1.0000
  H   H7        1.0  0.23661  0.50242  0.19203  1.0000
  H   H8        1.0  0.36096000000000006  0.5718199999999998  0.31752  1.0000
  H   H9        1.0  0.89765  0.74739  0.12637  1.0000
  H   H10       1.0  0.8090500000000002  0.6842199999999998  0.25583  1.0000
  H   H11       1.0  0.73661  0.9975799999999998  0.69203  1.0000
  H   H12       1.0  0.86096  0.9281799999999998  0.81752  1.0000
  H   H13       1.0  0.60235  0.24739  0.37363  1.0000
  H   H14       1.0  0.69095  0.18422  0.24416  1.0000
  H   H15       1.0  0.76339  0.4975799999999999  0.8079700000000002  1.0000
  H   H16       1.0  0.63904  0.4281799999999999  0.68248  1.0000
  C   C1        1.0  0.31038  0.14427  0.34372  1.0000
  C   C2        1.0  0.38798000000000005  0.13308  0.41718  1.0000
  C   C3        1.0  0.19777  0.20801999999999995  0.22579  1.0000
  C   C4        1.0  0.14611  0.27104  0.16505  1.0000
  C   C5        1.0  0.21378  0.17279999999999995  0.71146  1.0000
  C   C6        1.0  0.13393  0.21051999999999996  0.82751  1.0000
  C   C7        1.0  0.13224  0.11470999999999999  0.83096  1.0000
  C   C8        1.0  0.18004000000000006  0.24375  0.7593100000000003  1.0000
  C   C9        1.0  0.25567  0.07561  0.29515  1.0000
  C   C10       1.0  0.19067  0.11224999999999997  0.22788  1.0000
  C   C11       1.0  0.08543999999999999  0.056449999999999986  0.89217  1.0000
  C   C12       1.0  0.27181  0.18092999999999995  0.63756  1.0000
  C   C13       1.0  0.18962  0.64427  0.15627  1.0000
  C   C14       1.0  0.11202  0.63308  0.08282000000000003  1.0000
  C   C15       1.0  0.30223  0.7080199999999998  0.27421  1.0000
  C   C16       1.0  0.35389  0.7710399999999997  0.3349500000000001  1.0000
  C   C17       1.0  0.28622  0.67281  0.7885400000000002  1.0000
  C   C18       1.0  0.36606  0.7105199999999998  0.67249  1.0000
  C   C19       1.0  0.36776  0.61471  0.66904  1.0000
  C   C20       1.0  0.31996  0.7437499999999998  0.74068  1.0000
  C   C21       1.0  0.24433  0.57561  0.20485  1.0000
  C   C22       1.0  0.30933  0.61225  0.27211000000000013  1.0000
  C   C23       1.0  0.41456000000000004  0.55645  0.60783  1.0000
  C   C24       1.0  0.22819000000000003  0.6809299999999998  0.8624300000000001  1.0000
  C   C25       1.0  0.68962  0.85573  0.65627  1.0000
  C   C26       1.0  0.61202  0.86692  0.58282  1.0000
  C   C27       1.0  0.80223  0.7919799999999998  0.7742100000000002  1.0000
  C   C28       1.0  0.8538900000000001  0.7289599999999998  0.83494  1.0000
  C   C29       1.0  0.78622  0.8271999999999998  0.28854  1.0000
  C   C30       1.0  0.86606  0.7894799999999997  0.17249  1.0000
  C   C31       1.0  0.86776  0.88529  0.16904  1.0000
  C   C32       1.0  0.81996  0.7562499999999998  0.24069  1.0000
  C   C33       1.0  0.74433  0.92439  0.70485  1.0000
  C   C34       1.0  0.80933  0.88775  0.7721100000000001  1.0000
  C   C35       1.0  0.9145600000000002  0.94355  0.10783  1.0000
  C   C36       1.0  0.72819  0.8190699999999997  0.36243  1.0000
  C   C37       1.0  0.81038  0.3557299999999999  0.84372  1.0000
  C   C38       1.0  0.8879800000000001  0.3669199999999999  0.91718  1.0000
  C   C39       1.0  0.69776  0.2919799999999999  0.72579  1.0000
  C   C40       1.0  0.64611  0.22895999999999994  0.6650500000000001  1.0000
  C   C41       1.0  0.71378  0.3271999999999999  0.21146  1.0000
  C   C42       1.0  0.63393  0.2894799999999999  0.32751000000000013  1.0000
  C   C43       1.0  0.63224  0.38529  0.33096  1.0000
  C   C44       1.0  0.68004  0.2562499999999999  0.25931  1.0000
  C   C45       1.0  0.7556600000000001  0.4243899999999999  0.7951500000000002  1.0000
  C   C46       1.0  0.69067  0.38775  0.7278800000000001  1.0000
  C   C47       1.0  0.58544  0.44354999999999994  0.3921700000000001  1.0000
  C   C48       1.0  0.77181  0.3190699999999999  0.13756  1.0000
  S   S1        1.0  0.28228000000000003  0.25338  0.30653  1.0000
  S   S2        1.0  0.19039000000000003  0.06553999999999999  0.75083  1.0000
  S   S3        1.0  0.21772  0.75338  0.19347  1.0000
  S   S4        1.0  0.30961  0.56554  0.74917  1.0000
  S   S5        1.0  0.71772  0.74662  0.6934700000000003  1.0000
  S   S6        1.0  0.80961  0.93446  0.24917000000000003  1.0000
  S   S7        1.0  0.7822800000000001  0.24661999999999995  0.80653  1.0000
  S   S8        1.0  0.69039  0.4344599999999999  0.25083  1.0000
  O   O1        1.0  0.42039000000000004  0.20326999999999995  0.45863999999999994  1.0000
  O   O2        1.0  0.42611  0.05147999999999999  0.4392800000000001  1.0000
  O   O3        1.0  0.08659  0.23771  0.10294  1.0000
  O   O4        1.0  0.032600000000000025  0.09662  0.94652  1.0000
  O   O5        1.0  0.10020000000000003  0.9691899999999998  0.8865  1.0000
  O   O6        1.0  0.31967  0.10666  0.61048  1.0000
  O   O7        1.0  0.16055  0.35745  0.17443  1.0000
  O   O8        1.0  0.27415  0.25981999999999994  0.60623  1.0000
  O   O9        1.0  0.07961000000000001  0.70327  0.04136  1.0000
  O   O10       1.0  0.07388  0.5514799999999999  0.06072  1.0000
  O   O11       1.0  0.41340999999999994  0.73771  0.39706000000000014  1.0000
  O   O12       1.0  0.46740000000000004  0.59662  0.55347  1.0000
  O   O13       1.0  0.39979  0.4691899999999999  0.6135000000000002  1.0000
  O   O14       1.0  0.18033000000000002  0.60666  0.8895200000000001  1.0000
  O   O15       1.0  0.33945  0.85745  0.32556000000000007  1.0000
  O   O16       1.0  0.22584000000000004  0.7598199999999998  0.89377  1.0000
  O   O17       1.0  0.5796  0.79673  0.54136  1.0000
  O   O18       1.0  0.57388  0.9485199999999998  0.56071  1.0000
  O   O19       1.0  0.9134000000000001  0.76229  0.8970600000000001  1.0000
  O   O20       1.0  0.9674000000000001  0.9033799999999997  0.05347  1.0000
  O   O21       1.0  0.8997900000000001  0.030809999999999994  0.1135  1.0000
  O   O22       1.0  0.6803300000000001  0.89334  0.3895200000000001  1.0000
  O   O23       1.0  0.83945  0.64255  0.8255600000000001  1.0000
  O   O24       1.0  0.72584  0.7401799999999997  0.39377  1.0000
  O   O25       1.0  0.92039  0.29673  0.95863  1.0000
  O   O26       1.0  0.92611  0.44851999999999986  0.9392800000000001  1.0000
  O   O27       1.0  0.58659  0.26228999999999997  0.60293  1.0000
  O   O28       1.0  0.5326000000000001  0.40338  0.44652  1.0000
  O   O29       1.0  0.6002  0.53081  0.3865  1.0000
  O   O30       1.0  0.81967  0.39334  0.11048000000000001  1.0000
  O   O31       1.0  0.66055  0.14254999999999998  0.6744300000000001  1.0000
  O   O32       1.0  0.7741500000000001  0.24018  0.10623  1.0000
