data_image0
_chemical_formula_structural       Cu3H60C42N36
_chemical_formula_sum              "Cu3 H60 C42 N36"
_cell_length_a       15.36348
_cell_length_b       15.373830000000002
_cell_length_c       15.29622
_cell_angle_alpha    109.76152
_cell_angle_beta     109.62067999999998
_cell_angle_gamma    109.61405

_symmetry_space_group_name_H-M    'P 1'
_symmetry_Int_Tables_number       1

loop_
  _symmetry_equiv_pos_as_xyz
  'x,y,z'

loop_
  _atom_site_type_symbol
  _atom_site_label
  _atom_site_symmetry_multiplicity
  _atom_site_fract_x
  _atom_site_fract_y
  _atom_site_fract_z
  _atom_site_occupancy
  Cu  Cu1       1.0  0.49992  0.49994  0.5  1.0000
  Cu  Cu2       1.0  4.000000000004968e-05  0.9998900000000001  0.49979000000000007  1.0000
  Cu  Cu3       1.0  0.0005899999999999812  0.49982  0.0003600000000000001  1.0000
  H   H1        1.0  0.57801  0.21918000000000007  0.65723  1.0000
  H   H2        1.0  0.33436999999999983  0.38494000000000006  0.8565600000000001  1.0000
  H   H3        1.0  0.8623099999999998  0.76571  0.2916500000000001  1.0000
  H   H4        1.0  0.42191  0.78073  0.34271  1.0000
  H   H5        1.0  0.54173  0.4264500000000001  0.32020000000000004  1.0000
  H   H6        1.0  0.52651  0.8567600000000001  0.4787400000000001  1.0000
  H   H7        1.0  0.048440000000000025  0.52496  0.38171000000000005  1.0000
  H   H8        1.0  0.74457  0.5544500000000002  0.8311300000000003  1.0000
  H   H9        1.0  0.13748999999999997  0.23405000000000006  0.70807  1.0000
  H   H10       1.0  0.15261999999999995  0.53086  0.6813  1.0000
  H   H11       1.0  0.8474199999999998  0.46917999999999993  0.31881  1.0000
  H   H12       1.0  0.22456999999999994  0.68248  0.10643  1.0000
  H   H13       1.0  0.9216899999999998  0.3406199999999999  0.55872  1.0000
  H   H14       1.0  0.8165399999999996  0.72463  0.561  1.0000
  H   H15       1.0  0.09673  0.5267  0.23319  1.0000
  H   H16       1.0  0.04966999999999999  0.30381  0.49308  1.0000
  H   H17       1.0  0.8806499999999998  0.6590699999999999  0.36935  1.0000
  H   H18       1.0  0.11069000000000002  0.8915500000000001  0.56398  1.0000
  H   H19       1.0  0.47098  0.32069  0.84929  1.0000
  H   H20       1.0  0.51144  0.63096  0.29153000000000007  1.0000
  H   H21       1.0  0.7871599999999996  0.9291500000000001  0.5114700000000001  1.0000
  H   H22       1.0  0.5722  0.70639  0.47568000000000005  1.0000
  H   H23       1.0  0.55875  0.50604  0.80988  1.0000
  H   H24       1.0  0.11928999999999995  0.34088  0.63053  1.0000
  H   H25       1.0  0.48838  0.3690100000000001  0.7083900000000002  1.0000
  H   H26       1.0  0.25608  0.80571  0.3016400000000001  1.0000
  H   H27       1.0  0.5819299999999997  0.06433  0.51857  1.0000
  H   H28       1.0  0.9035799999999998  0.47304  0.76747  1.0000
  H   H29       1.0  0.36512  0.44284  0.78111  1.0000
  H   H30       1.0  0.6204199999999999  0.14994000000000005  0.4688000000000001  1.0000
  H   H31       1.0  0.9503199999999999  0.6963200000000002  0.5068400000000001  1.0000
  H   H32       1.0  0.8513099999999998  0.57306  0.06765  1.0000
  H   H33       1.0  0.42772999999999994  0.29353  0.52432  1.0000
  H   H34       1.0  0.06453000000000005  0.48027  0.5440800000000001  1.0000
  H   H35       1.0  0.7757200000000001  0.3179900000000001  0.8935200000000002  1.0000
  H   H36       1.0  0.1491400000000001  0.4263400000000001  0.9320700000000002  1.0000
  H   H37       1.0  0.07832999999999993  0.65949  0.44151  1.0000
  H   H38       1.0  0.2549999999999999  0.44556  0.16843  1.0000
  H   H39       1.0  0.7233299999999998  0.50836  0.57871  1.0000
  H   H40       1.0  0.18356999999999996  0.27550999999999987  0.4391  1.0000
  H   H41       1.0  0.4774199999999999  0.54235  0.06288  1.0000
  H   H42       1.0  0.6655  0.61489  0.14336  1.0000
  H   H43       1.0  0.7438799999999997  0.19432999999999995  0.69838  1.0000
  H   H44       1.0  0.9047300000000001  0.16697000000000006  0.7306400000000001  1.0000
  H   H45       1.0  0.52898  0.6793  0.15069000000000002  1.0000
  H   H46       1.0  0.22294000000000005  0.70754  0.3397000000000001  1.0000
  H   H47       1.0  0.37953  0.84997  0.53116  1.0000
  H   H48       1.0  0.45827999999999997  0.57373  0.67997  1.0000
  H   H49       1.0  0.7769600000000001  0.2924300000000001  0.6602100000000001  1.0000
  H   H50       1.0  0.6347399999999997  0.55707  0.21888000000000005  1.0000
  H   H51       1.0  0.27653999999999995  0.4915  0.42116  1.0000
  H   H52       1.0  0.41806999999999994  0.9356100000000002  0.4814400000000001  1.0000
  H   H53       1.0  0.93539  0.51984  0.45608  1.0000
  H   H54       1.0  0.5224899999999999  0.45762000000000014  0.9370800000000002  1.0000
  H   H55       1.0  0.8895  0.10852000000000007  0.4362600000000001  1.0000
  H   H56       1.0  0.4734099999999999  0.14312  0.5212  1.0000
  H   H57       1.0  0.44102  0.49393  0.19002  1.0000
  H   H58       1.0  0.09519  0.83308  0.26948  1.0000
  H   H59       1.0  0.9517099999999997  0.4752  0.61875  1.0000
  H   H60       1.0  0.21301000000000006  0.07090000000000005  0.4884400000000001  1.0000
  C   C1        1.0  0.33773  0.5593  0.42872  1.0000
  C   C2        1.0  0.88258  0.15506000000000006  0.65071  1.0000
  C   C3        1.0  0.9061099999999999  0.56782  0.12942000000000004  1.0000
  C   C4        1.0  0.3777400000000001  0.851  0.45920000000000005  1.0000
  C   C5        1.0  0.74342  0.36596  0.87398  1.0000
  C   C6        1.0  0.4904699999999999  0.66848  0.45842  1.0000
  C   C7        1.0  0.7605999999999998  0.64434  0.49229000000000006  1.0000
  C   C8        1.0  0.014160000000000011  0.57667  0.37760000000000005  1.0000
  C   C9        1.0  0.8732299999999997  0.12782000000000004  0.5019400000000002  1.0000
  C   C10       1.0  0.5094299999999999  0.33141999999999994  0.54152  1.0000
  C   C11       1.0  0.9172  0.54139  0.3932  1.0000
  C   C12       1.0  0.7389299999999998  0.20586000000000004  0.6301800000000001  1.0000
  C   C13       1.0  0.2682  0.51239  0.15496  1.0000
  C   C14       1.0  0.25670999999999994  0.63438  0.1259  1.0000
  C   C15       1.0  0.55996  0.19980000000000003  0.57459  1.0000
  C   C16       1.0  0.47674  0.3946300000000001  0.8516400000000002  1.0000
  C   C17       1.0  0.8880500000000001  0.62853  0.42537  1.0000
  C   C18       1.0  0.17986  0.21318  0.66842  1.0000
  C   C19       1.0  0.52318  0.60534  0.14832000000000004  1.0000
  C   C20       1.0  0.031240000000000035  0.54212  0.21146  1.0000
  C   C21       1.0  0.11192  0.3715300000000001  0.5746  1.0000
  C   C22       1.0  0.62221  0.14893  0.54077  1.0000
  C   C23       1.0  0.6232999999999997  0.49359  0.3683800000000001  1.0000
  C   C24       1.0  0.9859199999999999  0.42341  0.62266  1.0000
  C   C25       1.0  0.63562  0.62036  0.19983000000000006  1.0000
  C   C26       1.0  0.73155  0.48769  0.84469  1.0000
  C   C27       1.0  0.9690400000000001  0.45755000000000007  0.7889000000000002  1.0000
  C   C28       1.0  0.7792499999999998  0.86789  0.44288  1.0000
  C   C29       1.0  0.53801  0.42503  0.79596  1.0000
  C   C30       1.0  0.46184  0.57495  0.20396  1.0000
  C   C31       1.0  0.11742  0.845  0.34943  1.0000
  C   C32       1.0  0.3767199999999999  0.5065799999999998  0.63175  1.0000
  C   C33       1.0  0.26102  0.79413  0.3698  1.0000
  C   C34       1.0  0.09427000000000003  0.43176000000000003  0.8705200000000002  1.0000
  C   C35       1.0  0.08280000000000001  0.45868  0.60692  1.0000
  C   C36       1.0  0.43995999999999996  0.8001  0.42535  1.0000
  C   C37       1.0  0.2394599999999999  0.3558  0.50781  1.0000
  C   C38       1.0  0.22082999999999992  0.13210999999999995  0.55701  1.0000
  C   C39       1.0  0.66214  0.44057000000000013  0.57115  1.0000
  C   C40       1.0  0.1269000000000001  0.8722500000000002  0.4982600000000001  1.0000
  C   C41       1.0  0.8200199999999995  0.7867099999999999  0.33134  1.0000
  C   C42       1.0  0.36427000000000004  0.37954000000000004  0.8001200000000002  1.0000
  N   N1        1.0  0.64388  0.34348  0.85243  1.0000
  N   N2        1.0  0.35625999999999997  0.65678  0.1476  1.0000
  N   N3        1.0  0.13761999999999996  0.12084  0.57536  1.0000
  N   N4        1.0  0.20479  0.84976  0.50278  1.0000
  N   N5        1.0  0.9798899999999997  0.5411  0.11906000000000003  1.0000
  N   N6        1.0  0.28635000000000005  0.27429000000000003  0.7038300000000001  1.0000
  N   N7        1.0  0.19911999999999996  0.8344199999999999  0.40655  1.0000
  N   N8        1.0  0.57939  0.29503  0.56551  1.0000
  N   N9        1.0  0.43873999999999985  0.57629  0.45698000000000005  1.0000
  N   N10       1.0  0.7135899999999997  0.7256100000000001  0.29611000000000004  1.0000
  N   N11       1.0  0.90705  0.58585  0.22115000000000007  1.0000
  N   N12       1.0  0.36167  0.57535  0.16372000000000003  1.0000
  N   N13       1.0  0.34345  0.41513  0.54231  1.0000
  N   N14       1.0  0.6566399999999998  0.5850400000000001  0.4578500000000001  1.0000
  N   N15       1.0  0.07067000000000004  0.8697900000000001  0.4061000000000001  1.0000
  N   N16       1.0  0.5611499999999998  0.42361  0.54296  1.0000
  N   N17       1.0  0.3121899999999999  0.22395  0.63091  1.0000
  N   N18       1.0  0.42051  0.70485  0.4344  1.0000
  N   N19       1.0  0.9294100000000001  0.13031000000000006  0.59413  1.0000
  N   N20       1.0  0.30126  0.50833  0.6564400000000002  1.0000
  N   N21       1.0  0.21200000000000002  0.41092  0.57385  1.0000
  N   N22       1.0  0.7953000000000001  0.15027000000000007  0.4973300000000001  1.0000
  N   N23       1.0  0.9856899999999997  0.56678  0.27229  1.0000
  N   N24       1.0  0.19989  0.54768  0.13009  1.0000
  N   N25       1.0  0.32128  0.63325  0.41192  1.0000
  N   N26       1.0  0.68785  0.77604  0.36908  1.0000
  N   N27       1.0  0.014540000000000022  0.43315  0.72793  1.0000
  N   N28       1.0  0.8000200000000002  0.45259000000000016  0.8695600000000002  1.0000
  N   N29       1.0  0.69871  0.49181  0.34361000000000014  1.0000
  N   N30       1.0  0.6785999999999998  0.36661  0.58792  1.0000
  N   N31       1.0  0.80087  0.16558  0.59351  1.0000
  N   N32       1.0  0.788  0.58921  0.4261700000000001  1.0000
  N   N33       1.0  0.6382399999999999  0.4247300000000001  0.8361300000000003  1.0000
  N   N34       1.0  0.8623699999999999  0.8790800000000001  0.42439000000000004  1.0000
  N   N35       1.0  0.09324  0.41402  0.77881  1.0000
  N   N36       1.0  0.02049000000000004  0.4583400000000001  0.88113  1.0000
