data_image0
_chemical_formula_structural       Cd10H32C48N40Cl12
_chemical_formula_sum              "Cd10 H32 C48 N40 Cl12"
_cell_length_a       12.73625
_cell_length_b       13.419460000000003
_cell_length_c       17.63504
_cell_angle_alpha    87.65331
_cell_angle_beta     68.75753
_cell_angle_gamma    61.61686000000001

_symmetry_space_group_name_H-M    'P 1'
_symmetry_Int_Tables_number       1

loop_
  _symmetry_equiv_pos_as_xyz
  'x,y,z'

loop_
  _atom_site_type_symbol
  _atom_site_label
  _atom_site_symmetry_multiplicity
  _atom_site_fract_x
  _atom_site_fract_y
  _atom_site_fract_z
  _atom_site_occupancy
  Cd  Cd1       1.0  0.3914900000000001  0.74919  0.77403  1.0000
  Cd  Cd2       1.0  0.6817699999999999  0.6546800000000002  0.83869  1.0000
  Cd  Cd3       1.0  0.91491  0.75087  0.72615  1.0000
  Cd  Cd4       1.0  0.17533000000000032  0.8453600000000001  0.6611199999999999  1.0000
  Cd  Cd5       1.0  0.6085200000000002  0.25081  0.22597  1.0000
  Cd  Cd6       1.0  0.3182400000000001  0.34532  0.16131  1.0000
  Cd  Cd7       1.0  0.08509999999999998  0.24913000000000002  0.27385  1.0000
  Cd  Cd8       1.0  0.8246800000000001  0.15464  0.33888  1.0000
  Cd  Cd9       1.0  0.5  0.0  0.0  1.0000
  Cd  Cd10      1.0  0.5  0.5  0.5  1.0000
  H   H1        1.0  0.32952999999999993  0.64148  0.94166  1.0000
  H   H2        1.0  0.39198000000000005  0.51889  0.04378  1.0000
  H   H3        1.0  0.14652  0.39173  0.05836  1.0000
  H   H4        1.0  0.08256999999999992  0.50218  0.94957  1.0000
  H   H5        1.0  0.3864099999999999  0.34909000000000007  0.83656  1.0000
  H   H6        1.0  0.7506299999999999  0.22095  0.86386  1.0000
  H   H7        1.0  0.7218400000000001  0.05956999999999999  0.92365  1.0000
  H   H8        1.0  0.36596999999999996  0.18821999999999997  0.90413  1.0000
  H   H9        1.0  0.91263  0.8587800000000001  0.55844  1.0000
  H   H10       1.0  0.9544699999999998  0.98147  0.45642  1.0000
  H   H11       1.0  0.5964200000000002  0.10841  0.44174  1.0000
  H   H12       1.0  0.5340400000000001  0.99796  0.5504  1.0000
  H   H13       1.0  0.57175  0.1511  0.66362  1.0000
  H   H14       1.0  0.8350700000000002  0.27887  0.63619  1.0000
  H   H15       1.0  0.7046600000000002  0.4402  0.57624  1.0000
  H   H16       1.0  0.45802  0.31196  0.5959  1.0000
  H   H17       1.0  0.6704800000000001  0.35852  0.05833  1.0000
  H   H18       1.0  0.60803  0.48111  0.95622  1.0000
  H   H19       1.0  0.85349  0.60827  0.94164  1.0000
  H   H20       1.0  0.91744  0.49782000000000004  0.05043  1.0000
  H   H21       1.0  0.6136  0.65091  0.16344  1.0000
  H   H22       1.0  0.24938  0.7790500000000001  0.13614  1.0000
  H   H23       1.0  0.27816  0.94043  0.07635  1.0000
  H   H24       1.0  0.63404  0.81178  0.09586  1.0000
  H   H25       1.0  0.08737999999999997  0.14122  0.44155  1.0000
  H   H26       1.0  0.04553999999999998  0.018530000000000012  0.54358  1.0000
  H   H27       1.0  0.4035900000000001  0.89159  0.55826  1.0000
  H   H28       1.0  0.46597000000000005  0.002040000000000003  0.44959  1.0000
  H   H29       1.0  0.4282599999999999  0.8489000000000001  0.33638  1.0000
  H   H30       1.0  0.16494000000000003  0.72113  0.36381  1.0000
  H   H31       1.0  0.29535  0.5598  0.42376  1.0000
  H   H32       1.0  0.54199  0.68804  0.4041  1.0000
  C   C1        1.0  0.1583900000000001  0.64729  0.87475  1.0000
  C   C2        1.0  0.19963000000000003  0.58189  0.93672  1.0000
  C   C3        1.0  0.28808000000000006  0.58604  0.96422  1.0000
  C   C4        1.0  0.32310000000000005  0.51766  0.02186  1.0000
  C   C5        1.0  0.18617000000000009  0.44668  0.02995  1.0000
  C   C6        1.0  0.14921000000000004  0.50954  0.9707  1.0000
  C   C7        1.0  0.5783099999999999  0.39721  0.81479  1.0000
  C   C8        1.0  0.5690300000000001  0.29897  0.84665  1.0000
  C   C9        1.0  0.46159000000000017  0.28691  0.85579  1.0000
  C   C10       1.0  0.66486  0.21591  0.87113  1.0000
  C   C11       1.0  0.64889  0.12655  0.90503  1.0000
  C   C12       1.0  0.45063  0.19738  0.8926  1.0000
  C   C13       1.0  0.6803  0.8527599999999999  0.62525  1.0000
  C   C14       1.0  0.7180799999999998  0.91828  0.56339  1.0000
  C   C15       1.0  0.83821  0.91427  0.53594  1.0000
  C   C16       1.0  0.8623600000000001  0.98275  0.47833  1.0000
  C   C17       1.0  0.66249  0.053519999999999984  0.47023  1.0000
  C   C18       1.0  0.6292299999999998  0.99059  0.52945  1.0000
  C   C19       1.0  0.7896300000000002  0.10301000000000002  0.68557  1.0000
  C   C20       1.0  0.71413  0.20123  0.65364  1.0000
  C   C21       1.0  0.6039199999999999  0.21326  0.64441  1.0000
  C   C22       1.0  0.7514600000000001  0.28412  0.62895  1.0000
  C   C23       1.0  0.68004  0.37333  0.59494  1.0000
  C   C24       1.0  0.54034  0.30255  0.60745  1.0000
  C   C25       1.0  0.84162  0.3527  0.12525  1.0000
  C   C26       1.0  0.80038  0.4181000000000001  0.06327  1.0000
  C   C27       1.0  0.7119299999999998  0.41396  0.03578  1.0000
  C   C28       1.0  0.6769000000000001  0.48234  0.97814  1.0000
  C   C29       1.0  0.8138400000000001  0.55332  0.97005  1.0000
  C   C30       1.0  0.8508000000000002  0.49046  0.02929  1.0000
  C   C31       1.0  0.42169000000000006  0.60278  0.18521  1.0000
  C   C32       1.0  0.43098  0.70103  0.15335  1.0000
  C   C33       1.0  0.53842  0.71309  0.14421  1.0000
  C   C34       1.0  0.33515000000000006  0.78408  0.12887  1.0000
  C   C35       1.0  0.35112000000000004  0.87345  0.09496  1.0000
  C   C36       1.0  0.54938  0.80262  0.1074  1.0000
  C   C37       1.0  0.31971  0.14724  0.37475  1.0000
  C   C38       1.0  0.28192999999999996  0.08172  0.43661  1.0000
  C   C39       1.0  0.1618  0.08572  0.46406  1.0000
  C   C40       1.0  0.13765000000000005  0.01725  0.52167  1.0000
  C   C41       1.0  0.3375200000000002  0.94647  0.52976  1.0000
  C   C42       1.0  0.3707800000000001  0.009410000000000002  0.47055  1.0000
  C   C43       1.0  0.21037000000000003  0.89699  0.31442  1.0000
  C   C44       1.0  0.2858800000000002  0.79877  0.34636  1.0000
  C   C45       1.0  0.39609  0.78674  0.35559  1.0000
  C   C46       1.0  0.24855000000000016  0.71588  0.37105  1.0000
  C   C47       1.0  0.31997  0.6266600000000001  0.40506  1.0000
  C   C48       1.0  0.4596700000000001  0.6974399999999998  0.39254999999999995  1.0000
  N   N1        1.0  0.2131699999999999  0.7024500000000001  0.82264  1.0000
  N   N2        1.0  0.14287000000000002  0.74506  0.7767  1.0000
  N   N3        1.0  0.04936000000000001  0.71799  0.80034  1.0000
  N   N4        1.0  0.05618000000000028  0.6569599999999999  0.86144  1.0000
  N   N5        1.0  0.27339000000000013  0.44939  0.05503  1.0000
  N   N6        1.0  0.66832  0.42328  0.81548  1.0000
  N   N7        1.0  0.63557  0.52378  0.78896  1.0000
  N   N8        1.0  0.52972  0.55648  0.77193  1.0000
  N   N9        1.0  0.4921200000000002  0.47837  0.78753  1.0000
  N   N10       1.0  0.5422000000000002  0.11876000000000005  0.91737  1.0000
  N   N11       1.0  0.73816  0.79781  0.67733  1.0000
  N   N12       1.0  0.6645900000000007  0.75515  0.72337  1.0000
  N   N13       1.0  0.5676399999999999  0.7819700000000002  0.6998  1.0000
  N   N14       1.0  0.5744800000000002  0.8429100000000003  0.63863  1.0000
  N   N15       1.0  0.77749  0.05096  0.44519  1.0000
  N   N16       1.0  0.9065900000000001  0.07675  0.68468  1.0000
  N   N17       1.0  0.9480200000000001  0.97608  0.71093  1.0000
  N   N18       1.0  0.8577500000000001  0.9434900000000002  0.72803  1.0000
  N   N19       1.0  0.75734  0.02184  0.71273  1.0000
  N   N20       1.0  0.5779600000000003  0.38115  0.58259  1.0000
  N   N21       1.0  0.7868400000000001  0.29755  0.17735  1.0000
  N   N22       1.0  0.85714  0.25494  0.2233  1.0000
  N   N23       1.0  0.95065  0.282  0.19966  1.0000
  N   N24       1.0  0.9438300000000001  0.34304000000000007  0.13856  1.0000
  N   N25       1.0  0.72662  0.55061  0.94497  1.0000
  N   N26       1.0  0.33168000000000003  0.57672  0.18452  1.0000
  N   N27       1.0  0.36444000000000004  0.47622  0.21104  1.0000
  N   N28       1.0  0.47029000000000015  0.4435200000000001  0.22806  1.0000
  N   N29       1.0  0.50788  0.52163  0.21246  1.0000
  N   N30       1.0  0.4578100000000001  0.88124  0.08263  1.0000
  N   N31       1.0  0.26185000000000014  0.20218  0.32267  1.0000
  N   N32       1.0  0.33542  0.24485  0.27663  1.0000
  N   N33       1.0  0.43237000000000003  0.21803  0.3002  1.0000
  N   N34       1.0  0.4255300000000001  0.15708  0.36137  1.0000
  N   N35       1.0  0.22251999999999988  0.9490400000000001  0.55481  1.0000
  N   N36       1.0  0.0934200000000001  0.92325  0.31532  1.0000
  N   N37       1.0  0.051989999999999995  0.02391  0.28906  1.0000
  N   N38       1.0  0.14226  0.0565  0.27196  1.0000
  N   N39       1.0  0.24266999999999989  0.97816  0.28727  1.0000
  N   N40       1.0  0.42205  0.61885  0.4174  1.0000
  Cl  Cl1       1.0  0.42393000000000053  0.78515  0.90838  1.0000
  Cl  Cl2       1.0  0.43649999999999994  0.67538  0.6002  1.0000
  Cl  Cl3       1.0  0.23473999999999998  0.94314  0.75267  1.0000
  Cl  Cl4       1.0  0.11829999999999995  0.7145  0.59158  1.0000
  Cl  Cl5       1.0  0.71157  0.8246  0.89971  1.0000
  Cl  Cl6       1.0  0.9310900000000002  0.55702  0.74717  1.0000
  Cl  Cl7       1.0  0.57608  0.21485  0.09161  1.0000
  Cl  Cl8       1.0  0.5635100000000003  0.32462  0.3998  1.0000
  Cl  Cl9       1.0  0.76527  0.05686  0.24732999999999997  1.0000
  Cl  Cl10      1.0  0.88171  0.2855  0.40841  1.0000
  Cl  Cl11      1.0  0.2884400000000001  0.17539  0.10029  1.0000
  Cl  Cl12      1.0  0.06892  0.44298  0.25283  1.0000
