data_image0
_chemical_formula_structural       Zn4H56C60N12O16
_chemical_formula_sum              "Zn4 H56 C60 N12 O16"
_cell_length_a       10.39993
_cell_length_b       14.796360000000002
_cell_length_c       14.99824
_cell_angle_alpha    115.71419999999999
_cell_angle_beta     89.97554999999998
_cell_angle_gamma    110.62717

_space_group_name_H-M_alt    "P 1"
_space_group_IT_number       1

loop_
  _space_group_symop_operation_xyz
  'x, y, z'

loop_
  _atom_site_type_symbol
  _atom_site_label
  _atom_site_symmetry_multiplicity
  _atom_site_fract_x
  _atom_site_fract_y
  _atom_site_fract_z
  _atom_site_occupancy
  Zn  Zn1       1.0  0.34873  0.4184  0.96533  1.0000
  Zn  Zn2       1.0  0.9296199999999998  0.5812199999999998  0.53458  1.0000
  Zn  Zn3       1.0  0.65128  0.5816  0.03467  1.0000
  Zn  Zn4       1.0  0.07039000000000001  0.41878  0.46542  1.0000
  H   H1        1.0  0.7833100000000001  0.26653  0.78827  1.0000
  H   H2        1.0  0.71644  0.3012  0.9009  1.0000
  H   H3        1.0  0.54879  0.84862  0.01232  1.0000
  H   H4        1.0  0.1404  0.35834  0.10127  1.0000
  H   H5        1.0  0.85303  0.287  0.04752  1.0000
  H   H6        1.0  0.12784  0.41292  0.80244  1.0000
  H   H7        1.0  0.9664699999999999  0.30035  0.73452  1.0000
  H   H8        1.0  0.12178999999999998  0.27844  0.74746  1.0000
  H   H9        1.0  0.5871  0.10648000000000005  0.7858300000000001  1.0000
  H   H10       1.0  0.6810099999999999  0.12154999999999996  0.8922  1.0000
  H   H11       1.0  0.26972  0.54485  0.7681500000000001  1.0000
  H   H12       1.0  0.25929  0.84668  0.80457  1.0000
  H   H13       1.0  0.75971  0.05640999999999995  0.6822499999999999  1.0000
  H   H14       1.0  0.87653  0.09620000000000005  0.7896900000000001  1.0000
  H   H15       1.0  0.51696  0.7332799999999999  0.71166  1.0000
  H   H16       1.0  0.41516  0.69852  0.59912  1.0000
  H   H17       1.0  0.69978  0.15177000000000002  0.48786  1.0000
  H   H18       1.0  0.78219  0.64158  0.39868  1.0000
  H   H19       1.0  0.56636  0.71303  0.45252  1.0000
  H   H20       1.0  0.7144700000000002  0.5872100000000001  0.6977600000000002  1.0000
  H   H21       1.0  0.6658  0.69968  0.7652  1.0000
  H   H22       1.0  0.84331  0.72171  0.75271  1.0000
  H   H23       1.0  0.4807399999999999  0.8932999999999999  0.71406  1.0000
  H   H24       1.0  0.55954  0.87806  0.60758  1.0000
  H   H25       1.0  0.72412  0.45510999999999996  0.7322  1.0000
  H   H26       1.0  0.41213  0.15265999999999993  0.69556  1.0000
  H   H27       1.0  0.70331  0.94385  0.81783  1.0000
  H   H28       1.0  0.7804900000000001  0.90398  0.71044  1.0000
  H   H29       1.0  0.21669000000000008  0.7334700000000001  0.21173000000000003  1.0000
  H   H30       1.0  0.28356  0.6988  0.09911  1.0000
  H   H31       1.0  0.45122  0.15138000000000001  0.98769  1.0000
  H   H32       1.0  0.85961  0.64166  0.89874  1.0000
  H   H33       1.0  0.14696999999999996  0.71301  0.95249  1.0000
  H   H34       1.0  0.8721700000000001  0.58709  0.19757  1.0000
  H   H35       1.0  0.03354000000000001  0.69965  0.26548  1.0000
  H   H36       1.0  0.8782099999999999  0.7215699999999999  0.25255  1.0000
  H   H37       1.0  0.41289999999999993  0.89352  0.21418  1.0000
  H   H38       1.0  0.319  0.8784499999999998  0.1078  1.0000
  H   H39       1.0  0.73029  0.45515  0.23185000000000003  1.0000
  H   H40       1.0  0.74071  0.15332  0.19544000000000003  1.0000
  H   H41       1.0  0.24029999999999993  0.94359  0.31776  1.0000
  H   H42       1.0  0.12348000000000008  0.9038  0.21032  1.0000
  H   H43       1.0  0.4830499999999999  0.26673  0.28834  1.0000
  H   H44       1.0  0.58485  0.30148  0.40089  1.0000
  H   H45       1.0  0.30023000000000016  0.8482300000000002  0.51215  1.0000
  H   H46       1.0  0.21782  0.35842  0.60132  1.0000
  H   H47       1.0  0.4336400000000001  0.28697  0.54748  1.0000
  H   H48       1.0  0.28554  0.41279  0.30225  1.0000
  H   H49       1.0  0.33421  0.30032  0.23481  1.0000
  H   H50       1.0  0.1567  0.27829  0.2473  1.0000
  H   H51       1.0  0.51927  0.1067  0.28595  1.0000
  H   H52       1.0  0.44047  0.12194999999999999  0.39243  1.0000
  H   H53       1.0  0.27588  0.54489  0.2678  1.0000
  H   H54       1.0  0.58787  0.84735  0.30445  1.0000
  H   H55       1.0  0.2967  0.05616  0.18217  1.0000
  H   H56       1.0  0.21952  0.09602000000000001  0.28957  1.0000
  C   C1        1.0  0.41145  0.6899699999999999  0.89633  1.0000
  C   C2        1.0  0.7724100000000002  0.25253000000000003  0.8543000000000001  1.0000
  C   C3        1.0  0.46573000000000003  0.80356  0.94683  1.0000
  C   C4        1.0  0.41001999999999994  0.86004  0.9135700000000001  1.0000
  C   C5        1.0  0.45794  0.62629  0.93529  1.0000
  C   C6        1.0  0.07855  0.34048  0.03331  1.0000
  C   C7        1.0  0.9370900000000001  0.30525  0.00762  1.0000
  C   C8        1.0  0.06295000000000003  0.32871000000000006  0.7858300000000001  1.0000
  C   C9        1.0  0.03838  0.32511  0.88223  1.0000
  C   C10       1.0  0.6931900000000001  0.1312600000000001  0.8237000000000001  1.0000
  C   C11       1.0  0.30794999999999995  0.6331099999999998  0.80972  1.0000
  C   C12       1.0  0.25398  0.68887  0.77561  1.0000
  C   C13       1.0  0.30256999999999995  0.8024499999999999  0.8291400000000001  1.0000
  C   C14       1.0  0.14868  0.62611  0.67976  1.0000
  C   C15       1.0  0.76495  0.058539999999999946  0.75653  1.0000
  C   C16       1.0  0.72099  0.31031  0.60401  1.0000
  C   C17       1.0  0.51989  0.74728  0.64566  1.0000
  C   C18       1.0  0.6618899999999999  0.19673  0.55345  1.0000
  C   C19       1.0  0.54971  0.13988000000000006  0.58656  1.0000
  C   C20       1.0  0.83066  0.37443  0.56506  1.0000
  C   C21       1.0  0.73824  0.65956  0.46667  1.0000
  C   C22       1.0  0.63213  0.69483  0.49242  1.0000
  C   C23       1.0  0.7341899999999999  0.6714  0.71417  1.0000
  C   C24       1.0  0.71352  0.67511  0.61782  1.0000
  C   C25       1.0  0.56201  0.86853  0.67619  1.0000
  C   C26       1.0  0.67434  0.36682  0.6907  1.0000
  C   C27       1.0  0.56449  0.31071999999999994  0.72456  1.0000
  C   C28       1.0  0.4997  0.19711  0.67107  1.0000
  C   C29       1.0  0.52165  0.37342999999999993  0.82013  1.0000
  C   C30       1.0  0.70646  0.9415099999999998  0.74345  1.0000
  C   C31       1.0  0.58855  0.31003  0.10367000000000001  1.0000
  C   C32       1.0  0.22759999999999994  0.7474699999999999  0.1457  1.0000
  C   C33       1.0  0.53428  0.19644  0.05318  1.0000
  C   C34       1.0  0.58999  0.13996  0.08643  1.0000
  C   C35       1.0  0.54207  0.37371999999999994  0.06471  1.0000
  C   C36       1.0  0.9214500000000001  0.65952  0.96669  1.0000
  C   C37       1.0  0.06290999999999998  0.69476  0.99239  1.0000
  C   C38       1.0  0.9370500000000002  0.67129  0.21418  1.0000
  C   C39       1.0  0.96163  0.6749  0.11777  1.0000
  C   C40       1.0  0.30682  0.86875  0.17631  1.0000
  C   C41       1.0  0.69205  0.36689  0.19028000000000003  1.0000
  C   C42       1.0  0.74602  0.31114  0.22440000000000002  1.0000
  C   C43       1.0  0.69744  0.19755  0.17086  1.0000
  C   C44       1.0  0.85132  0.37389  0.32024  1.0000
  C   C45       1.0  0.23506000000000007  0.94146  0.24347000000000002  1.0000
  C   C46       1.0  0.27901  0.68969  0.39599  1.0000
  C   C47       1.0  0.48011  0.25272  0.35435  1.0000
  C   C48       1.0  0.3381099999999999  0.80328  0.44655  1.0000
  C   C49       1.0  0.45029  0.86012  0.41344000000000003  1.0000
  C   C50       1.0  0.16934999999999995  0.62557  0.43494  1.0000
  C   C51       1.0  0.26177  0.34045  0.53333  1.0000
  C   C52       1.0  0.36788  0.30517  0.50758  1.0000
  C   C53       1.0  0.26581  0.32861  0.28583  1.0000
  C   C54       1.0  0.28648  0.32489  0.38218  1.0000
  C   C55       1.0  0.43799  0.13147  0.32382  1.0000
  C   C56       1.0  0.32567  0.63318  0.30931  1.0000
  C   C57       1.0  0.43552  0.68928  0.27544  1.0000
  C   C58       1.0  0.50031  0.80289  0.32893  1.0000
  C   C59       1.0  0.47836  0.62657  0.17987  1.0000
  C   C60       1.0  0.29354  0.05849  0.25655  1.0000
  N   N1        1.0  0.9127000000000001  0.29599  0.91229  1.0000
  N   N2        1.0  0.45538999999999996  0.9748999999999999  0.95939  1.0000
  N   N3        1.0  0.14043999999999998  0.3527699999999999  0.95539  1.0000
  N   N4        1.0  0.61681  0.70395  0.58769  1.0000
  N   N5        1.0  0.48038  0.025  0.54061  1.0000
  N   N6        1.0  0.7878  0.6473499999999999  0.5446  1.0000
  N   N7        1.0  0.0873  0.70401  0.08771  1.0000
  N   N8        1.0  0.54462  0.0251  0.04061  1.0000
  N   N9        1.0  0.8595699999999998  0.64723  0.044610000000000004  1.0000
  N   N10       1.0  0.3832  0.29605  0.41232  1.0000
  N   N11       1.0  0.51963  0.975  0.45940000000000003  1.0000
  N   N12       1.0  0.21221  0.35265  0.4554  1.0000
  O   O1        1.0  0.58355  0.66789  0.98019  1.0000
  O   O2        1.0  0.36284  0.53594  0.92005  1.0000
  O   O3        1.0  0.06481999999999999  0.6679  0.66995  1.0000
  O   O4        1.0  0.15548000000000006  0.5373500000000001  0.6165100000000001  1.0000
  O   O5        1.0  0.91513  0.33343  0.52025  1.0000
  O   O6        1.0  0.82468  0.46432  0.58007  1.0000
  O   O7        1.0  0.39602  0.33126999999999995  0.83002  1.0000
  O   O8        1.0  0.6166600000000001  0.46283  0.88311  1.0000
  O   O9        1.0  0.41645  0.33211  0.01982  1.0000
  O   O10       1.0  0.63717  0.46406  0.07996  1.0000
  O   O11       1.0  0.93519  0.3321  0.33005  1.0000
  O   O12       1.0  0.84453  0.46265  0.38349  1.0000
  O   O13       1.0  0.08488  0.66657  0.47976  1.0000
  O   O14       1.0  0.17532999999999996  0.53568  0.41994  1.0000
  O   O15       1.0  0.60398  0.66873  0.16998  1.0000
  O   O16       1.0  0.38335  0.53717  0.1169  1.0000
