data_image0
_chemical_formula_structural       Mn4Si2H32C56O16
_chemical_formula_sum              "Mn4 Si2 H32 C56 O16"
_cell_length_a       12.93556
_cell_length_b       13.56739
_cell_length_c       14.9906
_cell_angle_alpha    116.81674999999998
_cell_angle_beta     115.25251999999999
_cell_angle_gamma    90.41030000000002

_space_group_name_H-M_alt    "P 1"
_space_group_IT_number       1

loop_
  _space_group_symop_operation_xyz
  'x, y, z'

loop_
  _atom_site_type_symbol
  _atom_site_label
  _atom_site_symmetry_multiplicity
  _atom_site_fract_x
  _atom_site_fract_y
  _atom_site_fract_z
  _atom_site_occupancy
  Mn  Mn1       1.0  0.9371499999999996  0.68764  0.37393  1.0000
  Mn  Mn2       1.0  0.06285999999999994  0.31234  0.62608  1.0000
  Mn  Mn3       1.0  7.999999999999492e-05  0.0  0.50003  1.0000
  Mn  Mn4       1.0  3.9999999999974396e-05  0.49993  0.49996  1.0000
  Si  Si1       1.0  0.69963  0.94996  0.90068  1.0000
  Si  Si2       1.0  0.30037  0.05003  0.09931  1.0000
  H   H1        1.0  0.65501  0.7443400000000001  0.68127  1.0000
  H   H2        1.0  0.73805  0.70598  0.5497  1.0000
  H   H3        1.0  0.9755  0.03846000000000003  0.77737  1.0000
  H   H4        1.0  0.89791  0.07703  0.91194  1.0000
  H   H5        1.0  0.69238  0.012059999999999996  0.11054  1.0000
  H   H6        1.0  0.7722  0.95325  0.25572  1.0000
  H   H7        1.0  0.90153  0.7013  0.05762  1.0000
  H   H8        1.0  0.82375  0.7612100000000002  0.9107300000000002  1.0000
  H   H9        1.0  0.52605  0.93616  0.68166  1.0000
  H   H10       1.0  0.31154  0.84359  0.55059  1.0000
  H   H11       1.0  0.30113000000000006  0.7383200000000001  0.7775500000000001  1.0000
  H   H12       1.0  0.51307  0.8338600000000002  0.91151  1.0000
  H   H13       1.0  0.91603  0.09692000000000002  0.10930000000000001  1.0000
  H   H14       1.0  0.98327  0.3014200000000001  0.25482  1.0000
  H   H15       1.0  0.6574399999999999  0.35787  0.05967  1.0000
  H   H16       1.0  0.58672  0.15047  0.9121  1.0000
  H   H17       1.0  0.34500999999999993  0.25564000000000003  0.31872  1.0000
  H   H18       1.0  0.26195  0.2940400000000001  0.45029  1.0000
  H   H19       1.0  0.024489999999999998  0.9615700000000003  0.22263  1.0000
  H   H20       1.0  0.1021  0.92297  0.08808000000000002  1.0000
  H   H21       1.0  0.3076  0.9879300000000003  0.8894400000000001  1.0000
  H   H22       1.0  0.22773999999999994  0.04674000000000002  0.74425  1.0000
  H   H23       1.0  0.09846000000000005  0.29871  0.94239  1.0000
  H   H24       1.0  0.17627000000000004  0.2388000000000001  0.08929000000000001  1.0000
  H   H25       1.0  0.4739300000000001  0.06385  0.31835  1.0000
  H   H26       1.0  0.68845  0.15637999999999996  0.4494  1.0000
  H   H27       1.0  0.69889  0.26164  0.22244  1.0000
  H   H28       1.0  0.4869299999999999  0.16615  0.08851  1.0000
  H   H29       1.0  0.08396000000000002  0.9030600000000001  0.89067  1.0000
  H   H30       1.0  0.016759999999999976  0.69855  0.74513  1.0000
  H   H31       1.0  0.3425800000000001  0.64213  0.9403400000000001  1.0000
  H   H32       1.0  0.41327  0.84953  0.08791  1.0000
  C   C1        1.0  0.77001  0.91376  0.80681  1.0000
  C   C2        1.0  0.72692  0.8084700000000002  0.70425  1.0000
  C   C3        1.0  0.77235  0.7864400000000002  0.62965  1.0000
  C   C4        1.0  0.86069  0.87055  0.65508  1.0000
  C   C5        1.0  0.9063200000000001  0.97444  0.7579500000000001  1.0000
  C   C6        1.0  0.86209  0.9952  0.8331  1.0000
  C   C7        1.0  0.90304  0.85105  0.5715  1.0000
  C   C8        1.0  0.75267  0.89111  0.99985  1.0000
  C   C9        1.0  0.7371799999999998  0.94319  0.09719  1.0000
  C   C10       1.0  0.7819199999999997  0.91088  0.17954  1.0000
  C   C11       1.0  0.84237  0.8242300000000002  0.1654  1.0000
  C   C12       1.0  0.855  0.7687200000000001  0.06706  1.0000
  C   C13       1.0  0.8110300000000003  0.80256  0.9853900000000001  1.0000
  C   C14       1.0  0.89402  0.79223  0.25454  1.0000
  C   C15       1.0  0.53587  0.8922  0.8067800000000002  1.0000
  C   C16       1.0  0.47691  0.8951100000000002  0.70457  1.0000
  C   C17       1.0  0.35698  0.84292  0.63028  1.0000
  C   C18       1.0  0.2937  0.7845600000000003  0.65571  1.0000
  C   C19       1.0  0.35074  0.7828700000000002  0.758  1.0000
  C   C20       1.0  0.4700399999999999  0.83695  0.83291  1.0000
  C   C21       1.0  0.16757  0.72171  0.57254  1.0000
  C   C22       1.0  0.74581  0.10839000000000004  0.99993  1.0000
  C   C23       1.0  0.8586599999999998  0.15312000000000006  0.09666  1.0000
  C   C24       1.0  0.89726  0.26806  0.17918  1.0000
  C   C25       1.0  0.82367  0.34143  0.16608  1.0000
  C   C26       1.0  0.7126299999999999  0.29917  0.06829  1.0000
  C   C27       1.0  0.6740500000000001  0.1833500000000001  0.9863500000000001  1.0000
  C   C28       1.0  0.86179  0.46273000000000003  0.25573  1.0000
  C   C29       1.0  0.22999  0.08623  0.19319  1.0000
  C   C30       1.0  0.27309  0.19153000000000003  0.29574  1.0000
  C   C31       1.0  0.22765000000000002  0.21357000000000007  0.37034000000000006  1.0000
  C   C32       1.0  0.13931  0.12947000000000003  0.34492000000000006  1.0000
  C   C33       1.0  0.09367  0.025580000000000002  0.24205  1.0000
  C   C34       1.0  0.13791  0.004809999999999993  0.1669  1.0000
  C   C35       1.0  0.09698000000000004  0.14897000000000005  0.42851  1.0000
  C   C36       1.0  0.24732  0.10888  0.00014  1.0000
  C   C37       1.0  0.26279  0.0567999999999999  0.9027899999999999  1.0000
  C   C38       1.0  0.21802999999999997  0.08911000000000004  0.82044  1.0000
  C   C39       1.0  0.15761000000000006  0.17577000000000012  0.8346000000000001  1.0000
  C   C40       1.0  0.14499  0.23128000000000007  0.93294  1.0000
  C   C41       1.0  0.18896999999999997  0.19744000000000006  0.01462  1.0000
  C   C42       1.0  0.10597  0.20779000000000009  0.74548  1.0000
  C   C43       1.0  0.46412999999999993  0.1078  0.19322  1.0000
  C   C44       1.0  0.52309  0.10489000000000001  0.29544  1.0000
  C   C45       1.0  0.64302  0.15706000000000006  0.36972  1.0000
  C   C46       1.0  0.70631  0.2154  0.34429  1.0000
  C   C47       1.0  0.64927  0.21710000000000004  0.242  1.0000
  C   C48       1.0  0.52996  0.16305000000000006  0.16709  1.0000
  C   C49       1.0  0.8324599999999999  0.27823000000000003  0.42744000000000004  1.0000
  C   C50       1.0  0.25418  0.8916  6e-05  1.0000
  C   C51       1.0  0.14134000000000002  0.84686  0.9033200000000001  1.0000
  C   C52       1.0  0.10275999999999999  0.73192  0.82078  1.0000
  C   C53       1.0  0.17634999999999998  0.6585500000000001  0.8339000000000001  1.0000
  C   C54       1.0  0.28738  0.7008300000000001  0.9317  1.0000
  C   C55       1.0  0.32595  0.8166400000000001  0.01364  1.0000
  C   C56       1.0  0.13823  0.53726  0.74426  1.0000
  O   O1        1.0  0.87665  0.74907  0.49083  1.0000
  O   O2        1.0  0.96288  0.93883  0.58702  1.0000
  O   O3        1.0  0.8907  0.8510600000000003  0.35001  1.0000
  O   O4        1.0  0.93749  0.7062400000000002  0.23821  1.0000
  O   O5        1.0  0.11393000000000005  0.74418  0.49285000000000007  1.0000
  O   O6        1.0  0.12243999999999997  0.64944  0.58754  1.0000
  O   O7        1.0  0.96074  0.4991800000000001  0.3507  1.0000
  O   O8        1.0  0.8020500000000002  0.53264  0.24025  1.0000
  O   O9        1.0  0.12339  0.25096  0.50919  1.0000
  O   O10       1.0  0.03714000000000001  0.06119999999999999  0.41301  1.0000
  O   O11       1.0  0.10932  0.14899000000000012  0.65002  1.0000
  O   O12       1.0  0.062489999999999976  0.29377  0.7618  1.0000
  O   O13       1.0  0.8860599999999998  0.25581  0.50718  1.0000
  O   O14       1.0  0.87766  0.35043000000000013  0.41241  1.0000
  O   O15       1.0  0.039299999999999995  0.50081  0.64928  1.0000
  O   O16       1.0  0.19796000000000008  0.46734000000000003  0.7597400000000001  1.0000
