data_image0
_chemical_formula_structural       Eu8H16C56N16O48
_chemical_formula_sum              "Eu8 H16 C56 N16 O48"
_cell_length_a       10.85936
_cell_length_b       12.05014
_cell_length_c       20.03753
_cell_angle_alpha    89.94246
_cell_angle_beta     89.99056
_cell_angle_gamma    89.92572999999999

_symmetry_space_group_name_H-M    'P 1'
_symmetry_Int_Tables_number       1

loop_
  _symmetry_equiv_pos_as_xyz
  'x,y,z'

loop_
  _atom_site_type_symbol
  _atom_site_label
  _atom_site_symmetry_multiplicity
  _atom_site_fract_x
  _atom_site_fract_y
  _atom_site_fract_z
  _atom_site_occupancy
  Eu  Eu1       1.0  0.8633799999999998  0.83986  0.11028  1.0000
  Eu  Eu2       1.0  0.38129999999999986  0.02498  0.32126999999999994  1.0000
  Eu  Eu3       1.0  0.13750999999999997  0.15912000000000004  0.61062  1.0000
  Eu  Eu4       1.0  0.61709  0.9752000000000001  0.8224799999999999  1.0000
  Eu  Eu5       1.0  0.63812  0.33912  0.11032999999999998  1.0000
  Eu  Eu6       1.0  0.1191  0.52512  0.32143  1.0000
  Eu  Eu7       1.0  0.36055  0.65959  0.61054  1.0000
  Eu  Eu8       1.0  0.8811  0.4753900000000001  0.8215999999999999  1.0000
  H   H1        1.0  0.6450099999999999  0.99969  0.20923  1.0000
  H   H2        1.0  0.7733  0.72873  0.37593  1.0000
  H   H3        1.0  0.14698  0.8891400000000002  0.21003  1.0000
  H   H4        1.0  0.98389  0.26486000000000004  0.20289  1.0000
  H   H5        1.0  0.35592  0.0010000000000000002  0.71081  1.0000
  H   H6        1.0  0.22511  0.27293  0.8760799999999999  1.0000
  H   H7        1.0  0.8519699999999998  0.11098  0.7096  1.0000
  H   H8        1.0  0.01463  0.73504  0.70357  1.0000
  H   H9        1.0  0.85537  0.49925  0.20888  1.0000
  H   H10       1.0  0.72741  0.22917000000000007  0.37599  1.0000
  H   H11       1.0  0.3536  0.3890600000000001  0.2093  1.0000
  H   H12       1.0  0.51725  0.7641700000000001  0.20292999999999997  1.0000
  H   H13       1.0  0.14349  0.50076  0.71019  1.0000
  H   H14       1.0  0.27332  0.7718800000000001  0.87596  1.0000
  H   H15       1.0  0.64668  0.61089  0.70879  1.0000
  H   H16       1.0  0.48317  0.23570000000000002  0.7035  1.0000
  C   C1        1.0  0.67213  0.93742  0.24595  1.0000
  C   C2        1.0  0.63531  0.84992  0.34601  1.0000
  C   C3        1.0  0.7434099999999999  0.78805  0.33822  1.0000
  C   C4        1.0  0.80881  0.80224  0.27884  1.0000
  C   C5        1.0  0.9172099999999999  0.7283300000000001  0.25987  1.0000
  C   C6        1.0  0.54966  0.8361800000000003  0.40585999999999994  1.0000
  C   C7        1.0  0.1131  0.9739400000000001  0.20632  1.0000
  C   C8        1.0  0.13145  0.15729  0.23601999999999998  1.0000
  C   C9        1.0  0.021509999999999998  0.18139  0.20336  1.0000
  C   C10       1.0  0.9623  0.09441000000000001  0.17105  1.0000
  C   C11       1.0  0.83897  0.11126  0.13706  1.0000
  C   C12       1.0  0.20363999999999996  0.24720000000000003  0.27188999999999997  1.0000
  C   C13       1.0  0.33652  0.12935  0.47692  1.0000
  C   C14       1.0  0.17893999999999996  0.06678  0.44844999999999996  1.0000
  C   C15       1.0  0.32796  0.06327  0.74723  1.0000
  C   C16       1.0  0.3632  0.15114  0.84726  1.0000
  C   C17       1.0  0.25549  0.21331000000000003  0.8387099999999998  1.0000
  C   C18       1.0  0.19097  0.19863  0.77909  1.0000
  C   C19       1.0  0.08297  0.27236  0.75941  1.0000
  C   C20       1.0  0.44842999999999994  0.16405  0.90736  1.0000
  C   C21       1.0  0.88618  0.02622  0.70643  1.0000
  C   C22       1.0  0.8673  0.84295  0.73625  1.0000
  C   C23       1.0  0.97747  0.8186600000000002  0.70397  1.0000
  C   C24       1.0  0.0372  0.90552  0.67179  1.0000
  C   C25       1.0  0.16045  0.8878100000000001  0.63797  1.0000
  C   C26       1.0  0.79551  0.7527300000000002  0.77198  1.0000
  C   C27       1.0  0.66291  0.8712500000000002  0.9779999999999999  1.0000
  C   C28       1.0  0.8212999999999999  0.93294  0.94936  1.0000
  C   C29       1.0  0.82808  0.43719  0.24568  1.0000
  C   C30       1.0  0.8643499999999998  0.35041  0.346  1.0000
  C   C31       1.0  0.75679  0.28808  0.33799  1.0000
  C   C32       1.0  0.69146  0.30183  0.27851  1.0000
  C   C33       1.0  0.58268  0.22815  0.25944  1.0000
  C   C34       1.0  0.9486399999999999  0.3386700000000001  0.40670999999999996  1.0000
  C   C35       1.0  0.38777  0.4737000000000001  0.20591  1.0000
  C   C36       1.0  0.36967999999999995  0.6568600000000001  0.23596000000000003  1.0000
  C   C37       1.0  0.47963  0.6807900000000001  0.20328  1.0000
  C   C38       1.0  0.53934  0.59362  0.17129999999999998  1.0000
  C   C39       1.0  0.66347  0.61  0.13804  1.0000
  C   C40       1.0  0.29753  0.74694  0.27178  1.0000
  C   C41       1.0  0.16286999999999996  0.62905  0.4772199999999999  1.0000
  C   C42       1.0  0.32288999999999995  0.56673  0.44875  1.0000
  C   C43       1.0  0.17101  0.56293  0.7468  1.0000
  C   C44       1.0  0.13573  0.65001  0.84721  1.0000
  C   C45       1.0  0.24303  0.7124900000000001  0.8385100000000001  1.0000
  C   C46       1.0  0.30769  0.69821  0.77886  1.0000
  C   C47       1.0  0.41545  0.7722500000000001  0.75914  1.0000
  C   C48       1.0  0.05146  0.66132  0.90807  1.0000
  C   C49       1.0  0.61221  0.52628  0.70581  1.0000
  C   C50       1.0  0.63084  0.34320000000000006  0.73633  1.0000
  C   C51       1.0  0.5208  0.31907  0.7038  1.0000
  C   C52       1.0  0.4608999999999999  0.40595  0.67155  1.0000
  C   C53       1.0  0.33726  0.3886800000000001  0.63796  1.0000
  C   C54       1.0  0.7028  0.25317  0.77257  1.0000
  C   C55       1.0  0.8395299999999999  0.3706800000000001  0.9782200000000001  1.0000
  C   C56       1.0  0.67822  0.43185  0.94974  1.0000
  N   N1        1.0  0.7735399999999999  0.87815  0.23286  1.0000
  N   N2        1.0  0.59968  0.9242100000000001  0.29947  1.0000
  N   N3        1.0  0.008949999999999998  0.99051  0.17149  1.0000
  N   N4        1.0  0.17692  0.0529  0.23838  1.0000
  N   N5        1.0  0.2265  0.12211000000000001  0.73366  1.0000
  N   N6        1.0  0.39961  0.07683  0.80098  1.0000
  N   N7        1.0  0.9907399999999998  0.009490000000000004  0.67193  1.0000
  N   N8        1.0  0.8219799999999999  0.94737  0.7385  1.0000
  N   N9        1.0  0.72669  0.37797  0.2327  1.0000
  N   N10       1.0  0.90044  0.42415  0.2992699999999999  1.0000
  N   N11       1.0  0.49218999999999996  0.4899800000000001  0.17128999999999997  1.0000
  N   N12       1.0  0.32399  0.55269  0.23812  1.0000
  N   N13       1.0  0.27252999999999994  0.6216500000000001  0.73343  1.0000
  N   N14       1.0  0.09921  0.57638  0.80057  1.0000
  N   N15       1.0  0.5075  0.5097700000000001  0.67149  1.0000
  N   N16       1.0  0.67644  0.44743  0.73802  1.0000
  O   O1        1.0  0.9654899999999998  0.7438900000000003  0.20264  1.0000
  O   O2        1.0  0.94628  0.65474  0.30174  1.0000
  O   O3        1.0  0.44953  0.89311  0.40383  1.0000
  O   O4        1.0  0.58181  0.77248  0.45177999999999996  1.0000
  O   O5        1.0  0.79277  0.02991  0.10600999999999998  1.0000
  O   O6        1.0  0.79036  0.20559  0.14454  1.0000
  O   O7        1.0  0.29788  0.21658  0.30356  1.0000
  O   O8        1.0  0.16321  0.3457200000000001  0.26595  1.0000
  O   O9        1.0  0.40987999999999997  0.12818  0.43084999999999996  1.0000
  O   O10       1.0  0.32755  0.15641  0.53557  1.0000
  O   O11       1.0  0.19272999999999996  0.018  0.39536  1.0000
  O   O12       1.0  0.09965  0.08899000000000001  0.48977999999999994  1.0000
  O   O13       1.0  0.03484  0.2560700000000001  0.70229  1.0000
  O   O14       1.0  0.05372999999999999  0.34646000000000005  0.80085  1.0000
  O   O15       1.0  0.54757  0.10589  0.90544  1.0000
  O   O16       1.0  0.41752  0.22797  0.95333  1.0000
  O   O17       1.0  0.20764  0.96847  0.60659  1.0000
  O   O18       1.0  0.20757  0.79297  0.64572  1.0000
  O   O19       1.0  0.70245  0.7830400000000002  0.8047999999999998  1.0000
  O   O20       1.0  0.83585  0.6543000000000001  0.76468  1.0000
  O   O21       1.0  0.58915  0.8725100000000002  0.93218  1.0000
  O   O22       1.0  0.67248  0.8437800000000001  0.03662  1.0000
  O   O23       1.0  0.80749  0.98167  0.89628  1.0000
  O   O24       1.0  0.90089  0.9104600000000002  0.99059  1.0000
  O   O25       1.0  0.53406  0.24368  0.20225999999999997  1.0000
  O   O26       1.0  0.55268  0.15511  0.30141  1.0000
  O   O27       1.0  0.04948999999999999  0.39412  0.40386999999999995  1.0000
  O   O28       1.0  0.91517  0.27844  0.45405  1.0000
  O   O29       1.0  0.7112799999999999  0.52769  0.10849  1.0000
  O   O30       1.0  0.71092  0.7049200000000001  0.14447  1.0000
  O   O31       1.0  0.20296  0.71688  0.30339  1.0000
  O   O32       1.0  0.33899  0.8451100000000001  0.26603  1.0000
  O   O33       1.0  0.09114  0.62837  0.43055  1.0000
  O   O34       1.0  0.17018  0.6562300000000001  0.53594  1.0000
  O   O35       1.0  0.31045999999999996  0.51908  0.39518  1.0000
  O   O36       1.0  0.40007  0.5892  0.49101  1.0000
  O   O37       1.0  0.46302  0.7565800000000003  0.70175  1.0000
  O   O38       1.0  0.44536999999999993  0.84564  0.80085  1.0000
  O   O39       1.0  0.95066  0.60584  0.9049499999999999  1.0000
  O   O40       1.0  0.08472  0.7212500000000002  0.95553  1.0000
  O   O41       1.0  0.29003  0.46996000000000004  0.60701  1.0000
  O   O42       1.0  0.28986  0.29398  0.64564  1.0000
  O   O43       1.0  0.7969499999999999  0.2832  0.80453  1.0000
  O   O44       1.0  0.66114  0.15506  0.7667  1.0000
  O   O45       1.0  0.9122899999999999  0.3724000000000001  0.93201  1.0000
  O   O46       1.0  0.83043  0.34348000000000006  0.03686  1.0000
  O   O47       1.0  0.69015  0.47804  0.8956699999999999  1.0000
  O   O48       1.0  0.60029  0.41074000000000005  0.99203  1.0000
