data_image0
_chemical_formula_structural       Ni3H36C54N12O12
_chemical_formula_sum              "Ni3 H36 C54 N12 O12"
_cell_length_a       10.12512
_cell_length_b       12.308670000000001
_cell_length_c       13.30442
_cell_angle_alpha    86.95659
_cell_angle_beta     71.3371
_cell_angle_gamma    72.83627

_symmetry_space_group_name_H-M    'P 1'
_symmetry_Int_Tables_number       1

loop_
  _symmetry_equiv_pos_as_xyz
  'x,y,z'

loop_
  _atom_site_type_symbol
  _atom_site_label
  _atom_site_symmetry_multiplicity
  _atom_site_fract_x
  _atom_site_fract_y
  _atom_site_fract_z
  _atom_site_occupancy
  Ni  Ni1       1.0  0.38386999999999993  0.92287  0.41728  1.0000
  Ni  Ni2       1.0  0.6162599999999999  0.07687  0.58283  1.0000
  Ni  Ni3       1.0  0.9969800000000001  0.49990999999999997  0.00233  1.0000
  H   H1        1.0  0.07486000000000001  0.11817  0.45107  1.0000
  H   H2        1.0  0.50678  0.13006  0.30335  1.0000
  H   H3        1.0  0.31475  0.34548  0.30207  1.0000
  H   H4        1.0  0.95684  0.30517  0.57361  1.0000
  H   H5        1.0  0.06350000000000003  0.41359999999999997  0.25175  1.0000
  H   H6        1.0  0.67503  0.72018  0.36235  1.0000
  H   H7        1.0  0.2778300000000002  0.7435799999999999  0.6019  1.0000
  H   H8        1.0  0.48223  0.54294  0.62343  1.0000
  H   H9        1.0  0.71909  0.45456  0.62057  1.0000
  H   H10       1.0  0.83017  0.56066  0.29571  1.0000
  H   H11       1.0  0.68129  0.67859  0.03693  1.0000
  H   H12       1.0  0.10571000000000001  0.68356  0.85396  1.0000
  H   H13       1.0  0.9101999999999996  0.8957699999999998  0.84883  1.0000
  H   H14       1.0  0.5487400000000001  0.8691699999999999  0.14166  1.0000
  H   H15       1.0  0.6706600000000001  0.97089  0.81582  1.0000
  H   H16       1.0  0.91727  0.97732  0.39965  1.0000
  H   H17       1.0  0.25798000000000004  0.70542  0.19423  1.0000
  H   H18       1.0  0.81164  0.76376  0.21028  1.0000
  H   H19       1.0  0.9252900000000001  0.88151  0.54859  1.0000
  H   H20       1.0  0.49327  0.8696499999999999  0.69613  1.0000
  H   H21       1.0  0.68537  0.65443  0.69821  1.0000
  H   H22       1.0  0.043280000000000006  0.6945099999999998  0.42659  1.0000
  H   H23       1.0  0.9364700000000001  0.58642  0.74855  1.0000
  H   H24       1.0  0.325  0.27983  0.63811  1.0000
  H   H25       1.0  0.7224200000000001  0.25644  0.39869  1.0000
  H   H26       1.0  0.51775  0.45673  0.37672  1.0000
  H   H27       1.0  0.28103000000000006  0.54516  0.37977  1.0000
  H   H28       1.0  0.1698800000000002  0.4391999999999999  0.70464  1.0000
  H   H29       1.0  0.31332000000000004  0.32364  0.96561  1.0000
  H   H30       1.0  0.89143  0.31358  0.14962  1.0000
  H   H31       1.0  0.09005000000000002  0.10204  0.15159  1.0000
  H   H32       1.0  0.44997  0.1318  0.85907  1.0000
  H   H33       1.0  0.32799000000000006  0.030129999999999997  0.18493  1.0000
  H   H34       1.0  0.08411999999999999  0.02278  0.60044  1.0000
  H   H35       1.0  0.7416400000000001  0.29365  0.80593  1.0000
  H   H36       1.0  0.18743999999999997  0.23709999999999995  0.79065  1.0000
  C   C1        1.0  0.16829000000000002  0.14849  0.41194  1.0000
  C   C2        1.0  0.38905  0.15952000000000002  0.33205  1.0000
  C   C3        1.0  0.29614000000000007  0.26609  0.33163  1.0000
  C   C4        1.0  0.023400000000000032  0.34883  0.40990999999999994  1.0000
  C   C5        1.0  0.92691  0.36111  0.51352  1.0000
  C   C6        1.0  0.9891600000000002  0.4226599999999999  0.33261  1.0000
  C   C7        1.0  0.59387  0.69885  0.42871  1.0000
  C   C8        1.0  0.3914700000000004  0.7084199999999999  0.55578  1.0000
  C   C9        1.0  0.49160000000000015  0.6097  0.56794  1.0000
  C   C10       1.0  0.7570600000000001  0.51802  0.46179  1.0000
  C   C11       1.0  0.7933  0.44558  0.53966  1.0000
  C   C12       1.0  0.85544  0.50671  0.35844  1.0000
  C   C13       1.0  0.7713200000000002  0.7074399999999998  0.9877899999999998  1.0000
  C   C14       1.0  0.9886  0.7139099999999999  0.88991  1.0000
  C   C15       1.0  0.8934600000000001  0.81881  0.88672  1.0000
  C   C16       1.0  0.6247799999999998  0.90803  0.9752  1.0000
  C   C17       1.0  0.5273900000000002  0.9248299999999999  0.07885  1.0000
  C   C18       1.0  0.59719  0.98355  0.89698  1.0000
  C   C19       1.0  0.84739  0.87942  0.30813  1.0000
  C   C20       1.0  0.9517700000000002  0.9072499999999999  0.34146  1.0000
  C   C21       1.0  0.09926000000000001  0.8437399999999999  0.30219  1.0000
  C   C22       1.0  0.14348999999999998  0.75383  0.22694  1.0000
  C   C23       1.0  0.03907999999999997  0.7230800000000001  0.19605  1.0000
  C   C24       1.0  0.8919500000000001  0.78663  0.23606999999999997  1.0000
  C   C25       1.0  0.6882  0.94316  0.35625000000000007  1.0000
  C   C26       1.0  0.20571  0.8679899999999999  0.34705  1.0000
  C   C27       1.0  0.08509  0.62325  0.11924  1.0000
  C   C28       1.0  0.8318600000000002  0.85119  0.58773  1.0000
  C   C29       1.0  0.6110399999999997  0.8401699999999999  0.66759  1.0000
  C   C30       1.0  0.7040000000000001  0.7337299999999999  0.6684199999999999  1.0000
  C   C31       1.0  0.9767100000000001  0.65098  0.59033  1.0000
  C   C32       1.0  0.07319000000000006  0.63863  0.48672  1.0000
  C   C33       1.0  0.010850000000000068  0.57722  0.6677  1.0000
  C   C34       1.0  0.4062500000000003  0.3012  0.57183  1.0000
  C   C35       1.0  0.6087200000000003  0.29161  0.44477  1.0000
  C   C36       1.0  0.50843  0.39012  0.43238  1.0000
  C   C37       1.0  0.24293000000000006  0.48179  0.53857  1.0000
  C   C38       1.0  0.20675  0.55416  0.46065  1.0000
  C   C39       1.0  0.14450999999999994  0.49312  0.64193  1.0000
  C   C40       1.0  0.22454000000000002  0.29333  0.014630000000000002  1.0000
  C   C41       1.0  0.008490000000000013  0.28437  0.11292999999999999  1.0000
  C   C42       1.0  0.10506999999999997  0.17975  0.11453  1.0000
  C   C43       1.0  0.37366  0.09278  0.02551  1.0000
  C   C44       1.0  0.4712  0.07615  0.9219199999999999  1.0000
  C   C45       1.0  0.40142  0.017339999999999998  0.10375999999999999  1.0000
  C   C46       1.0  0.15281000000000003  0.12122  0.69221  1.0000
  C   C47       1.0  0.049010000000000026  0.09291  0.65863  1.0000
  C   C48       1.0  0.9013600000000002  0.15572  0.69786  1.0000
  C   C49       1.0  0.85632  0.24569  0.77315  1.0000
  C   C50       1.0  0.9601  0.27694  0.80449  1.0000
  C   C51       1.0  0.10756000000000003  0.21403  0.76446  1.0000
  C   C52       1.0  0.31185999999999997  0.05729000000000001  0.64401  1.0000
  C   C53       1.0  0.79554  0.13019  0.65321  1.0000
  C   C54       1.0  0.9119500000000001  0.37647  0.88214  1.0000
  N   N1        1.0  0.30827  0.08709  0.3817  1.0000
  N   N2        1.0  0.15630000000000005  0.25855  0.38365  1.0000
  N   N3        1.0  0.45704999999999996  0.76302  0.46901  1.0000
  N   N4        1.0  0.62071  0.60396  0.4859800000000001  1.0000
  N   N5        1.0  0.9112600000000001  0.64525  0.95274  1.0000
  N   N6        1.0  0.75603  0.81434  0.9495300000000001  1.0000
  N   N7        1.0  0.6918700000000001  0.9124599999999999  0.61771  1.0000
  N   N8        1.0  0.84386  0.74124  0.61644  1.0000
  N   N9        1.0  0.54318  0.23718  0.53172  1.0000
  N   N10       1.0  0.3793000000000001  0.39589  0.51435  1.0000
  N   N11       1.0  0.0842  0.35444  0.05093  1.0000
  N   N12       1.0  0.24167  0.18577  0.051489999999999994  1.0000
  O   O1        1.0  0.5990199999999999  0.90574  0.32811  1.0000
  O   O2        1.0  0.6529  0.027569999999999997  0.41938  1.0000
  O   O3        1.0  0.16053000000000003  0.90466  0.44407  1.0000
  O   O4        1.0  0.33811  0.85216  0.28875  1.0000
  O   O5        1.0  0.21156  0.58788  0.0575  1.0000
  O   O6        1.0  0.97654  0.58184  0.12552  1.0000
  O   O7        1.0  0.40121  0.09431  0.6723199999999999  1.0000
  O   O8        1.0  0.34700000000000003  0.97307  0.58067  1.0000
  O   O9        1.0  0.83997  0.09497  0.55586  1.0000
  O   O10       1.0  0.6639500000000002  0.1438  0.71206  1.0000
  O   O11       1.0  0.78418  0.41192999999999996  0.94162  1.0000
  O   O12       1.0  0.019599999999999965  0.41769  0.87884  1.0000
