data_image0
_chemical_formula_structural       Ag4H56C40N16
_chemical_formula_sum              "Ag4 H56 C40 N16"
_cell_length_a       8.27547
_cell_length_b       8.25622
_cell_length_c       20.23826
_cell_angle_alpha    104.96582
_cell_angle_beta     104.06355
_cell_angle_gamma    85.32278

_symmetry_space_group_name_H-M    'P 1'
_symmetry_Int_Tables_number       1

loop_
  _symmetry_equiv_pos_as_xyz
  'x,y,z'

loop_
  _atom_site_type_symbol
  _atom_site_label
  _atom_site_symmetry_multiplicity
  _atom_site_fract_x
  _atom_site_fract_y
  _atom_site_fract_z
  _atom_site_occupancy
  Ag  Ag1       1.0  0.05751  0.07456  0.05992999999999998  1.0000
  Ag  Ag2       1.0  0.9244099999999995  0.95501  0.42981  1.0000
  Ag  Ag3       1.0  0.98304  0.9279099999999998  0.9301099999999999  1.0000
  Ag  Ag4       1.0  0.08313999999999996  0.046399999999999976  0.55819  1.0000
  H   H1        1.0  0.64623  0.67967  0.29479  1.0000
  H   H2        1.0  0.7545100000000001  0.18243  0.31661  1.0000
  H   H3        1.0  0.4546399999999998  0.09970999999999997  0.21599999999999997  1.0000
  H   H4        1.0  0.36550000000000005  0.7808  0.14139  1.0000
  H   H5        1.0  0.41284  0.62937  0.19151  1.0000
  H   H6        1.0  0.07194999999999999  0.81857  0.29543  1.0000
  H   H7        1.0  0.28221999999999997  0.87314  0.32710999999999996  1.0000
  H   H8        1.0  0.2906399999999999  0.19395999999999994  0.3540399999999999  1.0000
  H   H9        1.0  0.08761  0.5735299999999999  0.49572999999999995  1.0000
  H   H10       1.0  0.39021999999999973  0.4621299999999999  0.5670099999999998  1.0000
  H   H11       1.0  0.57743  0.15407  0.42774  1.0000
  H   H12       1.0  0.64006  0.30733  0.50699  1.0000
  H   H13       1.0  0.5242099999999997  0.86437  0.43231  1.0000
  H   H14       1.0  0.33078  0.95084  0.4508  1.0000
  H   H15       1.0  0.3128699999999998  0.3649  0.18456999999999996  1.0000
  H   H16       1.0  0.8494199999999997  0.19771  0.18809999999999996  1.0000
  H   H17       1.0  0.93363  0.48815  0.29713  1.0000
  H   H18       1.0  0.23415999999999995  0.61136  0.35511999999999994  1.0000
  H   H19       1.0  0.3775899999999999  0.57759  0.30013999999999996  1.0000
  H   H20       1.0  0.15883  0.92307  0.20742  1.0000
  H   H21       1.0  0.11537999999999994  0.7096  0.17272999999999997  1.0000
  H   H22       1.0  0.80982  0.71279  0.15030999999999997  1.0000
  H   H23       1.0  0.433  0.90728  0.009089999999999999  1.0000
  H   H24       1.0  0.5506  0.60353  0.93745  1.0000
  H   H25       1.0  0.8605799999999999  0.42741999999999997  0.07623999999999999  1.0000
  H   H26       1.0  0.7043199999999997  0.35588  2.9999999999999997e-05  1.0000
  H   H27       1.0  0.13964000000000001  0.48701000000000005  0.06685  1.0000
  H   H28       1.0  0.04641999999999996  0.67407  0.0451  1.0000
  H   H29       1.0  0.38004999999999994  0.3127599999999999  0.6837499999999999  1.0000
  H   H30       1.0  0.19566  0.85815  0.68775  1.0000
  H   H31       1.0  0.47803  0.94173  0.79771  1.0000
  H   H32       1.0  0.61654  0.23145000000000007  0.85453  1.0000
  H   H33       1.0  0.583  0.37985  0.80313  1.0000
  H   H34       1.0  0.90442  0.15198  0.69592  1.0000
  H   H35       1.0  0.6884999999999998  0.12684999999999996  0.66992  1.0000
  H   H36       1.0  0.68833  0.84853  0.65008  1.0000
  H   H37       1.0  0.9234599999999997  0.44676  0.5311  1.0000
  H   H38       1.0  0.6297999999999998  0.53455  0.44569999999999993  1.0000
  H   H39       1.0  0.4069499999999999  0.85845  0.5645399999999999  1.0000
  H   H40       1.0  0.36617999999999984  0.6965  0.48779999999999996  1.0000
  H   H41       1.0  0.49133999999999983  0.13495000000000004  0.56469  1.0000
  H   H42       1.0  0.6811599999999999  0.052849999999999876  0.5412899999999999  1.0000
  H   H43       1.0  0.6924699999999999  0.6713299999999999  0.7940699999999998  1.0000
  H   H44       1.0  0.2044999999999998  0.73111  0.8180199999999997  1.0000
  H   H45       1.0  0.10722999999999995  0.42488999999999993  0.7216699999999999  1.0000
  H   H46       1.0  0.77362  0.37763999999999986  0.64192  1.0000
  H   H47       1.0  0.63155  0.42912  0.69702  1.0000
  H   H48       1.0  0.82162  0.07248999999999996  0.79047  1.0000
  H   H49       1.0  0.8748899999999997  0.2846099999999998  0.8219299999999998  1.0000
  H   H50       1.0  0.19677999999999993  0.28456  0.85292  1.0000
  H   H51       1.0  0.57335  0.09487999999999998  0.9953099999999999  1.0000
  H   H52       1.0  0.4516800000000001  0.39624  0.06631  1.0000
  H   H53       1.0  0.13778  0.56934  0.92761  1.0000
  H   H54       1.0  0.29263  0.6447  0.0035699999999999994  1.0000
  H   H55       1.0  0.8655299999999996  0.5002199999999999  0.9355699999999998  1.0000
  H   H56       1.0  0.95358  0.3139299999999998  0.9596099999999999  1.0000
  C   C1        1.0  0.63875  0.80597  0.28798  1.0000
  C   C2        1.0  0.6866799999999997  0.06648999999999997  0.29734999999999995  1.0000
  C   C3        1.0  0.5379699999999997  0.028609999999999983  0.24857999999999997  1.0000
  C   C4        1.0  0.37266  0.76034  0.19358  1.0000
  C   C5        1.0  0.20313  0.79704  0.21316  1.0000
  C   C6        1.0  0.2717999999999999  0.28248999999999996  0.4015499999999999  1.0000
  C   C7        1.0  0.1716699999999999  0.47456999999999994  0.47663999999999995  1.0000
  C   C8        1.0  0.32086  0.42065  0.51322  1.0000
  C   C9        1.0  0.54652  0.21211999999999995  0.47858  1.0000
  C   C10       1.0  0.54939  0.0815999999999999  0.5199399999999997  1.0000
  C   C11       1.0  0.19837  0.35604  0.19998999999999997  1.0000
  C   C12       1.0  0.9573299999999997  0.27679999999999993  0.20370999999999995  1.0000
  C   C13       1.0  0.9939599999999998  0.42232  0.25588  1.0000
  C   C14       1.0  0.24717999999999998  0.61089  0.30228  1.0000
  C   C15       1.0  0.19767000000000004  0.78259  0.28668  1.0000
  C   C16       1.0  0.7238199999999996  0.73054  0.10287  1.0000
  C   C17       1.0  0.53326  0.82579  0.02808  1.0000
  C   C18       1.0  0.58911  0.6755399999999998  0.9913599999999998  1.0000
  C   C19       1.0  0.79791  0.45265  0.025399999999999992  1.0000
  C   C20       1.0  0.9227499999999997  0.44677000000000006  0.98062  1.0000
  C   C21       1.0  0.36542  0.19993  0.6988  1.0000
  C   C22       1.0  0.2774899999999999  0.9632599999999997  0.7026199999999998  1.0000
  C   C23       1.0  0.4194899999999998  0.99946  0.75567  1.0000
  C   C24       1.0  0.6142599999999999  0.24754999999999994  0.8021399999999999  1.0000
  C   C25       1.0  0.78307  0.19846  0.783  1.0000
  C   C26       1.0  0.71785  0.75176  0.60702  1.0000
  C   C27       1.0  0.8346899999999998  0.5473299999999999  0.54356  1.0000
  C   C28       1.0  0.6896899999999998  0.58808  0.49996  1.0000
  C   C29       1.0  0.45353  0.79657  0.51769  1.0000
  C   C30       1.0  0.46047  0.9215699999999998  0.47496  1.0000
  C   C31       1.0  0.8194199999999998  0.6496899999999999  0.7881599999999999  1.0000
  C   C32       1.0  0.08437000000000001  0.67207  0.79881  1.0000
  C   C33       1.0  0.038669999999999885  0.5210599999999999  0.7517699999999998  1.0000
  C   C34       1.0  0.75828  0.38094999999999984  0.6946499999999999  1.0000
  C   C35       1.0  0.7863999999999998  0.2058  0.70852  1.0000
  C   C36       1.0  0.28437  0.2694499999999999  0.90041  1.0000
  C   C37       1.0  0.47472000000000003  0.17656  0.97592  1.0000
  C   C38       1.0  0.4156500000000001  0.3255699999999999  0.012259999999999997  1.0000
  C   C39       1.0  0.2029899999999999  0.54419  0.9781  1.0000
  C   C40       1.0  0.07973  0.54295  0.02278  1.0000
  N   N1        1.0  0.7488899999999996  0.92599  0.32151999999999986  1.0000
  N   N2        1.0  0.50889  0.86245  0.24307  1.0000
  N   N3        1.0  0.14099999999999993  0.38619999999999993  0.40694999999999987  1.0000
  N   N4        1.0  0.38516999999999996  0.29954  0.46458  1.0000
  N   N5        1.0  0.08654999999999996  0.23636999999999997  0.16945999999999997  1.0000
  N   N6        1.0  0.14733000000000002  0.47186999999999996  0.25287  1.0000
  N   N7        1.0  0.6189599999999998  0.8602799999999999  0.09780999999999997  1.0000
  N   N8        1.0  0.70983  0.61454  0.039719999999999984  1.0000
  N   N9        1.0  0.2449399999999999  0.08956999999999993  0.6675699999999999  1.0000
  N   N10       1.0  0.4737399999999999  0.15076999999999982  0.7529699999999998  1.0000
  N   N11       1.0  0.8524399999999999  0.65149  0.6103299999999998  1.0000
  N   N12       1.0  0.61477  0.71755  0.5411299999999999  1.0000
  N   N13       1.0  0.9463199999999996  0.75152  0.8212599999999998  1.0000
  N   N14       1.0  0.86957  0.50855  0.74528  1.0000
  N   N15       1.0  0.3912199999999999  0.14141999999999982  0.9061299999999999  1.0000
  N   N16       1.0  0.29615999999999987  0.3855399999999998  0.96336  1.0000
