data_image0
_chemical_formula_structural       Ag6H48C56S8N12
_chemical_formula_sum              "Ag6 H48 C56 S8 N12"
_cell_length_a       10.31526
_cell_length_b       10.32159
_cell_length_c       15.25207
_cell_angle_alpha    87.51156000000002
_cell_angle_beta     87.40535
_cell_angle_gamma    98.80205

_symmetry_space_group_name_H-M    'P 1'
_symmetry_Int_Tables_number       1

loop_
  _symmetry_equiv_pos_as_xyz
  'x,y,z'

loop_
  _atom_site_type_symbol
  _atom_site_label
  _atom_site_symmetry_multiplicity
  _atom_site_fract_x
  _atom_site_fract_y
  _atom_site_fract_z
  _atom_site_occupancy
  Ag  Ag1       1.0  0.6143999999999998  0.3420799999999999  0.04396  1.0000
  Ag  Ag2       1.0  0.65819  0.38542  0.45613  1.0000
  Ag  Ag3       1.0  0.38559999999999994  0.6579299999999999  0.95604  1.0000
  Ag  Ag4       1.0  0.34180999999999995  0.61458  0.54387  1.0000
  Ag  Ag5       1.0  0.55708  0.44328  0.7499799999999998  1.0000
  Ag  Ag6       1.0  0.44292  0.55673  0.25002  1.0000
  H   H1        1.0  0.65707  0.15034  0.8031899999999997  1.0000
  H   H2        1.0  0.7093299999999999  0.25823  0.89276  1.0000
  H   H3        1.0  0.33241  0.1709  0.884  1.0000
  H   H4        1.0  0.08807999999999999  0.11618999999999999  0.87846  1.0000
  H   H5        1.0  0.9491799999999999  0.29170000000000007  0.9091899999999998  1.0000
  H   H6        1.0  0.06393999999999997  0.51404  0.94437  1.0000
  H   H7        1.0  0.57244  0.98261  0.7798  1.0000
  H   H8        1.0  0.40288  0.92322  0.79721  1.0000
  H   H9        1.0  0.8785099999999999  0.52179  0.82068  1.0000
  H   H10       1.0  0.047140000000000015  0.70886  0.86299  1.0000
  H   H11       1.0  0.9739500000000002  0.9280499999999998  0.88271  1.0000
  H   H12       1.0  0.74341  0.9535899999999999  0.86017  1.0000
  H   H13       1.0  0.8494399999999999  0.34273  0.6966899999999998  1.0000
  H   H14       1.0  0.74169  0.29028  0.60712  1.0000
  H   H15       1.0  0.82901  0.6678  0.6158099999999997  1.0000
  H   H16       1.0  0.88343  0.91202  0.62137  1.0000
  H   H17       1.0  0.70765  0.05050000000000001  0.59068  1.0000
  H   H18       1.0  0.4854499999999999  0.93548  0.55531  1.0000
  H   H19       1.0  0.017059999999999974  0.4274999999999999  0.72009  1.0000
  H   H20       1.0  0.07644999999999999  0.59695  0.70287  1.0000
  H   H21       1.0  0.47830999999999996  0.12167999999999997  0.67969  1.0000
  H   H22       1.0  0.29123  0.9528999999999999  0.63758  1.0000
  H   H23       1.0  0.07197  0.02594  0.61763  1.0000
  H   H24       1.0  0.04636  0.25648999999999994  0.63984  1.0000
  H   H25       1.0  0.34293  0.84967  0.19681  1.0000
  H   H26       1.0  0.29066999999999993  0.7417799999999999  0.10723999999999997  1.0000
  H   H27       1.0  0.6675899999999998  0.8291099999999998  0.11599999999999998  1.0000
  H   H28       1.0  0.91192  0.8838199999999999  0.12153999999999997  1.0000
  H   H29       1.0  0.05082000000000002  0.70831  0.09081  1.0000
  H   H30       1.0  0.9360599999999999  0.48597  0.05563  1.0000
  H   H31       1.0  0.42756  0.0174  0.22019999999999995  1.0000
  H   H32       1.0  0.59712  0.07678  0.20279  1.0000
  H   H33       1.0  0.12148999999999999  0.47822  0.17932  1.0000
  H   H34       1.0  0.9528599999999999  0.29115  0.13701  1.0000
  H   H35       1.0  0.02605  0.07195  0.11729  1.0000
  H   H36       1.0  0.25659  0.04641  0.13983  1.0000
  H   H37       1.0  0.15056  0.6572799999999999  0.30331  1.0000
  H   H38       1.0  0.25830999999999993  0.70973  0.39288  1.0000
  H   H39       1.0  0.17098999999999998  0.33221  0.38419  1.0000
  H   H40       1.0  0.11657  0.08798999999999998  0.37863  1.0000
  H   H41       1.0  0.29235  0.94951  0.40932  1.0000
  H   H42       1.0  0.51455  0.06453  0.44469  1.0000
  H   H43       1.0  0.9829399999999999  0.5725099999999999  0.27991  1.0000
  H   H44       1.0  0.92355  0.4030599999999999  0.2971299999999999  1.0000
  H   H45       1.0  0.52169  0.87833  0.32031  1.0000
  H   H46       1.0  0.70877  0.04711  0.36242  1.0000
  H   H47       1.0  0.92803  0.97406  0.38237  1.0000
  H   H48       1.0  0.95364  0.74352  0.36016  1.0000
  C   C1        1.0  0.5766099999999998  0.08413000000000001  0.9351099999999998  1.0000
  C   C2        1.0  0.50192  0.95899  0.91654  1.0000
  C   C3        1.0  0.65442  0.16675999999999994  0.87292  1.0000
  C   C4        1.0  0.32704  0.37292  0.91207  1.0000
  C   C5        1.0  0.26889  0.24386  0.8960699999999999  1.0000
  C   C6        1.0  0.13342  0.21430999999999997  0.8936799999999998  1.0000
  C   C7        1.0  0.05578999999999999  0.312  0.91  1.0000
  C   C8        1.0  0.11934999999999998  0.43531999999999993  0.92954  1.0000
  C   C9        1.0  0.5002799999999998  0.91761  0.82255  1.0000
  C   C10       1.0  0.85328  0.61957  0.82905  1.0000
  C   C11       1.0  0.94646  0.7229500000000001  0.8525599999999998  1.0000
  C   C12       1.0  0.9052799999999999  0.8445199999999998  0.8634999999999998  1.0000
  C   C13       1.0  0.77542  0.8592799999999999  0.85078  1.0000
  C   C14       1.0  0.6897499999999999  0.74961  0.82536  1.0000
  C   C15       1.0  0.9158299999999999  0.42321  0.56481  1.0000
  C   C16       1.0  0.04086999999999998  0.49803  0.58345  1.0000
  C   C17       1.0  0.8331199999999999  0.34531999999999996  0.62697  1.0000
  C   C18       1.0  0.62689  0.67284  0.58774  1.0000
  C   C19       1.0  0.7559499999999998  0.73114  0.60372  1.0000
  C   C20       1.0  0.78534  0.8665499999999999  0.60611  1.0000
  C   C21       1.0  0.68753  0.94395  0.5897799999999997  1.0000
  C   C22       1.0  0.56426  0.88027  0.57018  1.0000
  C   C23       1.0  0.08214999999999997  0.49963999999999986  0.6774  1.0000
  C   C24       1.0  0.3805399999999999  0.1469  0.67112  1.0000
  C   C25       1.0  0.27714999999999995  0.053609999999999956  0.64777  1.0000
  C   C26       1.0  0.15551999999999994  0.09469999999999999  0.63671  1.0000
  C   C27       1.0  0.14074  0.22457  0.64923  1.0000
  C   C28       1.0  0.25043  0.31035999999999997  0.6745  1.0000
  C   C29       1.0  0.42339  0.91588  0.06489  1.0000
  C   C30       1.0  0.49808  0.041019999999999994  0.08346  1.0000
  C   C31       1.0  0.34557999999999994  0.83325  0.12708  1.0000
  C   C32       1.0  0.67296  0.62709  0.08793  1.0000
  C   C33       1.0  0.7311099999999999  0.7561399999999998  0.10393  1.0000
  C   C34       1.0  0.86658  0.7857  0.10632  1.0000
  C   C35       1.0  0.94421  0.68801  0.09  1.0000
  C   C36       1.0  0.8806499999999999  0.56469  0.07046  1.0000
  C   C37       1.0  0.49972  0.08240000000000001  0.17744999999999997  1.0000
  C   C38       1.0  0.14671999999999996  0.38044  0.17095  1.0000
  C   C39       1.0  0.05354  0.27706  0.14744  1.0000
  C   C40       1.0  0.09472  0.15549  0.1365  1.0000
  C   C41       1.0  0.22457999999999997  0.14073  0.14922  1.0000
  C   C42       1.0  0.31025  0.2504  0.17464  1.0000
  C   C43       1.0  0.08416999999999998  0.5768  0.4351899999999999  1.0000
  C   C44       1.0  0.9591299999999999  0.50198  0.41654999999999986  1.0000
  C   C45       1.0  0.16688  0.65469  0.37302999999999986  1.0000
  C   C46       1.0  0.37310999999999994  0.32716999999999996  0.41226  1.0000
  C   C47       1.0  0.24404999999999993  0.26886999999999994  0.39628  1.0000
  C   C48       1.0  0.21465999999999996  0.13345  0.39389  1.0000
  C   C49       1.0  0.31247  0.05606  0.41021999999999986  1.0000
  C   C50       1.0  0.43574  0.11973999999999997  0.42982  1.0000
  C   C51       1.0  0.91785  0.50037  0.3226  1.0000
  C   C52       1.0  0.61946  0.85311  0.32888  1.0000
  C   C53       1.0  0.7228499999999998  0.9463999999999999  0.35223  1.0000
  C   C54       1.0  0.84448  0.90531  0.36329  1.0000
  C   C55       1.0  0.85926  0.77543  0.35077  1.0000
  C   C56       1.0  0.7495699999999998  0.6896399999999999  0.3255  1.0000
  S   S1        1.0  0.49589  0.42484  0.9052399999999998  1.0000
  S   S2        1.0  0.52264  0.74949  0.80308  1.0000
  S   S3        1.0  0.57504  0.50412  0.59474  1.0000
  S   S4        1.0  0.25041  0.47742999999999997  0.69671  1.0000
  S   S5        1.0  0.5041099999999998  0.57516  0.09476  1.0000
  S   S6        1.0  0.47735999999999995  0.25051999999999996  0.19691999999999996  1.0000
  S   S7        1.0  0.42495999999999995  0.49589  0.4052599999999999  1.0000
  S   S8        1.0  0.7495899999999998  0.5225799999999999  0.30329  1.0000
  N   N1        1.0  0.56886  0.12062  0.02251  1.0000
  N   N2        1.0  0.25085  0.4663399999999999  0.93129  1.0000
  N   N3        1.0  0.72846  0.6322999999999999  0.81499  1.0000
  N   N4        1.0  0.87949  0.43097  0.47743999999999986  1.0000
  N   N5        1.0  0.53338  0.74882  0.56848  1.0000
  N   N6        1.0  0.36784  0.27179  0.6848699999999998  1.0000
  N   N7        1.0  0.43114  0.87939  0.97748  1.0000
  N   N8        1.0  0.7491499999999999  0.53366  0.06870999999999997  1.0000
  N   N9        1.0  0.27154  0.3677099999999999  0.18501  1.0000
  N   N10       1.0  0.12051  0.56904  0.52256  1.0000
  N   N11       1.0  0.4666199999999999  0.25119  0.43152  1.0000
  N   N12       1.0  0.63216  0.72822  0.31513  1.0000
