data_image0
_chemical_formula_structural       Cu4H48C66O24
_chemical_formula_sum              "Cu4 H48 C66 O24"
_cell_length_a       11.15763
_cell_length_b       15.12679
_cell_length_c       28.45362
_cell_angle_alpha    86.77166000000001
_cell_angle_beta     80.95295
_cell_angle_gamma    68.62763

_symmetry_space_group_name_H-M    'P 1'
_symmetry_Int_Tables_number       1

loop_
  _symmetry_equiv_pos_as_xyz
  'x,y,z'

loop_
  _atom_site_type_symbol
  _atom_site_label
  _atom_site_symmetry_multiplicity
  _atom_site_fract_x
  _atom_site_fract_y
  _atom_site_fract_z
  _atom_site_occupancy
  Cu  Cu1       1.0  0.6089600000000002  0.9638299999999997  0.01048  1.0000
  Cu  Cu2       1.0  0.42628  0.96387  0.48954  1.0000
  Cu  Cu3       1.0  0.39104000000000005  0.03616  0.98952  1.0000
  Cu  Cu4       1.0  0.57372  0.03612  0.51046  1.0000
  H   H1        1.0  0.56061  0.77292  0.12828  1.0000
  H   H2        1.0  0.18605000000000016  0.8958999999999998  0.08264000000000003  1.0000
  H   H3        1.0  0.10105000000000006  0.7953999999999998  0.14153  1.0000
  H   H4        1.0  0.17579000000000003  0.52913  0.18166  1.0000
  H   H5        1.0  0.15488000000000007  0.4435699999999999  0.22557  1.0000
  H   H6        1.0  0.22141000000000002  0.27463  0.08434  1.0000
  H   H7        1.0  0.39796000000000015  0.5623199999999998  0.20943  1.0000
  H   H8        1.0  0.32249  0.6465  0.25727  1.0000
  H   H9        1.0  0.4778700000000001  0.6736099999999998  0.18745000000000003  1.0000
  H   H10       1.0  0.56537  0.29016  0.17164000000000004  1.0000
  H   H11       1.0  0.61628  0.16161999999999999  0.11154  1.0000
  H   H12       1.0  0.16821000000000003  0.4022  0.14415  1.0000
  H   H13       1.0  0.6666200000000001  0.7728199999999997  0.3714  1.0000
  H   H14       1.0  0.9174599999999999  0.89722  0.41765000000000013  1.0000
  H   H15       1.0  0.10327999999999994  0.79607  0.35932  1.0000
  H   H16       1.0  0.29287  0.52922  0.31922  1.0000
  H   H17       1.0  0.39912  0.44387  0.2753  1.0000
  H   H18       1.0  0.5044199999999996  0.27514  0.41515  1.0000
  H   H19       1.0  0.03928000000000005  0.5617999999999999  0.29154  1.0000
  H   H20       1.0  0.030550000000000084  0.6462899999999998  0.24391  1.0000
  H   H21       1.0  0.8491100000000001  0.6727999999999997  0.31281  1.0000
  H   H22       1.0  0.14374  0.2881399999999999  0.32928  1.0000
  H   H23       1.0  0.22287999999999997  0.15961999999999996  0.3888200000000001  1.0000
  H   H24       1.0  0.4283599999999999  0.4026899999999999  0.35595  1.0000
  H   H25       1.0  0.4394000000000001  0.22706999999999994  0.87172  1.0000
  H   H26       1.0  0.8139600000000001  0.10408999999999997  0.91736  1.0000
  H   H27       1.0  0.89896  0.20458999999999994  0.85847  1.0000
  H   H28       1.0  0.8242099999999999  0.47086  0.81834  1.0000
  H   H29       1.0  0.84512  0.5564199999999999  0.77444  1.0000
  H   H30       1.0  0.77859  0.7253599999999999  0.91566  1.0000
  H   H31       1.0  0.60205  0.43768  0.79057  1.0000
  H   H32       1.0  0.6775100000000002  0.3534899999999999  0.74273  1.0000
  H   H33       1.0  0.5221300000000002  0.3263799999999999  0.8125500000000001  1.0000
  H   H34       1.0  0.43464000000000014  0.7098399999999998  0.82836  1.0000
  H   H35       1.0  0.38372999999999996  0.83838  0.88846  1.0000
  H   H36       1.0  0.8317899999999999  0.5977899999999999  0.8558500000000002  1.0000
  H   H37       1.0  0.3333900000000001  0.22716999999999996  0.6286  1.0000
  H   H38       1.0  0.08254000000000006  0.10277  0.58235  1.0000
  H   H39       1.0  0.8967300000000001  0.20392  0.64068  1.0000
  H   H40       1.0  0.7071299999999999  0.47077  0.6807900000000002  1.0000
  H   H41       1.0  0.60089  0.5561199999999998  0.7247000000000002  1.0000
  H   H42       1.0  0.4955800000000002  0.7248499999999998  0.5848500000000001  1.0000
  H   H43       1.0  0.9607300000000002  0.4381899999999999  0.70847  1.0000
  H   H44       1.0  0.9694600000000001  0.3537  0.75609  1.0000
  H   H45       1.0  0.15089000000000008  0.32718999999999987  0.68719  1.0000
  H   H46       1.0  0.85627  0.7118599999999998  0.67072  1.0000
  H   H47       1.0  0.77713  0.84037  0.61118  1.0000
  H   H48       1.0  0.5716500000000003  0.5972999999999998  0.64405  1.0000
  C   C1        1.0  0.46009000000000005  0.7776099999999998  0.13141  1.0000
  C   C2        1.0  0.37879000000000007  0.8404099999999999  0.10164000000000001  1.0000
  C   C3        1.0  0.2485700000000001  0.8468099999999997  0.10572000000000002  1.0000
  C   C4        1.0  0.20137000000000008  0.7912099999999997  0.13824  1.0000
  C   C5        1.0  0.4276299999999999  0.89924  0.06571  1.0000
  C   C6        1.0  0.21659  0.48416  0.21126  1.0000
  C   C7        1.0  0.2958200000000001  0.27854999999999996  0.10371  1.0000
  C   C8        1.0  0.3047200000000001  0.6079499999999998  0.22908  1.0000
  C   C9        1.0  0.2841100000000001  0.7276499999999998  0.16755  1.0000
  C   C10       1.0  0.4136200000000001  0.72154  0.16454  1.0000
  C   C11       1.0  0.36422  0.35323999999999994  0.16174000000000005  1.0000
  C   C12       1.0  0.49111  0.2857699999999999  0.15227000000000002  1.0000
  C   C13       1.0  0.5190099999999999  0.21480999999999995  0.11898000000000003  1.0000
  C   C14       1.0  0.4215  0.21027999999999994  0.09435  1.0000
  C   C15       1.0  0.26615000000000005  0.34989999999999993  0.13733  1.0000
  C   C16       1.0  0.4507100000000001  0.13373  0.059200000000000016  1.0000
  C   C17       1.0  0.7623700000000002  0.7776499999999997  0.36857  1.0000
  C   C18       1.0  0.78078  0.84081  0.39841  1.0000
  C   C19       1.0  0.9043600000000002  0.8476399999999998  0.39459  1.0000
  C   C20       1.0  0.00721  0.7918  0.3623900000000001  1.0000
  C   C21       1.0  0.6737599999999996  0.8995399999999999  0.43439  1.0000
  C   C22       1.0  0.29711  0.4841799999999999  0.2895100000000001  1.0000
  C   C23       1.0  0.4257099999999999  0.27838999999999997  0.3961400000000001  1.0000
  C   C24       1.0  0.08692000000000001  0.60772  0.27193  1.0000
  C   C25       1.0  0.9882399999999999  0.72766  0.3331500000000001  1.0000
  C   C26       1.0  0.8650500000000001  0.7212599999999998  0.3357300000000001  1.0000
  C   C27       1.0  0.28126  0.3527  0.33867  1.0000
  C   C28       1.0  0.22268000000000002  0.2843699999999999  0.34828000000000003  1.0000
  C   C29       1.0  0.26649999999999985  0.21339999999999995  0.38133  1.0000
  C   C30       1.0  0.36872000000000005  0.20943999999999993  0.40567  1.0000
  C   C31       1.0  0.3831  0.34984  0.36274000000000006  1.0000
  C   C32       1.0  0.4154999999999999  0.13276  0.44071  1.0000
  C   C33       1.0  0.5399199999999998  0.22237999999999994  0.8686  1.0000
  C   C34       1.0  0.62121  0.15958  0.89837  1.0000
  C   C35       1.0  0.7514399999999999  0.15318  0.8942900000000003  1.0000
  C   C36       1.0  0.7986399999999998  0.20877999999999997  0.8617600000000001  1.0000
  C   C37       1.0  0.5723799999999999  0.10074999999999999  0.9343000000000001  1.0000
  C   C38       1.0  0.7834200000000001  0.51583  0.7887400000000001  1.0000
  C   C39       1.0  0.7041799999999998  0.72145  0.89629  1.0000
  C   C40       1.0  0.6952900000000001  0.39204  0.77092  1.0000
  C   C41       1.0  0.71589  0.27233999999999997  0.83245  1.0000
  C   C42       1.0  0.5863900000000001  0.2784499999999999  0.8354700000000003  1.0000
  C   C43       1.0  0.6357900000000001  0.6467499999999998  0.83826  1.0000
  C   C44       1.0  0.5089  0.71422  0.84774  1.0000
  C   C45       1.0  0.4809999999999999  0.78518  0.88102  1.0000
  C   C46       1.0  0.57851  0.78971  0.90565  1.0000
  C   C47       1.0  0.73385  0.65009  0.86267  1.0000
  C   C48       1.0  0.5492900000000003  0.8662599999999998  0.9408  1.0000
  C   C49       1.0  0.23763000000000017  0.22233999999999998  0.63143  1.0000
  C   C50       1.0  0.21922  0.15917999999999993  0.60159  1.0000
  C   C51       1.0  0.09564999999999999  0.15235  0.60541  1.0000
  C   C52       1.0  0.9928  0.20818999999999993  0.6376200000000002  1.0000
  C   C53       1.0  0.32623999999999986  0.10045  0.56561  1.0000
  C   C54       1.0  0.7028899999999999  0.5158099999999999  0.7104900000000002  1.0000
  C   C55       1.0  0.5742999999999999  0.7215999999999999  0.6038600000000002  1.0000
  C   C56       1.0  0.91309  0.39227  0.72807  1.0000
  C   C57       1.0  0.011759999999999915  0.27233  0.6668500000000002  1.0000
  C   C58       1.0  0.13496  0.27873  0.66427  1.0000
  C   C59       1.0  0.7187500000000001  0.6472899999999999  0.6613300000000002  1.0000
  C   C60       1.0  0.7773300000000001  0.7156199999999998  0.6517200000000002  1.0000
  C   C61       1.0  0.7335099999999996  0.78659  0.61867  1.0000
  C   C62       1.0  0.63128  0.79055  0.5943300000000001  1.0000
  C   C63       1.0  0.6169099999999998  0.65015  0.6372700000000002  1.0000
  C   C64       1.0  0.5845  0.8672299999999997  0.55929  1.0000
  C   C65       1.0  0.2261999999999999  0.54632  0.25041  1.0000
  C   C66       1.0  0.7738  0.45367  0.7495900000000001  1.0000
  O   O1        1.0  0.34483  0.9556699999999998  0.04076000000000001  1.0000
  O   O2        1.0  0.5481  0.88912  0.06181  1.0000
  O   O3        1.0  0.56485  0.06925999999999997  0.05512  1.0000
  O   O4        1.0  0.3597  0.13763  0.03565  1.0000
  O   O5        1.0  0.2282900000000001  0.6744199999999998  0.19744  1.0000
  O   O6        1.0  0.34651  0.4199199999999999  0.1954  1.0000
  O   O7        1.0  0.7012700000000001  0.9559299999999997  0.4593000000000001  1.0000
  O   O8        1.0  0.56338  0.8892799999999997  0.43835  1.0000
  O   O9        1.0  0.36462999999999995  0.0685  0.4448900000000001  1.0000
  O   O10       1.0  0.5030399999999999  0.13632  0.4641500000000001  1.0000
  O   O11       1.0  0.09754000000000002  0.67406  0.30375  1.0000
  O   O12       1.0  0.23126000000000002  0.4194699999999999  0.30522  1.0000
  O   O13       1.0  0.65518  0.044319999999999984  0.95925  1.0000
  O   O14       1.0  0.4518999999999999  0.11087  0.9381900000000002  1.0000
  O   O15       1.0  0.43514999999999987  0.9307399999999998  0.94488  1.0000
  O   O16       1.0  0.6403  0.8623699999999997  0.96435  1.0000
  O   O17       1.0  0.77171  0.3255699999999999  0.8025600000000002  1.0000
  O   O18       1.0  0.6534900000000001  0.5800699999999998  0.8046  1.0000
  O   O19       1.0  0.2987399999999999  0.04406  0.5407  1.0000
  O   O20       1.0  0.43663  0.11071  0.56166  1.0000
  O   O21       1.0  0.6353800000000001  0.9314899999999998  0.55512  1.0000
  O   O22       1.0  0.4969700000000001  0.8636699999999998  0.53585  1.0000
  O   O23       1.0  0.90246  0.32592999999999994  0.6962500000000001  1.0000
  O   O24       1.0  0.7687499999999999  0.58052  0.69479  1.0000
