data_image0
_chemical_formula_structural       Mn4H40C56O24
_chemical_formula_sum              "Mn4 H40 C56 O24"
_cell_length_a       9.31935
_cell_length_b       12.99216
_cell_length_c       16.255560000000003
_cell_angle_alpha    66.31981
_cell_angle_beta     89.13154000000002
_cell_angle_gamma    88.01063

_space_group_name_H-M_alt    "P 1"
_space_group_IT_number       1

loop_
  _space_group_symop_operation_xyz
  'x, y, z'

loop_
  _atom_site_type_symbol
  _atom_site_label
  _atom_site_symmetry_multiplicity
  _atom_site_fract_x
  _atom_site_fract_y
  _atom_site_fract_z
  _atom_site_occupancy
  Mn  Mn1       1.0  0.5  0.5  0.0  1.0000
  Mn  Mn2       1.0  0.0  0.5  0.0  1.0000
  Mn  Mn3       1.0  0.74982  0.4137700000000001  0.16949999999999996  1.0000
  Mn  Mn4       1.0  0.25018  0.5862200000000001  0.8304999999999998  1.0000
  H   H1        1.0  0.90514  0.7656300000000001  0.9569099999999998  1.0000
  H   H2        1.0  0.86774  0.75971  0.06467999999999997  1.0000
  H   H3        1.0  0.67326  0.73721  0.14328  1.0000
  H   H4        1.0  0.63444  0.016790000000000097  0.8407999999999998  1.0000
  H   H5        1.0  0.50792  0.80378  0.23168  1.0000
  H   H6        1.0  0.27418000000000003  0.4566700000000001  0.2766599999999999  1.0000
  H   H7        1.0  0.28112  0.59835  0.19853999999999994  1.0000
  H   H8        1.0  0.46049  0.34206  0.36338  1.0000
  H   H9        1.0  0.38638999999999996  0.7034300000000001  0.3755299999999999  1.0000
  H   H10       1.0  0.56612  0.22033  0.51028  1.0000
  H   H11       1.0  0.5944200000000001  0.27701000000000015  0.9567499999999998  1.0000
  H   H12       1.0  0.63131  0.17421  0.0645  1.0000
  H   H13       1.0  0.82623  0.11933000000000002  0.14295999999999998  1.0000
  H   H14       1.0  0.86529  0.14233  0.84093  1.0000
  H   H15       1.0  0.9921100000000002  0.96459  0.23152  1.0000
  H   H16       1.0  0.22635000000000002  0.26624  0.2759899999999999  1.0000
  H   H17       1.0  0.22000000000000003  0.20233000000000004  0.19846  1.0000
  H   H18       1.0  0.04049000000000001  0.2947200000000001  0.36237999999999987  1.0000
  H   H19       1.0  0.11355000000000001  0.9205  0.37602999999999986  1.0000
  H   H20       1.0  0.93458  0.26997000000000015  0.5091099999999997  1.0000
  H   H21       1.0  0.09485999999999999  0.23437  0.04308999999999999  1.0000
  H   H22       1.0  0.13226  0.24028000000000013  0.9353199999999998  1.0000
  H   H23       1.0  0.32674  0.26278000000000007  0.8567199999999999  1.0000
  H   H24       1.0  0.36556000000000005  0.9832  0.1592  1.0000
  H   H25       1.0  0.4920900000000001  0.19621000000000005  0.76832  1.0000
  H   H26       1.0  0.72582  0.5433200000000001  0.7233399999999998  1.0000
  H   H27       1.0  0.7188800000000002  0.4016400000000001  0.80146  1.0000
  H   H28       1.0  0.53951  0.65794  0.63662  1.0000
  H   H29       1.0  0.61361  0.29657000000000017  0.6244699999999997  1.0000
  H   H30       1.0  0.43388000000000004  0.77966  0.4897199999999999  1.0000
  H   H31       1.0  0.40558000000000005  0.7229799999999998  0.04324999999999998  1.0000
  H   H32       1.0  0.36869  0.8257900000000001  0.9355  1.0000
  H   H33       1.0  0.17377000000000006  0.8806700000000002  0.8570399999999998  1.0000
  H   H34       1.0  0.13471  0.85766  0.15907  1.0000
  H   H35       1.0  0.007890000000000001  0.03540000000000001  0.76848  1.0000
  H   H36       1.0  0.77366  0.73375  0.72401  1.0000
  H   H37       1.0  0.7800000000000002  0.79766  0.80154  1.0000
  H   H38       1.0  0.95951  0.70528  0.6376199999999999  1.0000
  H   H39       1.0  0.88645  0.07950000000000006  0.6239699999999998  1.0000
  H   H40       1.0  0.06541999999999996  0.7300300000000002  0.4908899999999999  1.0000
  C   C1        1.0  0.81737  0.7574900000000001  0.004709999999999999  1.0000
  C   C2        1.0  0.62985  0.87926  0.01804  1.0000
  C   C3        1.0  0.46084  0.49522  0.19306999999999994  1.0000
  C   C4        1.0  0.54816  0.98162  0.9734599999999998  1.0000
  C   C5        1.0  0.7519  0.64416  0.028179999999999993  1.0000
  C   C6        1.0  0.61416  0.8163999999999999  0.10933  1.0000
  C   C7        1.0  0.56056  0.04606000000000013  0.8796499999999998  1.0000
  C   C8        1.0  0.51864  0.85481  0.16013999999999995  1.0000
  C   C9        1.0  0.46996  0.53628  0.45745  1.0000
  C   C10       1.0  0.34574  0.52831  0.2466  1.0000
  C   C11       1.0  0.44660000000000005  0.48966  0.39274  1.0000
  C   C12       1.0  0.47749  0.37726000000000004  0.4125799999999999  1.0000
  C   C13       1.0  0.43499  0.6505  0.43953  1.0000
  C   C14       1.0  0.53813  0.30765  0.49669  1.0000
  C   C15       1.0  0.6818799999999999  0.23685  0.0045699999999999985  1.0000
  C   C16       1.0  0.86981  0.1024  0.01797  1.0000
  C   C17       1.0  0.03955000000000003  0.31040000000000006  0.19282999999999995  1.0000
  C   C18       1.0  0.95174  0.044800000000000076  0.9734599999999998  1.0000
  C   C19       1.0  0.74762  0.32628  0.02825  1.0000
  C   C20       1.0  0.8855100000000001  0.07403000000000003  0.10918999999999997  1.0000
  C   C21       1.0  0.9393  0.07421000000000003  0.87971  1.0000
  C   C22       1.0  0.9813300000000001  0.98499  0.16003  1.0000
  C   C23       1.0  0.030120000000000008  0.00611000000000001  0.45754999999999996  1.0000
  C   C24       1.0  0.155  0.22429000000000002  0.24632999999999994  1.0000
  C   C25       1.0  0.05382  0.11738999999999997  0.39253  1.0000
  C   C26       1.0  0.023169999999999993  0.21028000000000005  0.41184999999999994  1.0000
  C   C27       1.0  0.06495000000000002  0.90959  0.44000999999999996  1.0000
  C   C28       1.0  0.9623500000000001  0.19605000000000009  0.4958599999999999  1.0000
  C   C29       1.0  0.18263000000000001  0.2425  0.99529  1.0000
  C   C30       1.0  0.37015000000000003  0.1207400000000001  0.9819599999999998  1.0000
  C   C31       1.0  0.53916  0.5047700000000002  0.8069299999999998  1.0000
  C   C32       1.0  0.45184  0.01837  0.02654  1.0000
  C   C33       1.0  0.24810000000000004  0.3558400000000001  0.9718199999999998  1.0000
  C   C34       1.0  0.38584  0.18359000000000011  0.8906699999999997  1.0000
  C   C35       1.0  0.43944000000000005  0.95393  0.12035  1.0000
  C   C36       1.0  0.48137  0.14519000000000004  0.83986  1.0000
  C   C37       1.0  0.53004  0.46371999999999997  0.54255  1.0000
  C   C38       1.0  0.65426  0.47168000000000015  0.7533899999999998  1.0000
  C   C39       1.0  0.5534  0.5103399999999999  0.60726  1.0000
  C   C40       1.0  0.52251  0.6227400000000001  0.58742  1.0000
  C   C41       1.0  0.56501  0.3494999999999999  0.56046  1.0000
  C   C42       1.0  0.46188  0.69234  0.5033  1.0000
  C   C43       1.0  0.31812000000000007  0.7631400000000002  0.9954199999999997  1.0000
  C   C44       1.0  0.13018999999999997  0.8976000000000002  0.9820299999999997  1.0000
  C   C45       1.0  0.9604500000000001  0.6896000000000001  0.8071699999999998  1.0000
  C   C46       1.0  0.04826  0.95519  0.02654  1.0000
  C   C47       1.0  0.25238  0.67371  0.9717499999999998  1.0000
  C   C48       1.0  0.11448999999999998  0.92597  0.89081  1.0000
  C   C49       1.0  0.06071000000000001  0.92579  0.12028999999999997  1.0000
  C   C50       1.0  0.01867  0.014999999999999975  0.83997  1.0000
  C   C51       1.0  0.9698800000000001  0.99389  0.5424499999999998  1.0000
  C   C52       1.0  0.845  0.7757000000000002  0.7536699999999997  1.0000
  C   C53       1.0  0.94618  0.8826100000000002  0.6074699999999997  1.0000
  C   C54       1.0  0.97683  0.78971  0.58815  1.0000
  C   C55       1.0  0.93505  0.09040000000000006  0.5599899999999998  1.0000
  C   C56       1.0  0.037649999999999996  0.80395  0.50414  1.0000
  O   O1        1.0  0.41416  0.48399999999999993  0.12449999999999997  1.0000
  O   O2        1.0  0.6278  0.63597  0.00398  1.0000
  O   O3        1.0  0.72072  0.85012  0.96272  1.0000
  O   O4        1.0  0.8370600000000002  0.55838  0.07432  1.0000
  O   O5        1.0  0.5912  0.47927  0.22067  1.0000
  O   O6        1.0  0.3935  0.5666000000000001  0.3117199999999999  1.0000
  O   O7        1.0  0.08586  0.39087000000000005  0.12423999999999999  1.0000
  O   O8        1.0  0.87171  0.35894000000000004  0.00401  1.0000
  O   O9        1.0  0.77877  0.18657000000000018  0.9625499999999998  1.0000
  O   O10       1.0  0.66209  0.36509  0.07469  1.0000
  O   O11       1.0  0.90915  0.29769000000000007  0.22054999999999994  1.0000
  O   O12       1.0  0.10703  0.12092000000000004  0.3117999999999999  1.0000
  O   O13       1.0  0.58584  0.5160000000000002  0.8754999999999997  1.0000
  O   O14       1.0  0.3722  0.36402000000000007  0.9960199999999998  1.0000
  O   O15       1.0  0.27928  0.14987  0.03727999999999999  1.0000
  O   O16       1.0  0.16294000000000003  0.4416200000000001  0.9256799999999997  1.0000
  O   O17       1.0  0.40881  0.5207200000000001  0.7793299999999997  1.0000
  O   O18       1.0  0.6065  0.43340000000000006  0.68828  1.0000
  O   O19       1.0  0.91414  0.60913  0.8757599999999998  1.0000
  O   O20       1.0  0.12828999999999996  0.6410500000000001  0.9959899999999998  1.0000
  O   O21       1.0  0.22123  0.81342  0.03745  1.0000
  O   O22       1.0  0.33791  0.63491  0.92531  1.0000
  O   O23       1.0  0.09085000000000001  0.7023100000000003  0.7794499999999998  1.0000
  O   O24       1.0  0.8929700000000003  0.8790699999999999  0.6882  1.0000
