data_image0
_chemical_formula_structural       Gd4H30C48N6O24
_chemical_formula_sum              "Gd4 H30 C48 N6 O24"
_cell_length_a       10.56026
_cell_length_b       11.336559999999999
_cell_length_c       14.66788
_cell_angle_alpha    113.14523
_cell_angle_beta     106.59549
_cell_angle_gamma    93.70675000000001

_space_group_name_H-M_alt    "P 1"
_space_group_IT_number       1

loop_
  _space_group_symop_operation_xyz
  'x, y, z'

loop_
  _atom_site_type_symbol
  _atom_site_label
  _atom_site_symmetry_multiplicity
  _atom_site_fract_x
  _atom_site_fract_y
  _atom_site_fract_z
  _atom_site_occupancy
  Gd  Gd1       1.0  0.30483  0.5133000000000001  0.92307  1.0000
  Gd  Gd2       1.0  0.2112699999999999  0.35232  0.62152  1.0000
  Gd  Gd3       1.0  0.6951799999999999  0.4867  0.07693  1.0000
  Gd  Gd4       1.0  0.7887299999999999  0.64767  0.37848  1.0000
  H   H1        1.0  0.91288  0.64216  0.02268  1.0000
  H   H2        1.0  0.75682  0.6739200000000001  0.00352  1.0000
  H   H3        1.0  0.13436  0.84785  0.50349  1.0000
  H   H4        1.0  0.16781  0.01762000000000001  0.56215  1.0000
  H   H5        1.0  0.5906500000000001  0.07111000000000008  0.4299500000000001  1.0000
  H   H6        1.0  0.49533  0.17662  0.49352  1.0000
  H   H7        1.0  0.52934  0.3572800000000001  0.64115  1.0000
  H   H8        1.0  0.72408  0.31495  0.57762  1.0000
  H   H9        1.0  0.9936200000000002  0.5425000000000002  0.8956500000000002  1.0000
  H   H10       1.0  0.35165  0.12992  0.92783  1.0000
  H   H11       1.0  0.35604  0.91202  0.93382  1.0000
  H   H12       1.0  0.1935300000000001  0.72284  0.59534  1.0000
  H   H13       1.0  0.041809999999999986  0.013459999999999998  0.27236  1.0000
  H   H14       1.0  0.05154  0.8230100000000001  0.11415  1.0000
  H   H15       1.0  0.48164  0.8922600000000003  0.25759  1.0000
  H   H16       1.0  0.08713  0.35783  0.97732  1.0000
  H   H17       1.0  0.24318999999999988  0.3260700000000001  0.99648  1.0000
  H   H18       1.0  0.86565  0.15214  0.49651  1.0000
  H   H19       1.0  0.8322000000000002  0.9823800000000001  0.4378500000000001  1.0000
  H   H20       1.0  0.40935999999999995  0.9288900000000001  0.57005  1.0000
  H   H21       1.0  0.50468  0.82338  0.50648  1.0000
  H   H22       1.0  0.47067  0.64272  0.35885  1.0000
  H   H23       1.0  0.27593  0.68505  0.42238  1.0000
  H   H24       1.0  0.006390000000000007  0.45749000000000006  0.10435  1.0000
  H   H25       1.0  0.64836  0.87007  0.07217  1.0000
  H   H26       1.0  0.64397  0.08798  0.06618  1.0000
  H   H27       1.0  0.80647  0.27716  0.40466  1.0000
  H   H28       1.0  0.9582  0.9865400000000001  0.72764  1.0000
  H   H29       1.0  0.94847  0.17699  0.88585  1.0000
  H   H30       1.0  0.51836  0.10772999999999999  0.74241  1.0000
  C   C1        1.0  0.53059  0.48354  0.83655  1.0000
  C   C2        1.0  0.65041  0.47212  0.8033  1.0000
  C   C3        1.0  0.63166  0.3975  0.69615  1.0000
  C   C4        1.0  0.7397100000000001  0.37262  0.66052  1.0000
  C   C5        1.0  0.8711599999999999  0.42222  0.73388  1.0000
  C   C6        1.0  0.9894999999999999  0.3944000000000001  0.6997400000000001  1.0000
  C   C7        1.0  0.89182  0.49956  0.83985  1.0000
  C   C8        1.0  0.78348  0.52727  0.87605  1.0000
  C   C9        1.0  0.25626  0.18101000000000012  0.76321  1.0000
  C   C10       1.0  0.26631  0.049839999999999995  0.75944  1.0000
  C   C11       1.0  0.31514  0.03934999999999998  0.85581  1.0000
  C   C12       1.0  0.31891  0.9194900000000001  0.85953  1.0000
  C   C13       1.0  0.27224  0.80459  0.76394  1.0000
  C   C14       1.0  0.27013  0.67281  0.76392  1.0000
  C   C15       1.0  0.22787000000000007  0.8123900000000002  0.6681300000000001  1.0000
  C   C16       1.0  0.22594999999999998  0.93376  0.66284  1.0000
  C   C17       1.0  0.24116000000000004  0.17535000000000003  0.44042  1.0000
  C   C18       1.0  0.25554  0.06274000000000003  0.353  1.0000
  C   C19       1.0  0.13727  0.9853700000000002  0.26779  1.0000
  C   C20       1.0  0.1421  0.8790600000000002  0.1811  1.0000
  C   C21       1.0  0.26814  0.8462100000000002  0.17863000000000004  1.0000
  C   C22       1.0  0.27765  0.7322100000000001  0.0868  1.0000
  C   C23       1.0  0.38586999999999994  0.9193900000000002  0.26189  1.0000
  C   C24       1.0  0.38392  0.030060000000000007  0.35073  1.0000
  C   C25       1.0  0.46940999999999994  0.51646  0.16345  1.0000
  C   C26       1.0  0.3496  0.52787  0.1967  1.0000
  C   C27       1.0  0.36835  0.60249  0.30385  1.0000
  C   C28       1.0  0.26029  0.62737  0.33948  1.0000
  C   C29       1.0  0.12885  0.57777  0.26612  1.0000
  C   C30       1.0  0.010500000000000004  0.6055900000000001  0.30026  1.0000
  C   C31       1.0  0.10818  0.50043  0.16015  1.0000
  C   C32       1.0  0.21653  0.47272000000000003  0.12395  1.0000
  C   C33       1.0  0.7437499999999999  0.81899  0.23679  1.0000
  C   C34       1.0  0.73369  0.9501500000000003  0.24056000000000002  1.0000
  C   C35       1.0  0.68486  0.96064  0.14419  1.0000
  C   C36       1.0  0.6811  0.08051  0.14047  1.0000
  C   C37       1.0  0.72777  0.19541  0.23606000000000002  1.0000
  C   C38       1.0  0.72988  0.32718  0.23608  1.0000
  C   C39       1.0  0.7721399999999999  0.18761000000000005  0.33187  1.0000
  C   C40       1.0  0.7740599999999997  0.06624  0.33716  1.0000
  C   C41       1.0  0.75885  0.82465  0.55958  1.0000
  C   C42       1.0  0.7444700000000003  0.93726  0.6470000000000001  1.0000
  C   C43       1.0  0.86274  0.014619999999999998  0.73221  1.0000
  C   C44       1.0  0.8578999999999999  0.12092999999999998  0.8189  1.0000
  C   C45       1.0  0.7318599999999997  0.1537900000000001  0.82137  1.0000
  C   C46       1.0  0.72236  0.26779  0.9132  1.0000
  C   C47       1.0  0.61414  0.08060000000000007  0.7381100000000002  1.0000
  C   C48       1.0  0.61609  0.9699400000000002  0.64927  1.0000
  N   N1        1.0  0.81208  0.60251  0.98521  1.0000
  N   N2        1.0  0.19269000000000008  0.9332600000000001  0.56443  1.0000
  N   N3        1.0  0.50169  0.10130000000000002  0.42930000000000007  1.0000
  N   N4        1.0  0.18793000000000004  0.39749  0.014790000000000001  1.0000
  N   N5        1.0  0.8073199999999999  0.06673  0.43557  1.0000
  N   N6        1.0  0.49832  0.89869  0.5707  1.0000
  O   O1        1.0  0.54372  0.54117  0.93492  1.0000
  O   O2        1.0  0.412  0.4348300000000001  0.76827  1.0000
  O   O3        1.0  0.10806999999999993  0.4284700000000001  0.7696  1.0000
  O   O4        1.0  0.97484  0.3375  0.60184  1.0000
  O   O5        1.0  0.28652  0.27985  0.85183  1.0000
  O   O6        1.0  0.21386999999999998  0.18983000000000003  0.67431  1.0000
  O   O7        1.0  0.30624  0.6667300000000002  0.85207  1.0000
  O   O8        1.0  0.23128  0.5722000000000002  0.67354  1.0000
  O   O9        1.0  0.12360000000000002  0.19659999999999997  0.44386000000000003  1.0000
  O   O10       1.0  0.34664999999999996  0.25571  0.5184  1.0000
  O   O11       1.0  0.3939  0.70769  0.08487  1.0000
  O   O12       1.0  0.17005  0.65756  0.01124  1.0000
  O   O13       1.0  0.45629000000000003  0.4588300000000001  0.06508  1.0000
  O   O14       1.0  0.58801  0.56516  0.23173  1.0000
  O   O15       1.0  0.89194  0.57152  0.2304  1.0000
  O   O16       1.0  0.02517000000000002  0.66249  0.39816  1.0000
  O   O17       1.0  0.71349  0.72014  0.14817  1.0000
  O   O18       1.0  0.78614  0.8101700000000001  0.32569  1.0000
  O   O19       1.0  0.6937699999999999  0.33327  0.14793  1.0000
  O   O20       1.0  0.7687300000000001  0.42779  0.32646  1.0000
  O   O21       1.0  0.87641  0.8034  0.55614  1.0000
  O   O22       1.0  0.6533599999999998  0.7442900000000001  0.4816  1.0000
  O   O23       1.0  0.60611  0.29231  0.91513  1.0000
  O   O24       1.0  0.82996  0.34243  0.98876  1.0000
