data_image0
_chemical_formula_structural       Nd8H20C56N12O48
_chemical_formula_sum              "Nd8 H20 C56 N12 O48"
_cell_length_a       9.3864
_cell_length_b       9.5694
_cell_length_c       22.39804
_cell_angle_alpha    89.86469
_cell_angle_beta     89.87765
_cell_angle_gamma    96.29887999999998

_symmetry_space_group_name_H-M    'P 1'
_symmetry_Int_Tables_number       1

loop_
  _symmetry_equiv_pos_as_xyz
  'x,y,z'

loop_
  _atom_site_type_symbol
  _atom_site_label
  _atom_site_symmetry_multiplicity
  _atom_site_fract_x
  _atom_site_fract_y
  _atom_site_fract_z
  _atom_site_occupancy
  Nd  Nd1       1.0  0.73583  0.97605  0.71569  1.0000
  Nd  Nd2       1.0  0.27033  0.14224  0.5705900000000002  1.0000
  Nd  Nd3       1.0  0.25839  0.53133  0.21863  1.0000
  Nd  Nd4       1.0  0.72588  0.36104  0.07278000000000001  1.0000
  Nd  Nd5       1.0  0.26463  0.02316  0.28154  1.0000
  Nd  Nd6       1.0  0.72618  0.8607299999999999  0.42689000000000005  1.0000
  Nd  Nd7       1.0  0.73565  0.4760400000000001  0.78155  1.0000
  Nd  Nd8       1.0  0.27051  0.6422  0.92727  1.0000
  H   H1        1.0  0.46840999999999994  0.70972  0.5617700000000001  1.0000
  H   H2        1.0  0.26745  0.71512  0.4945200000000001  1.0000
  H   H3        1.0  0.10136  0.67971  0.40809000000000006  1.0000
  H   H4        1.0  0.013359999999999997  0.43069  0.37689000000000006  1.0000
  H   H5        1.0  0.08767  0.23247000000000004  0.43649  1.0000
  H   H6        1.0  0.53093  0.79181  0.06139  1.0000
  H   H7        1.0  0.73227  0.78718  0.99479  1.0000
  H   H8        1.0  0.8983999999999999  0.82301  0.90815  1.0000
  H   H9        1.0  0.9867900000000001  0.07239  0.8766800000000001  1.0000
  H   H10       1.0  0.9134000000000001  0.27011  0.9365  1.0000
  H   H11       1.0  0.53101  0.29188  0.43729  1.0000
  H   H12       1.0  0.732  0.2867  0.50485  1.0000
  H   H13       1.0  0.8975500000000001  0.32223  0.5914000000000001  1.0000
  H   H14       1.0  0.9852799999999999  0.57141  0.62259  1.0000
  H   H15       1.0  0.91248  0.76928  0.56254  1.0000
  H   H16       1.0  0.47015  0.21068999999999996  0.9374000000000001  1.0000
  H   H17       1.0  0.26835  0.21585  0.00538  1.0000
  H   H18       1.0  0.10153  0.17949  0.09182  1.0000
  H   H19       1.0  0.01312000000000001  0.9300100000000001  0.12301  1.0000
  H   H20       1.0  0.08662  0.73271  0.06294000000000001  1.0000
  C   C1        1.0  0.53273  0.56682  0.62758  1.0000
  C   C2        1.0  0.49792000000000003  0.42039000000000004  0.63113  1.0000
  C   C3        1.0  0.36677  0.49814  0.56026  1.0000
  C   C4        1.0  0.26641  0.49141  0.5103600000000001  1.0000
  C   C5        1.0  0.22745  0.60953  0.48019000000000006  1.0000
  C   C6        1.0  0.13453  0.58907  0.43159  1.0000
  C   C7        1.0  0.08435  0.45221  0.41490000000000005  1.0000
  C   C8        1.0  0.12593  0.34021  0.4483300000000001  1.0000
  C   C9        1.0  0.62442  0.67155  0.66243  1.0000
  C   C10       1.0  0.55598  0.3039899999999999  0.6644900000000001  1.0000
  C   C11       1.0  0.48374000000000006  0.93813  0.51991  1.0000
  C   C12       1.0  0.94789  0.03817  0.51898  1.0000
  C   C13       1.0  0.04668999999999998  0.96801  0.66166  1.0000
  C   C14       1.0  0.04381000000000001  0.12479  0.6778100000000001  1.0000
  C   C15       1.0  0.4667899999999999  0.93304  0.12755  1.0000
  C   C16       1.0  0.50075  0.07952  0.13118000000000002  1.0000
  C   C17       1.0  0.63241  0.00352  0.06007000000000001  1.0000
  C   C18       1.0  0.73304  0.01099  0.01022  1.0000
  C   C19       1.0  0.77208  0.8928900000000001  0.9802400000000001  1.0000
  C   C20       1.0  0.8652299999999999  0.91358  0.93155  1.0000
  C   C21       1.0  0.9157099999999999  0.05057999999999999  0.9148000000000001  1.0000
  C   C22       1.0  0.87427  0.16242  0.94829  1.0000
  C   C23       1.0  0.37515  0.82786  0.16223  1.0000
  C   C24       1.0  0.44339000000000006  0.1959  0.16464000000000004  1.0000
  C   C25       1.0  0.51503  0.56699  0.01994  1.0000
  C   C26       1.0  0.04789000000000001  0.46236  0.02063  1.0000
  C   C27       1.0  0.95093  0.53247  0.16168  1.0000
  C   C28       1.0  0.9553200000000001  0.37597  0.17912000000000003  1.0000
  C   C29       1.0  0.46764  0.43481  0.37151  1.0000
  C   C30       1.0  0.50063  0.58163  0.36869  1.0000
  C   C31       1.0  0.6319  0.50366  0.4394700000000001  1.0000
  C   C32       1.0  0.73247  0.5105  0.4892000000000001  1.0000
  C   C33       1.0  0.77162  0.39233  0.51927  1.0000
  C   C34       1.0  0.86445  0.41282  0.5678800000000002  1.0000
  C   C35       1.0  0.91463  0.54972  0.5844900000000001  1.0000
  C   C36       1.0  0.87338  0.66165  0.5508900000000001  1.0000
  C   C37       1.0  0.37765000000000004  0.33055  0.33581000000000005  1.0000
  C   C38       1.0  0.44284000000000007  0.69961  0.33632000000000006  1.0000
  C   C39       1.0  0.516  0.06718  0.47905000000000003  1.0000
  C   C40       1.0  0.04868  0.9621900000000001  0.47834  1.0000
  C   C41       1.0  0.95359  0.02722  0.33687000000000006  1.0000
  C   C42       1.0  0.95656  0.8694  0.32137000000000004  1.0000
  C   C43       1.0  0.53279  0.06792  0.8711200000000001  1.0000
  C   C44       1.0  0.4975  0.9215900000000001  0.86794  1.0000
  C   C45       1.0  0.36769  0.9994200000000001  0.93932  1.0000
  C   C46       1.0  0.26711  0.99221  0.9893500000000001  1.0000
  C   C47       1.0  0.22832  0.11000999999999998  0.01966  1.0000
  C   C48       1.0  0.13489  0.08913  0.06829  1.0000
  C   C49       1.0  0.08429000000000002  0.9521000000000001  0.08493000000000002  1.0000
  C   C50       1.0  0.1255  0.84052  0.051230000000000005  1.0000
  C   C51       1.0  0.62396  0.17168  0.8352600000000002  1.0000
  C   C52       1.0  0.55389  0.80441  0.83461  1.0000
  C   C53       1.0  0.48341000000000006  0.43779  0.9795600000000001  1.0000
  C   C54       1.0  0.9477400000000002  0.53835  0.9798300000000001  1.0000
  C   C55       1.0  0.04419  0.46884  0.83799  1.0000
  C   C56       1.0  0.042279999999999984  0.62623  0.82148  1.0000
  N   N1        1.0  0.3938900000000001  0.38231  0.58982  1.0000
  N   N2        1.0  0.44847999999999993  0.61158  0.58252  1.0000
  N   N3        1.0  0.21431000000000003  0.35776  0.4954000000000001  1.0000
  N   N4        1.0  0.60461  0.11871000000000001  0.08974000000000003  1.0000
  N   N5        1.0  0.55143  0.88936  0.08241  1.0000
  N   N6        1.0  0.78528  0.14481  0.9953300000000002  1.0000
  N   N7        1.0  0.60373  0.61964  0.4103600000000001  1.0000
  N   N8        1.0  0.55155  0.39006  0.41662  1.0000
  N   N9        1.0  0.78468  0.64424  0.50394  1.0000
  N   N10       1.0  0.39405000000000007  0.88366  0.9097300000000001  1.0000
  N   N11       1.0  0.4496200000000001  0.11280999999999998  0.9166700000000001  1.0000
  N   N12       1.0  0.21414  0.8583800000000001  0.00407  1.0000
  O   O1        1.0  0.9415400000000002  0.88343  0.68152  1.0000
  O   O2        1.0  0.92772  0.15446  0.70227  1.0000
  O   O3        1.0  0.15008  0.21001000000000003  0.6635  1.0000
  O   O4        1.0  0.14529  0.93648  0.62811  1.0000
  O   O5        1.0  0.50711  0.17939  0.6515  1.0000
  O   O6        1.0  0.65622  0.33336  0.7030400000000001  1.0000
  O   O7        1.0  0.70689  0.63135  0.70247  1.0000
  O   O8        1.0  0.6142  0.80117  0.6512900000000001  1.0000
  O   O9        1.0  0.40778  0.94941  0.56568  1.0000
  O   O10       1.0  0.53527  0.82615  0.50461  1.0000
  O   O11       1.0  0.006980000000000003  0.13179  0.5535  1.0000
  O   O12       1.0  0.81456  0.00018999999999999903  0.5149200000000002  1.0000
  O   O13       1.0  0.05727000000000001  0.61825  0.17923  1.0000
  O   O14       1.0  0.07023  0.34762  0.20515000000000003  1.0000
  O   O15       1.0  0.85029  0.29001  0.16453  1.0000
  O   O16       1.0  0.84934  0.56359  0.1299  1.0000
  O   O17       1.0  0.49328  0.32027  0.15151  1.0000
  O   O18       1.0  0.34317  0.16687  0.2035  1.0000
  O   O19       1.0  0.29167  0.8680599999999999  0.20212000000000005  1.0000
  O   O20       1.0  0.38583  0.69816  0.15156  1.0000
  O   O21       1.0  0.59129  0.55647  0.06556  1.0000
  O   O22       1.0  0.46356  0.67883  0.00409  1.0000
  O   O23       1.0  0.9877800000000001  0.36924  0.05556  1.0000
  O   O24       1.0  0.18128000000000002  0.49960000000000004  0.01629  1.0000
  O   O25       1.0  0.06083000000000001  0.11079  0.31798  1.0000
  O   O26       1.0  0.07300000000000001  0.84012  0.29704  1.0000
  O   O27       1.0  0.85048  0.78398  0.33592000000000005  1.0000
  O   O28       1.0  0.8533  0.06171  0.36872  1.0000
  O   O29       1.0  0.49227000000000004  0.82361  0.35073  1.0000
  O   O30       1.0  0.34323000000000004  0.67373  0.29728  1.0000
  O   O31       1.0  0.29963  0.37368  0.29469  1.0000
  O   O32       1.0  0.38492  0.20057  0.34721  1.0000
  O   O33       1.0  0.59222  0.05681  0.43336  1.0000
  O   O34       1.0  0.46407  0.17908  0.49448  1.0000
  O   O35       1.0  0.98923  0.86866  0.44386000000000003  1.0000
  O   O36       1.0  0.18207  0.99998  0.48238  1.0000
  O   O37       1.0  0.93909  0.38435  0.8182200000000002  1.0000
  O   O38       1.0  0.92687  0.65839  0.7973500000000001  1.0000
  O   O39       1.0  0.15008  0.70994  0.83522  1.0000
  O   O40       1.0  0.14269  0.4368600000000001  0.8714500000000002  1.0000
  O   O41       1.0  0.5068899999999998  0.68025  0.8497700000000001  1.0000
  O   O42       1.0  0.64981  0.83234  0.79397  1.0000
  O   O43       1.0  0.7056600000000001  0.13055  0.79504  1.0000
  O   O44       1.0  0.61408  0.3017  0.84582  1.0000
  O   O45       1.0  0.40751  0.44865000000000005  0.93389  1.0000
  O   O46       1.0  0.53561  0.32611999999999997  0.9949500000000002  1.0000
  O   O47       1.0  0.007189999999999999  0.63214  0.9452100000000001  1.0000
  O   O48       1.0  0.81444  0.50018  0.9840200000000002  1.0000
