data_image0
_chemical_formula_structural       Cd4H44C44N8O16
_chemical_formula_sum              "Cd4 H44 C44 N8 O16"
_cell_length_a       8.62039
_cell_length_b       10.65048
_cell_length_c       17.17701
_cell_angle_alpha    102.91557000000002
_cell_angle_beta     98.67425999999999
_cell_angle_gamma    90.58622

_symmetry_space_group_name_H-M    'P 1'
_symmetry_Int_Tables_number       1

loop_
  _symmetry_equiv_pos_as_xyz
  'x,y,z'

loop_
  _atom_site_type_symbol
  _atom_site_label
  _atom_site_symmetry_multiplicity
  _atom_site_fract_x
  _atom_site_fract_y
  _atom_site_fract_z
  _atom_site_occupancy
  Cd  Cd1       1.0  0.71792  0.27088  0.75324  1.0000
  Cd  Cd2       1.0  0.032759999999999984  0.7408500000000001  0.7485  1.0000
  Cd  Cd3       1.0  0.28208000000000005  0.7291300000000001  0.24675999999999998  1.0000
  Cd  Cd4       1.0  0.9672400000000001  0.25916  0.2515  1.0000
  H   H1        1.0  0.40625  0.32236  0.69512  1.0000
  H   H2        1.0  0.6229500000000001  0.15386  0.85963  1.0000
  H   H3        1.0  0.75942  0.5992000000000001  0.80997  1.0000
  H   H4        1.0  0.34823  0.5304200000000001  0.62577  1.0000
  H   H5        1.0  0.50101  0.6306300000000001  0.53996  1.0000
  H   H6        1.0  0.77964  0.7107800000000002  0.59538  1.0000
  H   H7        1.0  0.51314  0.52575  0.84092  1.0000
  H   H8        1.0  0.33461  0.52575  0.77381  1.0000
  H   H9        1.0  0.25594  0.30363000000000007  0.80012  1.0000
  H   H10       1.0  0.43583999999999995  0.3283  0.86865  1.0000
  H   H11       1.0  0.33884  0.09352000000000002  0.81806  1.0000
  H   H12       1.0  0.36544  0.10276999999999997  0.71957  1.0000
  H   H13       1.0  0.74021  0.97264  0.78595  1.0000
  H   H14       1.0  0.57591  0.94988  0.70776  1.0000
  H   H15       1.0  0.33699  0.83761  0.71675  1.0000
  H   H16       1.0  0.69372  0.9358900000000001  0.92802  1.0000
  H   H17       1.0  0.52689  0.81425  0.99665  1.0000
  H   H18       1.0  0.26624  0.72015  0.92441  1.0000
  H   H19       1.0  0.9602899999999999  0.11131000000000002  0.95756  1.0000
  H   H20       1.0  0.96832  0.41163000000000005  0.05652  1.0000
  H   H21       1.0  0.75509  0.1462  0.47203  1.0000
  H   H22       1.0  0.9086099999999999  0.42070000000000013  0.53617  1.0000
  H   H23       1.0  0.59374  0.67764  0.30488  1.0000
  H   H24       1.0  0.37704  0.8461500000000001  0.14037  1.0000
  H   H25       1.0  0.24057  0.4008100000000001  0.19003  1.0000
  H   H26       1.0  0.65176  0.46959000000000006  0.37423  1.0000
  H   H27       1.0  0.49898999999999993  0.36937000000000014  0.46004  1.0000
  H   H28       1.0  0.22035999999999997  0.28923  0.40462  1.0000
  H   H29       1.0  0.48685999999999996  0.4742600000000001  0.15908  1.0000
  H   H30       1.0  0.66539  0.47425000000000006  0.22619  1.0000
  H   H31       1.0  0.74406  0.6963700000000002  0.19988  1.0000
  H   H32       1.0  0.56416  0.6717  0.13135  1.0000
  H   H33       1.0  0.66115  0.9064900000000002  0.18194  1.0000
  H   H34       1.0  0.63455  0.8972300000000002  0.28043  1.0000
  H   H35       1.0  0.25978  0.027359999999999992  0.21405  1.0000
  H   H36       1.0  0.42408  0.05012000000000001  0.29224  1.0000
  H   H37       1.0  0.6630000000000001  0.16239000000000003  0.28325  1.0000
  H   H38       1.0  0.30627  0.06412000000000001  0.07197  1.0000
  H   H39       1.0  0.47311000000000003  0.18576000000000006  0.00335  1.0000
  H   H40       1.0  0.73375  0.27986  0.07559  1.0000
  H   H41       1.0  0.0397  0.8887000000000003  0.04244  1.0000
  H   H42       1.0  0.03168000000000002  0.58838  0.94348  1.0000
  H   H43       1.0  0.2449  0.8538  0.52797  1.0000
  H   H44       1.0  0.09139  0.57931  0.46383  1.0000
  C   C1        1.0  0.69783  0.6030900000000001  0.75033  1.0000
  C   C2        1.0  0.54264  0.5555  0.72435  1.0000
  C   C3        1.0  0.47073000000000004  0.56352  0.64706  1.0000
  C   C4        1.0  0.55505  0.6198600000000001  0.59942  1.0000
  C   C5        1.0  0.70915  0.66529  0.62992  1.0000
  C   C6        1.0  0.45643000000000006  0.49493000000000004  0.77761  1.0000
  C   C7        1.0  0.3826  0.28693  0.80564  1.0000
  C   C8        1.0  0.40858  0.14278  0.78414  1.0000
  C   C9        1.0  0.61248  0.9800600000000002  0.77349  1.0000
  C   C10       1.0  0.3844699999999999  0.8351700000000001  0.77892  1.0000
  C   C11       1.0  0.52867  0.8971500000000001  0.81619  1.0000
  C   C12       1.0  0.58194  0.8891800000000002  0.89603  1.0000
  C   C13       1.0  0.4891700000000001  0.82235  0.93469  1.0000
  C   C14       1.0  0.3438300000000001  0.767  0.89388  1.0000
  C   C15       1.0  0.98682  0.91419  0.88705  1.0000
  C   C16       1.0  0.9845599999999999  0.013249999999999998  0.96324  1.0000
  C   C17       1.0  0.853  0.36861  0.92948  1.0000
  C   C18       1.0  0.9599000000000001  0.44600000000000006  0.00098  1.0000
  C   C19       1.0  0.76599  0.24594000000000002  0.59995  1.0000
  C   C20       1.0  0.79579  0.23541  0.51584  1.0000
  C   C21       1.0  0.86878  0.33028  0.49298999999999993  1.0000
  C   C22       1.0  0.89563  0.31663  0.40798  1.0000
  C   C23       1.0  0.30217  0.39692000000000005  0.24967  1.0000
  C   C24       1.0  0.45736  0.4445000000000001  0.27565  1.0000
  C   C25       1.0  0.52926  0.4364800000000001  0.35294  1.0000
  C   C26       1.0  0.44494999999999996  0.38014000000000003  0.40058  1.0000
  C   C27       1.0  0.29085  0.33472  0.37008  1.0000
  C   C28       1.0  0.54357  0.50508  0.22239  1.0000
  C   C29       1.0  0.61739  0.7130800000000002  0.19436  1.0000
  C   C30       1.0  0.59142  0.85723  0.21586  1.0000
  C   C31       1.0  0.38751  0.01995  0.22651  1.0000
  C   C32       1.0  0.61553  0.16484  0.22108  1.0000
  C   C33       1.0  0.47132000000000007  0.10286000000000001  0.18381  1.0000
  C   C34       1.0  0.41806  0.11083000000000001  0.10397  1.0000
  C   C35       1.0  0.51082  0.17765000000000006  0.06531  1.0000
  C   C36       1.0  0.65616  0.23301000000000005  0.10612  1.0000
  C   C37       1.0  0.01318  0.08582  0.11294  1.0000
  C   C38       1.0  0.015440000000000002  0.9867500000000001  0.03676  1.0000
  C   C39       1.0  0.14699  0.63139  0.07052  1.0000
  C   C40       1.0  0.04009999999999998  0.5540100000000001  0.9990199999999999  1.0000
  C   C41       1.0  0.23399999999999999  0.7540600000000001  0.40005  1.0000
  C   C42       1.0  0.20421000000000006  0.7646000000000001  0.48416000000000003  1.0000
  C   C43       1.0  0.13122  0.6697200000000002  0.50701  1.0000
  C   C44       1.0  0.10437000000000003  0.6833800000000001  0.59202  1.0000
  N   N1        1.0  0.7792  0.6568600000000001  0.70415  1.0000
  N   N2        1.0  0.46096  0.35281000000000007  0.75387  1.0000
  N   N3        1.0  0.57777  0.11788  0.79931  1.0000
  N   N4        1.0  0.29315  0.7724  0.81643  1.0000
  N   N5        1.0  0.22079999999999997  0.34315  0.29585  1.0000
  N   N6        1.0  0.53904  0.6472  0.24613  1.0000
  N   N7        1.0  0.42222  0.88212  0.20069  1.0000
  N   N8        1.0  0.7068400000000001  0.22761000000000003  0.18357  1.0000
  O   O1        1.0  0.9838799999999999  0.7942  0.88735  1.0000
  O   O2        1.0  0.9933500000000001  0.9563100000000002  0.82322  1.0000
  O   O3        1.0  0.87446  0.38652000000000003  0.85957  1.0000
  O   O4        1.0  0.74953  0.29306  0.94142  1.0000
  O   O5        1.0  0.8363100000000001  0.3371400000000001  0.65658  1.0000
  O   O6        1.0  0.67141  0.16240000000000004  0.61326  1.0000
  O   O7        1.0  0.89913  0.41683000000000003  0.37924  1.0000
  O   O8        1.0  0.91464  0.20246  0.36675  1.0000
  O   O9        1.0  0.016110000000000003  0.20580000000000004  0.11265  1.0000
  O   O10       1.0  0.00664  0.04370000000000002  0.17678  1.0000
  O   O11       1.0  0.12553  0.61348  0.14043  1.0000
  O   O12       1.0  0.25046  0.70695  0.05857  1.0000
  O   O13       1.0  0.16369  0.66286  0.34342  1.0000
  O   O14       1.0  0.32858  0.83761  0.38674  1.0000
  O   O15       1.0  0.10087  0.5831800000000001  0.62076  1.0000
  O   O16       1.0  0.08535  0.79755  0.63325  1.0000
