data_image0
_chemical_formula_structural       Na6Zn8Cu2H8C40O40
_chemical_formula_sum              "Na6 Zn8 Cu2 H8 C40 O40"
_cell_length_a       10.9052
_cell_length_b       13.18654
_cell_length_c       13.03099
_cell_angle_alpha    84.62815
_cell_angle_beta     76.66147
_cell_angle_gamma    76.01344

_symmetry_space_group_name_H-M    'P 1'
_symmetry_Int_Tables_number       1

loop_
  _symmetry_equiv_pos_as_xyz
  'x,y,z'

loop_
  _atom_site_type_symbol
  _atom_site_label
  _atom_site_symmetry_multiplicity
  _atom_site_fract_x
  _atom_site_fract_y
  _atom_site_fract_z
  _atom_site_occupancy
  Na  Na1       1.0  0.24223999999999987  0.29798  0.23937  1.0000
  Na  Na2       1.0  0.24259999999999984  0.7828  0.7084800000000002  1.0000
  Na  Na3       1.0  0.7515999999999999  0.7171000000000002  0.77089  1.0000
  Na  Na4       1.0  0.7576  0.20218  0.26578  1.0000
  Na  Na5       1.0  0.23026999999999986  0.71216  0.27078  1.0000
  Na  Na6       1.0  0.8001599999999999  0.29815  0.7970400000000002  1.0000
  Zn  Zn1       1.0  0.53152  0.12936  0.18121000000000004  1.0000
  Zn  Zn2       1.0  0.95925  0.81211  0.8774  1.0000
  Zn  Zn3       1.0  0.45809000000000005  0.87196  0.81824  1.0000
  Zn  Zn4       1.0  0.04489  0.18868000000000001  0.11922  1.0000
  Zn  Zn5       1.0  0.7435299999999998  0.08755000000000003  0.8981  1.0000
  Zn  Zn6       1.0  0.74712  0.92194  0.07632000000000001  1.0000
  Zn  Zn7       1.0  0.24651999999999996  0.9058100000000001  0.10206  1.0000
  Zn  Zn8       1.0  0.24747999999999995  0.0738  0.92498  1.0000
  Cu  Cu1       1.0  0.4906099999999999  0.99881  0.00203  1.0000
  Cu  Cu2       1.0  0.0032299999999999512  0.9988500000000001  6e-05  1.0000
  H   H1        1.0  0.8719199999999999  0.50615  0.9951100000000002  1.0000
  H   H2        1.0  0.40379999999999994  0.5570200000000001  0.14814  1.0000
  H   H3        1.0  0.6190999999999998  0.0011700000000000002  0.49959  1.0000
  H   H4        1.0  0.09116000000000006  0.85519  0.44450000000000006  1.0000
  H   H5        1.0  0.12435999999999993  0.49772  0.0056700000000000006  1.0000
  H   H6        1.0  0.59367  0.44487  0.8569700000000002  1.0000
  H   H7        1.0  0.37517999999999996  0.002209999999999999  0.50536  1.0000
  H   H8        1.0  0.90151  0.14217  0.55378  1.0000
  C   C1        1.0  0.58552  0.44629  0.12213000000000002  1.0000
  C   C2        1.0  0.71742  0.43041  0.07182  1.0000
  C   C3        1.0  0.7690699999999999  0.51725  0.030520000000000002  1.0000
  C   C4        1.0  0.69253  0.61807  0.03632  1.0000
  C   C5        1.0  0.5577899999999998  0.63394  0.07543  1.0000
  C   C6        1.0  0.5075  0.5482  0.11892  1.0000
  C   C7        1.0  0.51996  0.36096  0.17578  1.0000
  C   C8        1.0  0.81634  0.32825000000000004  0.052020000000000004  1.0000
  C   C9        1.0  0.75756  0.70797  0.013040000000000001  1.0000
  C   C10       1.0  0.4735399999999999  0.73961  0.06046  1.0000
  C   C11       1.0  0.9104499999999998  0.8782500000000002  0.5564  1.0000
  C   C12       1.0  0.77746  0.92603  0.57394  1.0000
  C   C13       1.0  0.7223299999999999  0.96626  0.48697  1.0000
  C   C14       1.0  0.79679  0.9599  0.3847800000000001  1.0000
  C   C15       1.0  0.9323399999999998  0.9231300000000002  0.3678  1.0000
  C   C16       1.0  0.9866999999999994  0.8818700000000002  0.4535800000000001  1.0000
  C   C17       1.0  0.9781399999999998  0.82403  0.64115  1.0000
  C   C18       1.0  0.68289  0.93972  0.6798300000000003  1.0000
  C   C19       1.0  0.73316  0.9826300000000001  0.29209  1.0000
  C   C20       1.0  0.014299999999999948  0.9416100000000001  0.26205  1.0000
  C   C21       1.0  0.4127799999999999  0.55522  0.8814  1.0000
  C   C22       1.0  0.27987999999999985  0.57192  0.9294700000000001  1.0000
  C   C23       1.0  0.22746  0.48549000000000003  0.97115  1.0000
  C   C24       1.0  0.30382  0.38439  0.96719  1.0000
  C   C25       1.0  0.43885999999999986  0.36778  0.92973  1.0000
  C   C26       1.0  0.49008999999999997  0.45314000000000004  0.8860000000000001  1.0000
  C   C27       1.0  0.4793499999999999  0.64051  0.8284700000000002  1.0000
  C   C28       1.0  0.18076  0.67516  0.94505  1.0000
  C   C29       1.0  0.24005999999999997  0.29357  0.99285  1.0000
  C   C30       1.0  0.51991  0.26127  0.9489300000000002  1.0000
  C   C31       1.0  0.08387  0.11787000000000003  0.44236  1.0000
  C   C32       1.0  0.21804  0.07444  0.4273300000000001  1.0000
  C   C33       1.0  0.27158  0.03456  0.51513  1.0000
  C   C34       1.0  0.19421999999999998  0.03813000000000001  0.61615  1.0000
  C   C35       1.0  0.05884999999999999  0.07386  0.63145  1.0000
  C   C36       1.0  0.005769999999999995  0.11456  0.54464  1.0000
  C   C37       1.0  0.016889999999999992  0.16581000000000004  0.35428  1.0000
  C   C38       1.0  0.31572  0.064  0.3231  1.0000
  C   C39       1.0  0.25677999999999995  0.013880000000000002  0.7090800000000002  1.0000
  C   C40       1.0  0.9769  0.05503999999999999  0.73769  1.0000
  O   O1        1.0  0.4016099999999999  0.3860300000000001  0.21856  1.0000
  O   O2        1.0  0.5921499999999998  0.26675  0.17421  1.0000
  O   O3        1.0  0.86842  0.28886  0.13087  1.0000
  O   O4        1.0  0.84867  0.29827  0.9595900000000002  1.0000
  O   O5        1.0  0.8365899999999997  0.7106700000000001  0.9232200000000002  1.0000
  O   O6        1.0  0.73274  0.76856  0.08776  1.0000
  O   O7        1.0  0.51218  0.79772  0.9839000000000001  1.0000
  O   O8        1.0  0.36341  0.7644  0.12664  1.0000
  O   O9        1.0  0.55791  0.9945200000000002  0.11996000000000002  1.0000
  O   O10       1.0  0.66687  0.9673  0.94178  1.0000
  O   O11       1.0  0.09663999999999989  0.7818200000000002  0.61536  1.0000
  O   O12       1.0  0.9063999999999998  0.8225800000000002  0.73577  1.0000
  O   O13       1.0  0.6265099999999998  0.86168  0.7090200000000002  1.0000
  O   O14       1.0  0.6597999999999999  0.024539999999999992  0.7219900000000002  1.0000
  O   O15       1.0  0.6545400000000001  0.07168000000000002  0.28655  1.0000
  O   O16       1.0  0.7624900000000002  0.90884  0.22982000000000002  1.0000
  O   O17       1.0  0.97459  0.01899  0.20522  1.0000
  O   O18       1.0  0.12670999999999988  0.8772500000000002  0.23747  1.0000
  O   O19       1.0  0.93648  0.88049  0.00829  1.0000
  O   O20       1.0  0.8255299999999999  0.05681000000000001  0.024710000000000006  1.0000
  O   O21       1.0  0.5988299999999998  0.61686  0.7892400000000002  1.0000
  O   O22       1.0  0.4051600000000001  0.73378  0.82691  1.0000
  O   O23       1.0  0.1319699999999999  0.71161  0.8630100000000003  1.0000
  O   O24       1.0  0.14532999999999993  0.7078200000000001  0.03599  1.0000
  O   O25       1.0  0.16408999999999999  0.29135000000000005  0.08429  1.0000
  O   O26       1.0  0.26094  0.23207000000000005  0.91954  1.0000
  O   O27       1.0  0.47543  0.20699000000000004  0.027060000000000004  1.0000
  O   O28       1.0  0.6305799999999998  0.23247999999999996  0.8850800000000002  1.0000
  O   O29       1.0  0.4346499999999999  0.006170000000000004  0.8784  1.0000
  O   O30       1.0  0.31636  0.030380000000000008  0.06652  1.0000
  O   O31       1.0  0.8963999999999999  0.19607  0.3748  1.0000
  O   O32       1.0  0.09258999999999995  0.17342000000000005  0.26199  1.0000
  O   O33       1.0  0.36391  0.14559  0.29095  1.0000
  O   O34       1.0  0.3507600000000001  0.97616  0.28475  1.0000
  O   O35       1.0  0.33374  0.924  0.71391  1.0000
  O   O36       1.0  0.22948000000000002  0.08786000000000001  0.77106  1.0000
  O   O37       1.0  0.017209999999999944  0.97458  0.79114  1.0000
  O   O38       1.0  0.8676299999999999  0.12187000000000005  0.7661  1.0000
  O   O39       1.0  0.05995999999999993  0.12148000000000005  0.9898500000000001  1.0000
  O   O40       1.0  0.1772199999999999  0.93429  0.97377  1.0000
