data_image0
_chemical_formula_structural       Cu4H48C72N8O20
_chemical_formula_sum              "Cu4 H48 C72 N8 O20"
_cell_length_a       11.1936
_cell_length_b       13.30156
_cell_length_c       21.18976
_cell_angle_alpha    90.07616999999999
_cell_angle_beta     90.00045
_cell_angle_gamma    90.0

_space_group_name_H-M_alt    "P 1"
_space_group_IT_number       1

loop_
  _space_group_symop_operation_xyz
  'x, y, z'

loop_
  _atom_site_type_symbol
  _atom_site_label
  _atom_site_symmetry_multiplicity
  _atom_site_fract_x
  _atom_site_fract_y
  _atom_site_fract_z
  _atom_site_occupancy
  Cu  Cu1       1.0  0.5  0.64499  0.54723  1.0000
  Cu  Cu2       1.0  0.5  0.85521  0.04787000000000002  1.0000
  Cu  Cu3       1.0  0.5  0.355  0.45277000000000006  1.0000
  Cu  Cu4       1.0  0.5  0.14478999999999997  0.9521300000000001  1.0000
  H   H1        1.0  0.31181000000000003  0.5240899999999998  0.6094900000000001  1.0000
  H   H2        1.0  0.5  0.9208999999999998  0.6509  1.0000
  H   H3        1.0  0.08846  0.73397  0.9811400000000002  1.0000
  H   H4        1.0  0.68833  0.9760699999999998  0.10994  1.0000
  H   H5        1.0  0.08830000000000002  0.7660599999999999  0.48115000000000013  1.0000
  H   H6        1.0  0.5  0.6344699999999998  0.7582900000000002  1.0000
  H   H7        1.0  0.09002  0.9850599999999999  0.11168  1.0000
  H   H8        1.0  0.9117  0.7660599999999999  0.48115000000000013  1.0000
  H   H9        1.0  0.5  0.865  0.25835  1.0000
  H   H10       1.0  0.50001  0.50094  0.31289000000000006  1.0000
  H   H11       1.0  0.6903200000000002  0.73939  0.98383  1.0000
  H   H12       1.0  0.90986  0.5153  0.61153  1.0000
  H   H13       1.0  0.30968  0.7394  0.98384  1.0000
  H   H14       1.0  0.50001  0.99846  0.81359  1.0000
  H   H15       1.0  0.68819  0.5240899999999998  0.6094900000000001  1.0000
  H   H16       1.0  0.09014  0.5153  0.61153  1.0000
  H   H17       1.0  0.69051  0.7603599999999999  0.48345  1.0000
  H   H18       1.0  0.3095  0.7603599999999999  0.48345  1.0000
  H   H19       1.0  0.91154  0.73397  0.9811400000000002  1.0000
  H   H20       1.0  0.5  0.8119299999999998  0.3707200000000001  1.0000
  H   H21       1.0  0.5  0.57923  0.15013000000000004  1.0000
  H   H22       1.0  0.5  0.6873699999999999  0.8708400000000002  1.0000
  H   H23       1.0  0.31168  0.9760699999999998  0.10994  1.0000
  H   H24       1.0  0.90998  0.9850599999999999  0.11168  1.0000
  H   H25       1.0  0.08830000000000002  0.23392999999999994  0.5188500000000001  1.0000
  H   H26       1.0  0.5  0.00153  0.18641  1.0000
  H   H27       1.0  0.5  0.49904999999999994  0.68711  1.0000
  H   H28       1.0  0.69033  0.26059999999999994  0.01616  1.0000
  H   H29       1.0  0.30968  0.26059999999999994  0.016170000000000004  1.0000
  H   H30       1.0  0.5  0.13498999999999997  0.74166  1.0000
  H   H31       1.0  0.50001  0.4207599999999999  0.84987  1.0000
  H   H32       1.0  0.5  0.18805999999999998  0.62929  1.0000
  H   H33       1.0  0.68819  0.4758999999999999  0.39051  1.0000
  H   H34       1.0  0.5  0.36552  0.24171  1.0000
  H   H35       1.0  0.3095  0.23963999999999994  0.51655  1.0000
  H   H36       1.0  0.31181000000000003  0.4758999999999999  0.39051  1.0000
  H   H37       1.0  0.69051  0.23963999999999994  0.51655  1.0000
  H   H38       1.0  0.08846  0.2660199999999999  0.018860000000000002  1.0000
  H   H39       1.0  0.91154  0.2660199999999999  0.018870000000000005  1.0000
  H   H40       1.0  0.90986  0.48468999999999995  0.38847  1.0000
  H   H41       1.0  0.31168  0.02392  0.8900600000000001  1.0000
  H   H42       1.0  0.09002  0.014929999999999997  0.8883200000000001  1.0000
  H   H43       1.0  0.68832  0.02392  0.8900600000000001  1.0000
  H   H44       1.0  0.9117  0.23392999999999994  0.5188500000000001  1.0000
  H   H45       1.0  0.09014  0.48468999999999995  0.38847  1.0000
  H   H46       1.0  0.50003  0.07909999999999998  0.3491000000000001  1.0000
  H   H47       1.0  0.90998  0.014929999999999997  0.8883200000000001  1.0000
  H   H48       1.0  0.5  0.31261999999999995  0.12916000000000002  1.0000
  C   C1        1.0  0.13203  0.70986  0.51023  1.0000
  C   C2        1.0  0.0664  0.8599199999999999  0.04621  1.0000
  C   C3        1.0  0.13306  0.9285199999999999  0.08246  1.0000
  C   C4        1.0  0.7426700000000002  0.57525  0.58164  1.0000
  C   C5        1.0  0.74383  0.7083699999999998  0.5113000000000001  1.0000
  C   C6        1.0  0.13312  0.5717099999999999  0.5822600000000001  1.0000
  C   C7        1.0  0.8668800000000001  0.5717099999999999  0.5822600000000001  1.0000
  C   C8        1.0  0.50001  0.58045  0.30061  1.0000
  C   C9        1.0  0.50001  0.91888  0.80135  1.0000
  C   C10       1.0  0.93361  0.64023  0.54611  1.0000
  C   C11       1.0  0.74274  0.92487  0.08201  1.0000
  C   C12       1.0  0.86695  0.9285199999999999  0.08246  1.0000
  C   C13       1.0  0.5  0.6205699999999997  0.4157900000000001  1.0000
  C   C14       1.0  0.5  0.6534799999999997  0.34821  1.0000
  C   C15       1.0  0.50002  0.6097599999999999  0.23691  1.0000
  C   C16       1.0  0.74374  0.79152  0.011620000000000004  1.0000
  C   C17       1.0  0.50002  0.74477  0.15438000000000002  1.0000
  C   C18       1.0  0.5  0.75644  0.33310000000000006  1.0000
  C   C19       1.0  0.50003  0.8788599999999998  0.91657  1.0000
  C   C20       1.0  0.9336000000000001  0.8599199999999999  0.04621  1.0000
  C   C21       1.0  0.5  0.71389  0.77037  1.0000
  C   C22       1.0  0.86797  0.70986  0.51023  1.0000
  C   C23       1.0  0.25617  0.7083699999999998  0.5113000000000001  1.0000
  C   C24       1.0  0.25733  0.57525  0.58165  1.0000
  C   C25       1.0  0.50002  0.8897  0.73756  1.0000
  C   C26       1.0  0.49999000000000005  0.7553899999999998  0.6543600000000002  1.0000
  C   C27       1.0  0.5  0.7857599999999998  0.7217800000000001  1.0000
  C   C28       1.0  0.13212  0.7901899999999997  0.010340000000000004  1.0000
  C   C29       1.0  0.5  0.7855799999999997  0.27025  1.0000
  C   C30       1.0  0.25627  0.79152  0.011630000000000001  1.0000
  C   C31       1.0  0.8678800000000001  0.7901899999999997  0.010340000000000004  1.0000
  C   C32       1.0  0.50001  0.7137599999999997  0.22155000000000005  1.0000
  C   C33       1.0  0.0664  0.64023  0.54611  1.0000
  C   C34       1.0  0.5  0.7429199999999999  0.8333400000000002  1.0000
  C   C35       1.0  0.5  0.8458699999999998  0.8488400000000001  1.0000
  C   C36       1.0  0.25726  0.92487  0.08202  1.0000
  C   C37       1.0  0.50002  0.11029999999999997  0.26244  1.0000
  C   C38       1.0  0.74275  0.07513  0.9179800000000001  1.0000
  C   C39       1.0  0.86797  0.29013999999999995  0.48977  1.0000
  C   C40       1.0  0.74383  0.2916199999999999  0.4887  1.0000
  C   C41       1.0  0.0664  0.14007  0.9538000000000001  1.0000
  C   C42       1.0  0.25627  0.20846999999999993  0.98838  1.0000
  C   C43       1.0  0.5  0.39022999999999997  0.7631000000000002  1.0000
  C   C44       1.0  0.5  0.4195399999999999  0.6994  1.0000
  C   C45       1.0  0.13312  0.42828  0.41774  1.0000
  C   C46       1.0  0.5  0.21422999999999995  0.27822  1.0000
  C   C47       1.0  0.49999000000000005  0.37941999999999987  0.58421  1.0000
  C   C48       1.0  0.5  0.25522  0.8456200000000003  1.0000
  C   C49       1.0  0.5  0.28622999999999993  0.77845  1.0000
  C   C50       1.0  0.25617  0.2916199999999999  0.4887  1.0000
  C   C51       1.0  0.13212  0.20979999999999993  0.9896600000000001  1.0000
  C   C52       1.0  0.93361  0.3597599999999999  0.45390000000000014  1.0000
  C   C53       1.0  0.5  0.15412  0.15116  1.0000
  C   C54       1.0  0.49999000000000005  0.12112999999999997  0.08343  1.0000
  C   C55       1.0  0.8668800000000001  0.42828  0.41774  1.0000
  C   C56       1.0  0.8678800000000001  0.20981  0.9896600000000001  1.0000
  C   C57       1.0  0.74374  0.20846999999999993  0.98838  1.0000
  C   C58       1.0  0.25733  0.4247399999999999  0.41836000000000007  1.0000
  C   C59       1.0  0.5  0.08110999999999997  0.19865000000000002  1.0000
  C   C60       1.0  0.13306  0.07146999999999999  0.9175400000000001  1.0000
  C   C61       1.0  0.9336000000000001  0.14007  0.9538000000000001  1.0000
  C   C62       1.0  0.5  0.24354999999999996  0.6669000000000002  1.0000
  C   C63       1.0  0.13203  0.29013999999999995  0.48977  1.0000
  C   C64       1.0  0.7426700000000002  0.4247399999999999  0.41836000000000007  1.0000
  C   C65       1.0  0.5  0.34651  0.6517900000000002  1.0000
  C   C66       1.0  0.0664  0.3597599999999999  0.45390000000000014  1.0000
  C   C67       1.0  0.25726  0.07511999999999999  0.9179900000000001  1.0000
  C   C68       1.0  0.5  0.25706999999999997  0.16666  1.0000
  C   C69       1.0  0.5  0.24459999999999998  0.34565000000000007  1.0000
  C   C70       1.0  0.86695  0.07146999999999999  0.9175400000000001  1.0000
  C   C71       1.0  0.5  0.21441  0.72975  1.0000
  C   C72       1.0  0.5  0.28609999999999997  0.22964  1.0000
  N   N1        1.0  0.68188  0.64197  0.5462800000000001  1.0000
  N   N2        1.0  0.68187  0.85793  0.04676000000000002  1.0000
  N   N3        1.0  0.31812  0.64197  0.54629  1.0000
  N   N4        1.0  0.31813  0.8579199999999998  0.046770000000000006  1.0000
  N   N5        1.0  0.68188  0.35802  0.45371  1.0000
  N   N6        1.0  0.31813  0.14205999999999996  0.9532400000000002  1.0000
  N   N7        1.0  0.31812  0.35802  0.45372  1.0000
  N   N8        1.0  0.68188  0.14206999999999997  0.9532300000000002  1.0000
  O   O1        1.0  0.49996  0.69173  0.45786  1.0000
  O   O2        1.0  0.49987  0.67792  0.11103000000000002  1.0000
  O   O3        1.0  0.50008  0.9612199999999997  0.6923100000000002  1.0000
  O   O4        1.0  0.50021  0.8398499999999999  0.1422  1.0000
  O   O5        1.0  0.49987  0.82276  0.61147  1.0000
  O   O6        1.0  0.5003  0.9706999999999998  0.9301300000000001  1.0000
  O   O7        1.0  0.50006  0.5286899999999999  0.4290200000000001  1.0000
  O   O8        1.0  0.5001  0.6605199999999999  0.6413600000000003  1.0000
  O   O9        1.0  0.49982000000000004  0.8078499999999997  0.95864  1.0000
  O   O10       1.0  0.5001  0.53856  0.19130000000000003  1.0000
  O   O11       1.0  0.50006  0.32206999999999997  0.88897  1.0000
  O   O12       1.0  0.49995  0.47131  0.5709800000000002  1.0000
  O   O13       1.0  0.49991  0.0293  0.06987  1.0000
  O   O14       1.0  0.50007  0.19214  0.041370000000000004  1.0000
  O   O15       1.0  0.49997  0.33946999999999994  0.35864  1.0000
  O   O16       1.0  0.50003  0.17722999999999997  0.3885300000000001  1.0000
  O   O17       1.0  0.50003  0.3082599999999999  0.54214  1.0000
  O   O18       1.0  0.49998  0.4614299999999999  0.80871  1.0000
  O   O19       1.0  0.50007  0.03877  0.30769  1.0000
  O   O20       1.0  0.49993  0.16013999999999995  0.8578  1.0000
