data_image0
_chemical_formula_structural       La4H40C36O26
_chemical_formula_sum              "La4 H40 C36 O26"
_cell_length_a       10.09321
_cell_length_b       10.47295
_cell_length_c       15.19478
_cell_angle_alpha    73.77853
_cell_angle_beta     77.59604
_cell_angle_gamma    60.75445

_space_group_name_H-M_alt    "P 1"
_space_group_IT_number       1

loop_
  _space_group_symop_operation_xyz
  'x, y, z'

loop_
  _atom_site_type_symbol
  _atom_site_label
  _atom_site_symmetry_multiplicity
  _atom_site_fract_x
  _atom_site_fract_y
  _atom_site_fract_z
  _atom_site_occupancy
  La  La1       1.0  0.91946  0.045269999999999984  0.13437  1.0000
  La  La2       1.0  0.66568  0.98927  0.37985  1.0000
  La  La3       1.0  0.08053000000000009  0.95472  0.8656299999999999  1.0000
  La  La4       1.0  0.33432  0.01073000000000001  0.62015  1.0000
  H   H1        1.0  0.5047100000000001  0.20107999999999995  0.05168  1.0000
  H   H2        1.0  0.35633  0.15304999999999994  0.11158  1.0000
  H   H3        1.0  0.21222  0.38846  0.16058  1.0000
  H   H4        1.0  0.49215  0.4388099999999999  0.07615999999999999  1.0000
  H   H5        1.0  0.17773  0.63322  0.17024  1.0000
  H   H6        1.0  0.3382700000000002  0.6635199999999998  0.15013  1.0000
  H   H7        1.0  0.78161  0.62199  0.1526  1.0000
  H   H8        1.0  0.9720299999999998  0.53039  0.17715  1.0000
  H   H9        1.0  0.8735700000000001  0.5030699999999998  0.35359000000000007  1.0000
  H   H10       1.0  0.6410999999999999  0.49716999999999995  0.25511  1.0000
  H   H11       1.0  0.5401900000000001  0.4702699999999999  0.42734  1.0000
  H   H12       1.0  0.7304  0.38207  0.45642  1.0000
  H   H13       1.0  0.05432000000000001  0.79542  0.44419  1.0000
  H   H14       1.0  0.22221000000000019  0.8187199999999997  0.40606  1.0000
  H   H15       1.0  0.33074  0.60977  0.31923  1.0000
  H   H16       1.0  0.06519000000000003  0.56185  0.43875  1.0000
  H   H17       1.0  0.17539000000000007  0.37685  0.32811  1.0000
  H   H18       1.0  0.35844000000000004  0.36282  0.32752  1.0000
  H   H19       1.0  0.10059000000000001  0.18763000000000007  0.9799499999999999  1.0000
  H   H20       1.0  0.20268  0.07033  0.05731  1.0000
  H   H21       1.0  0.49527999999999994  0.7989200000000001  0.94832  1.0000
  H   H22       1.0  0.6436700000000001  0.84695  0.88842  1.0000
  H   H23       1.0  0.7877700000000001  0.6115299999999998  0.83942  1.0000
  H   H24       1.0  0.5078499999999999  0.56119  0.92384  1.0000
  H   H25       1.0  0.82226  0.36678  0.82976  1.0000
  H   H26       1.0  0.66172  0.33648  0.84987  1.0000
  H   H27       1.0  0.21838000000000005  0.3780099999999999  0.8474  1.0000
  H   H28       1.0  0.027969999999999925  0.4696100000000001  0.82285  1.0000
  H   H29       1.0  0.1264200000000001  0.49693  0.64641  1.0000
  H   H30       1.0  0.35889000000000015  0.5028199999999997  0.74489  1.0000
  H   H31       1.0  0.45979999999999965  0.52973  0.57266  1.0000
  H   H32       1.0  0.26959  0.61792  0.54358  1.0000
  H   H33       1.0  0.9456699999999999  0.20457999999999998  0.55581  1.0000
  H   H34       1.0  0.77778  0.18126999999999996  0.59394  1.0000
  H   H35       1.0  0.66925  0.39022999999999997  0.68077  1.0000
  H   H36       1.0  0.9348000000000002  0.4381499999999999  0.56126  1.0000
  H   H37       1.0  0.8246000000000001  0.6231499999999998  0.67189  1.0000
  H   H38       1.0  0.6415500000000001  0.63717  0.67248  1.0000
  H   H39       1.0  0.89941  0.81236  0.02005  1.0000
  H   H40       1.0  0.7973099999999999  0.9296700000000001  0.94269  1.0000
  C   C1        1.0  0.52149  0.11575000000000002  0.19664  1.0000
  C   C2        1.0  0.42724000000000006  0.20409  0.1148  1.0000
  C   C3        1.0  0.32727  0.36301  0.12808  1.0000
  C   C4        1.0  0.37535  0.46746  0.10629  1.0000
  C   C5        1.0  0.27746999999999994  0.62443  0.12055  1.0000
  C   C6        1.0  0.21503000000000005  0.7371099999999999  0.03361  1.0000
  C   C7        1.0  0.8481  0.74655  0.20827  1.0000
  C   C8        1.0  0.8549699999999999  0.59971  0.20482  1.0000
  C   C9        1.0  0.81223  0.5215999999999997  0.29658  1.0000
  C   C10       1.0  0.7028999999999999  0.47871  0.31184  1.0000
  C   C11       1.0  0.6602099999999997  0.40077  0.40378  1.0000
  C   C12       1.0  0.66711  0.25453999999999993  0.39920000000000005  1.0000
  C   C13       1.0  0.06876000000000004  0.9039199999999998  0.30374  1.0000
  C   C14       1.0  0.14268  0.78922  0.38685  1.0000
  C   C15       1.0  0.22522000000000006  0.63514  0.36446  1.0000
  C   C16       1.0  0.17195999999999997  0.53402  0.39458999999999994  1.0000
  C   C17       1.0  0.24950999999999995  0.38313  0.36905  1.0000
  C   C18       1.0  0.27396  0.25566999999999995  0.45183000000000006  1.0000
  C   C19       1.0  0.4785000000000001  0.8842499999999998  0.80336  1.0000
  C   C20       1.0  0.57275  0.7959099999999999  0.8852  1.0000
  C   C21       1.0  0.67273  0.63698  0.87192  1.0000
  C   C22       1.0  0.6246499999999998  0.53254  0.89371  1.0000
  C   C23       1.0  0.7225200000000002  0.37557000000000007  0.87945  1.0000
  C   C24       1.0  0.78496  0.26289  0.96639  1.0000
  C   C25       1.0  0.15190000000000006  0.25344999999999995  0.79173  1.0000
  C   C26       1.0  0.14501999999999998  0.40029000000000003  0.79518  1.0000
  C   C27       1.0  0.18775999999999993  0.4783999999999999  0.70342  1.0000
  C   C28       1.0  0.2970900000000001  0.5212899999999999  0.68816  1.0000
  C   C29       1.0  0.33978  0.59923  0.59622  1.0000
  C   C30       1.0  0.33288000000000006  0.7454599999999997  0.60081  1.0000
  C   C31       1.0  0.9312300000000001  0.09607  0.69626  1.0000
  C   C32       1.0  0.85731  0.21077000000000004  0.61315  1.0000
  C   C33       1.0  0.7747700000000001  0.36486  0.63554  1.0000
  C   C34       1.0  0.8280399999999999  0.46598  0.60541  1.0000
  C   C35       1.0  0.75048  0.6168600000000001  0.63095  1.0000
  C   C36       1.0  0.7260300000000001  0.7443299999999999  0.54817  1.0000
  O   O1        1.0  0.46321  0.06786999999999996  0.27233  1.0000
  O   O2        1.0  0.65889  0.09926  0.18726  1.0000
  O   O3        1.0  0.14270999999999998  0.8790399999999999  0.03618  1.0000
  O   O4        1.0  0.23024000000000003  0.6963499999999999  0.95974  1.0000
  O   O5        1.0  0.8012299999999998  0.7926200000000001  0.28255  1.0000
  O   O6        1.0  0.8954899999999999  0.81609  0.13379  1.0000
  O   O7        1.0  0.7056399999999999  0.14355  0.46706  1.0000
  O   O8        1.0  0.62957  0.24864000000000003  0.32535  1.0000
  O   O9        1.0  0.9212300000000001  0.9838299999999998  0.30818  1.0000
  O   O10       1.0  0.14714000000000002  0.9195  0.22764  1.0000
  O   O11       1.0  0.16581  0.25918  0.51304  1.0000
  O   O12       1.0  0.4078  0.14141000000000004  0.46008  1.0000
  O   O13       1.0  0.10473000000000002  0.15893999999999994  0.0484  1.0000
  O   O14       1.0  0.5367900000000002  0.9321199999999998  0.72767  1.0000
  O   O15       1.0  0.3411100000000001  0.90074  0.81274  1.0000
  O   O16       1.0  0.85728  0.12095000000000002  0.96382  1.0000
  O   O17       1.0  0.7697500000000002  0.30364  0.04026  1.0000
  O   O18       1.0  0.19877  0.20738  0.71745  1.0000
  O   O19       1.0  0.10451000000000003  0.18391000000000002  0.86621  1.0000
  O   O20       1.0  0.29436000000000007  0.85645  0.53294  1.0000
  O   O21       1.0  0.37041999999999997  0.75136  0.6746500000000001  1.0000
  O   O22       1.0  0.07875999999999998  0.016169999999999973  0.69182  1.0000
  O   O23       1.0  0.85285  0.08049000000000002  0.77236  1.0000
  O   O24       1.0  0.8341800000000003  0.7408099999999997  0.48696  1.0000
  O   O25       1.0  0.59219  0.85859  0.53992  1.0000
  O   O26       1.0  0.89526  0.84105  0.95161  1.0000
