data_image0
_chemical_formula_structural       Cd4H44C68N12O8
_chemical_formula_sum              "Cd4 H44 C68 N12 O8"
_cell_length_a       9.77041
_cell_length_b       10.53588
_cell_length_c       25.27146
_cell_angle_alpha    89.99909
_cell_angle_beta     90.0
_cell_angle_gamma    90.0

_symmetry_space_group_name_H-M    'P 1'
_symmetry_Int_Tables_number       1

loop_
  _symmetry_equiv_pos_as_xyz
  'x,y,z'

loop_
  _atom_site_type_symbol
  _atom_site_label
  _atom_site_symmetry_multiplicity
  _atom_site_fract_x
  _atom_site_fract_y
  _atom_site_fract_z
  _atom_site_occupancy
  Cd  Cd1       1.0  0.48385  0.26378  0.8630400000000001  1.0000
  Cd  Cd2       1.0  0.01614  0.73621  0.36304  1.0000
  Cd  Cd3       1.0  0.51614  0.76379  0.6369500000000002  1.0000
  Cd  Cd4       1.0  0.98385  0.23622  0.13695  1.0000
  H   H1        1.0  0.33885  0.26516  0.9721400000000002  1.0000
  H   H2        1.0  0.18926  0.84359  0.9126800000000002  1.0000
  H   H3        1.0  0.34774  0.98187  0.85875  1.0000
  H   H4        1.0  0.10588  0.9234099999999998  0.00066  1.0000
  H   H5        1.0  0.45716999999999997  0.19415  0.042120000000000005  1.0000
  H   H6        1.0  0.58561  0.32527  0.10667  1.0000
  H   H7        1.0  0.46048999999999995  0.43814999999999993  0.17878  1.0000
  H   H8        1.0  0.28376  0.82837  0.31556  1.0000
  H   H9        1.0  0.41939  0.80338  0.23206000000000004  1.0000
  H   H10       1.0  0.3695  0.6207  0.17261  1.0000
  H   H11       1.0  0.06705  0.49606999999999996  0.28556000000000004  1.0000
  H   H12       1.0  0.16113  0.7348399999999999  0.47214000000000006  1.0000
  H   H13       1.0  0.31072  0.15642  0.41268000000000005  1.0000
  H   H14       1.0  0.15225  0.01813  0.35874000000000006  1.0000
  H   H15       1.0  0.39411  0.07658  0.50066  1.0000
  H   H16       1.0  0.04283  0.8058399999999999  0.54211  1.0000
  H   H17       1.0  0.9143900000000001  0.6747399999999999  0.6066700000000002  1.0000
  H   H18       1.0  0.0395  0.56185  0.67878  1.0000
  H   H19       1.0  0.21623  0.17161999999999997  0.8155600000000002  1.0000
  H   H20       1.0  0.08061  0.19660999999999998  0.7320600000000002  1.0000
  H   H21       1.0  0.1305  0.3793  0.6726100000000002  1.0000
  H   H22       1.0  0.43294  0.50392  0.78556  1.0000
  H   H23       1.0  0.66113  0.76516  0.52786  1.0000
  H   H24       1.0  0.81072  0.34358  0.5873200000000001  1.0000
  H   H25       1.0  0.65224  0.48185999999999996  0.64125  1.0000
  H   H26       1.0  0.89411  0.4234099999999999  0.4993400000000001  1.0000
  H   H27       1.0  0.54283  0.69416  0.4578900000000001  1.0000
  H   H28       1.0  0.41439000000000004  0.8252499999999998  0.3933200000000001  1.0000
  H   H29       1.0  0.5395  0.9381399999999998  0.32122  1.0000
  H   H30       1.0  0.71623  0.32837999999999995  0.18444000000000002  1.0000
  H   H31       1.0  0.5806  0.30339  0.26794  1.0000
  H   H32       1.0  0.6305  0.1207  0.32739000000000007  1.0000
  H   H33       1.0  0.9329399999999999  0.99608  0.21444  1.0000
  H   H34       1.0  0.8388499999999999  0.23483999999999997  0.027850000000000003  1.0000
  H   H35       1.0  0.68926  0.6564  0.08731000000000001  1.0000
  H   H36       1.0  0.84774  0.51813  0.14125  1.0000
  H   H37       1.0  0.60588  0.57658  0.9993300000000002  1.0000
  H   H38       1.0  0.9571799999999999  0.30585  0.9578800000000002  1.0000
  H   H39       1.0  0.08561  0.17473  0.89332  1.0000
  H   H40       1.0  0.9604899999999998  0.06185  0.82122  1.0000
  H   H41       1.0  0.78376  0.67163  0.6844300000000002  1.0000
  H   H42       1.0  0.91939  0.6966099999999998  0.7679300000000002  1.0000
  H   H43       1.0  0.8695  0.8792999999999997  0.8273800000000002  1.0000
  H   H44       1.0  0.56705  0.00393  0.71444  1.0000
  C   C1        1.0  0.30634  0.16951999999999998  0.96171  1.0000
  C   C2        1.0  0.22313000000000002  0.09731999999999999  0.9962100000000003  1.0000
  C   C3        1.0  0.22129  0.9357199999999998  0.9276600000000003  1.0000
  C   C4        1.0  0.30849  0.01152  0.8971400000000003  1.0000
  C   C5        1.0  0.17599  0.97901  0.9765400000000002  1.0000
  C   C6        1.0  0.17607  0.14632  0.046990000000000004  1.0000
  C   C7        1.0  0.26036  0.23184  0.07836000000000001  1.0000
  C   C8        1.0  0.4025  0.24501  0.07298  1.0000
  C   C9        1.0  0.47492  0.31912  0.10938000000000003  1.0000
  C   C10       1.0  0.40439  0.3832499999999999  0.14954000000000003  1.0000
  C   C11       1.0  0.26213  0.3706999999999999  0.15354  1.0000
  C   C12       1.0  0.17746  0.42654  0.19495  1.0000
  C   C13       1.0  0.27004  0.74671  0.28991  1.0000
  C   C14       1.0  0.34484  0.7314999999999999  0.2433  1.0000
  C   C15       1.0  0.31902  0.6279199999999999  0.21082000000000006  1.0000
  C   C16       1.0  0.22101999999999997  0.5355299999999998  0.22621000000000005  1.0000
  C   C17       1.0  0.14804  0.56084  0.27356  1.0000
  C   C18       1.0  0.19366  0.83048  0.46171  1.0000
  C   C19       1.0  0.27688  0.90267  0.4962100000000001  1.0000
  C   C20       1.0  0.27871  0.06428  0.42766  1.0000
  C   C21       1.0  0.1915  0.98848  0.39714000000000005  1.0000
  C   C22       1.0  0.32401  0.02098  0.47653  1.0000
  C   C23       1.0  0.32392  0.85369  0.54699  1.0000
  C   C24       1.0  0.23963  0.7681499999999999  0.5783500000000001  1.0000
  C   C25       1.0  0.09749  0.75497  0.57297  1.0000
  C   C26       1.0  0.02508  0.68087  0.60937  1.0000
  C   C27       1.0  0.09561  0.61674  0.6495400000000002  1.0000
  C   C28       1.0  0.23786999999999997  0.62929  0.65354  1.0000
  C   C29       1.0  0.32253  0.57346  0.69495  1.0000
  C   C30       1.0  0.22995  0.25328  0.7899100000000002  1.0000
  C   C31       1.0  0.15515  0.26848999999999995  0.7433  1.0000
  C   C32       1.0  0.18098  0.37207  0.7108200000000002  1.0000
  C   C33       1.0  0.27897  0.46447  0.7262100000000002  1.0000
  C   C34       1.0  0.35195  0.43915  0.77356  1.0000
  C   C35       1.0  0.69366  0.66952  0.53829  1.0000
  C   C36       1.0  0.7768799999999999  0.59732  0.50379  1.0000
  C   C37       1.0  0.77871  0.43571999999999994  0.5723400000000001  1.0000
  C   C38       1.0  0.6915  0.51152  0.6028600000000001  1.0000
  C   C39       1.0  0.82401  0.47902  0.52346  1.0000
  C   C40       1.0  0.82392  0.6463  0.45301000000000013  1.0000
  C   C41       1.0  0.73963  0.73185  0.4216400000000001  1.0000
  C   C42       1.0  0.59749  0.7450199999999999  0.4270300000000001  1.0000
  C   C43       1.0  0.52508  0.81913  0.39062000000000013  1.0000
  C   C44       1.0  0.59561  0.88325  0.35046000000000005  1.0000
  C   C45       1.0  0.73787  0.8707  0.34646000000000005  1.0000
  C   C46       1.0  0.82253  0.9265399999999998  0.30505000000000004  1.0000
  C   C47       1.0  0.72995  0.24672  0.21009000000000005  1.0000
  C   C48       1.0  0.65515  0.23151  0.25670000000000004  1.0000
  C   C49       1.0  0.68098  0.12793  0.28918  1.0000
  C   C50       1.0  0.77897  0.03553  0.27379  1.0000
  C   C51       1.0  0.85195  0.060849999999999994  0.22644  1.0000
  C   C52       1.0  0.80634  0.33047999999999994  0.03829000000000001  1.0000
  C   C53       1.0  0.72312  0.40268  0.00379  1.0000
  C   C54       1.0  0.72129  0.56428  0.07233  1.0000
  C   C55       1.0  0.80849  0.48848  0.10285000000000002  1.0000
  C   C56       1.0  0.67599  0.52098  0.023460000000000005  1.0000
  C   C57       1.0  0.67607  0.35367999999999994  0.9530100000000002  1.0000
  C   C58       1.0  0.76037  0.26816  0.92164  1.0000
  C   C59       1.0  0.90251  0.25498999999999994  0.92702  1.0000
  C   C60       1.0  0.9749199999999999  0.18088  0.8906200000000002  1.0000
  C   C61       1.0  0.9043899999999999  0.11674999999999998  0.8504600000000002  1.0000
  C   C62       1.0  0.76213  0.1293  0.84646  1.0000
  C   C63       1.0  0.67746  0.07346  0.80505  1.0000
  C   C64       1.0  0.77004  0.7532899999999999  0.71008  1.0000
  C   C65       1.0  0.8448399999999999  0.7684999999999998  0.75669  1.0000
  C   C66       1.0  0.81902  0.87207  0.7891800000000001  1.0000
  C   C67       1.0  0.72102  0.96447  0.77378  1.0000
  C   C68       1.0  0.64804  0.93916  0.72644  1.0000
  N   N1        1.0  0.34714  0.12834999999999996  0.9139900000000002  1.0000
  N   N2        1.0  0.19443  0.29297  0.11881000000000001  1.0000
  N   N3        1.0  0.17153  0.66245  0.30419000000000007  1.0000
  N   N4        1.0  0.15286  0.87165  0.41399  1.0000
  N   N5        1.0  0.30557  0.70701  0.61881  1.0000
  N   N6        1.0  0.32846  0.33754  0.80419  1.0000
  N   N7        1.0  0.65286  0.62834  0.58601  1.0000
  N   N8        1.0  0.80557  0.79298  0.3811900000000001  1.0000
  N   N9        1.0  0.8284599999999999  0.16246  0.19581  1.0000
  N   N10       1.0  0.84713  0.37165  0.08601  1.0000
  N   N11       1.0  0.69443  0.20702  0.88118  1.0000
  N   N12       1.0  0.67153  0.8375499999999998  0.69581  1.0000
  O   O1        1.0  0.05602  0.38156999999999996  0.20348000000000002  1.0000
  O   O2        1.0  0.05554  0.11286999999999997  0.06362000000000001  1.0000
  O   O3        1.0  0.44397  0.6184299999999999  0.70349  1.0000
  O   O4        1.0  0.44444  0.8871399999999999  0.56362  1.0000
  O   O5        1.0  0.94397  0.88156  0.29651  1.0000
  O   O6        1.0  0.9444299999999999  0.61285  0.4363700000000001  1.0000
  O   O7        1.0  0.55602  0.11843  0.79651  1.0000
  O   O8        1.0  0.55554  0.38711999999999996  0.93637  1.0000
