data_image0
_chemical_formula_structural       Zn4H32C56N4O24
_chemical_formula_sum              "Zn4 H32 C56 N4 O24"
_cell_length_a       11.08559
_cell_length_b       11.11354
_cell_length_c       13.99991
_cell_angle_alpha    81.48484
_cell_angle_beta     89.21227
_cell_angle_gamma    87.41932999999999

_symmetry_space_group_name_H-M    'P 1'
_symmetry_Int_Tables_number       1

loop_
  _symmetry_equiv_pos_as_xyz
  'x,y,z'

loop_
  _atom_site_type_symbol
  _atom_site_label
  _atom_site_symmetry_multiplicity
  _atom_site_fract_x
  _atom_site_fract_y
  _atom_site_fract_z
  _atom_site_occupancy
  Zn  Zn1       1.0  0.72453  0.66397  0.6111  1.0000
  Zn  Zn2       1.0  0.72358  0.62205  0.81644  1.0000
  Zn  Zn3       1.0  0.27547  0.33603000000000005  0.3888999999999999  1.0000
  Zn  Zn4       1.0  0.27641999999999994  0.37795  0.18356  1.0000
  H   H1        1.0  0.53921  0.64812  0.46233999999999986  1.0000
  H   H2        1.0  0.5302299999999999  0.63119  0.28835  1.0000
  H   H3        1.0  0.53577  0.63337  0.96899  1.0000
  H   H4        1.0  0.91884  0.62281  0.14276  1.0000
  H   H5        1.0  0.9087699999999999  0.68682  0.45069  1.0000
  H   H6        1.0  0.78521  0.28562  0.57336  1.0000
  H   H7        1.0  0.5265599999999999  0.65132  0.14262  1.0000
  H   H8        1.0  0.11498999999999997  0.6415800000000003  0.56411  1.0000
  H   H9        1.0  0.91677  0.67713  0.27497  1.0000
  H   H10       1.0  0.7814999999999996  0.06332000000000002  0.56392  1.0000
  H   H11       1.0  0.9097499999999997  0.6114  0.9674799999999998  1.0000
  H   H12       1.0  0.3395  0.64869  0.56399  1.0000
  H   H13       1.0  0.20591999999999996  0.79734  0.94751  1.0000
  H   H14       1.0  0.21757999999999994  0.64505  0.0163  1.0000
  H   H15       1.0  0.63465  0.07355  0.009839999999999996  1.0000
  H   H16       1.0  0.5048899999999998  0.10370999999999998  0.93045  1.0000
  H   H17       1.0  0.4607899999999999  0.35188  0.53766  1.0000
  H   H18       1.0  0.46977  0.3688100000000001  0.7116499999999998  1.0000
  H   H19       1.0  0.46423  0.36663  0.03101  1.0000
  H   H20       1.0  0.08115999999999998  0.37719  0.85724  1.0000
  H   H21       1.0  0.09123  0.31318  0.5493  1.0000
  H   H22       1.0  0.21478999999999998  0.7143799999999999  0.42664  1.0000
  H   H23       1.0  0.47343999999999997  0.34867  0.85738  1.0000
  H   H24       1.0  0.88501  0.35841000000000006  0.43588999999999994  1.0000
  H   H25       1.0  0.08324000000000001  0.32286  0.72503  1.0000
  H   H26       1.0  0.2185  0.93668  0.43607999999999997  1.0000
  H   H27       1.0  0.09025  0.3886  0.03252  1.0000
  H   H28       1.0  0.66051  0.3513000000000001  0.4360099999999999  1.0000
  H   H29       1.0  0.79408  0.20265000000000002  0.05248999999999999  1.0000
  H   H30       1.0  0.78242  0.3549400000000001  0.9836899999999998  1.0000
  H   H31       1.0  0.36535  0.92645  0.99016  1.0000
  H   H32       1.0  0.4951099999999999  0.8962900000000003  0.06954  1.0000
  C   C1        1.0  0.7253099999999999  0.4037999999999999  0.72338  1.0000
  C   C2        1.0  0.72503  0.26991  0.72067  1.0000
  C   C3        1.0  0.96024  0.6407800000000001  0.7141299999999998  1.0000
  C   C4        1.0  0.68716  0.061080000000000016  0.79378  1.0000
  C   C5        1.0  0.7230799999999998  0.64163  0.15993  1.0000
  C   C6        1.0  0.15736  0.6622000000000002  0.79856  1.0000
  C   C7        1.0  0.6203399999999999  0.6536000000000001  0.41753  1.0000
  C   C8        1.0  0.61665  0.64551  0.31958  1.0000
  C   C9        1.0  0.7233799999999999  0.65272  0.2641  1.0000
  C   C10       1.0  0.09381  0.65116  0.71539  1.0000
  C   C11       1.0  0.6179599999999998  0.63202  0.011059999999999999  1.0000
  C   C12       1.0  0.8312499999999999  0.62876  0.10801  1.0000
  C   C13       1.0  0.82731  0.67566  0.41091  1.0000
  C   C14       1.0  0.75814  0.22165000000000004  0.6354199999999998  1.0000
  C   C15       1.0  0.6146699999999999  0.64264  0.10868  1.0000
  C   C16       1.0  0.68992  0.18582  0.79884  1.0000
  C   C17       1.0  0.2837  0.66611  0.7986499999999999  1.0000
  C   C18       1.0  0.16323  0.6486100000000001  0.6299799999999999  1.0000
  C   C19       1.0  0.48724999999999996  0.6524899999999999  0.71463  1.0000
  C   C20       1.0  0.35255999999999993  0.65888  0.7154499999999998  1.0000
  C   C21       1.0  0.7209100000000002  0.013269999999999999  0.71031  1.0000
  C   C22       1.0  0.8303299999999999  0.6693900000000002  0.31249  1.0000
  C   C23       1.0  0.75606  0.09815  0.63027  1.0000
  C   C24       1.0  0.82777  0.61951  0.010309999999999998  1.0000
  C   C25       1.0  0.28772  0.65237  0.63  1.0000
  C   C26       1.0  0.7225199999999999  0.8797  0.70515  1.0000
  C   C27       1.0  0.21412000000000003  0.69899  0.94416  1.0000
  C   C28       1.0  0.60421  0.09436999999999998  0.93471  1.0000
  C   C29       1.0  0.2747  0.59619  0.27662  1.0000
  C   C30       1.0  0.27497  0.73008  0.27933  1.0000
  C   C31       1.0  0.039760000000000004  0.35922  0.28587  1.0000
  C   C32       1.0  0.31284  0.9389100000000001  0.20621  1.0000
  C   C33       1.0  0.27692  0.35836  0.8400699999999998  1.0000
  C   C34       1.0  0.84264  0.33779  0.20144  1.0000
  C   C35       1.0  0.37966  0.34639  0.58247  1.0000
  C   C36       1.0  0.38334999999999997  0.35448000000000013  0.68042  1.0000
  C   C37       1.0  0.27662  0.34728  0.7359  1.0000
  C   C38       1.0  0.90619  0.34883  0.28461  1.0000
  C   C39       1.0  0.38204  0.3679799999999999  0.98893  1.0000
  C   C40       1.0  0.16874999999999998  0.37123  0.89198  1.0000
  C   C41       1.0  0.17269000000000004  0.32433  0.58909  1.0000
  C   C42       1.0  0.24186  0.7783500000000001  0.36457999999999996  1.0000
  C   C43       1.0  0.38533999999999996  0.35735000000000006  0.8913199999999999  1.0000
  C   C44       1.0  0.31008  0.81418  0.20115  1.0000
  C   C45       1.0  0.7162999999999999  0.33389  0.20134999999999995  1.0000
  C   C46       1.0  0.83677  0.35138  0.37002  1.0000
  C   C47       1.0  0.51276  0.3475  0.28536  1.0000
  C   C48       1.0  0.64744  0.3411200000000001  0.28454  1.0000
  C   C49       1.0  0.27909  0.98673  0.28968  1.0000
  C   C50       1.0  0.16966999999999993  0.3306100000000001  0.68751  1.0000
  C   C51       1.0  0.24394  0.9018400000000001  0.36972  1.0000
  C   C52       1.0  0.17223  0.38049  0.98969  1.0000
  C   C53       1.0  0.71228  0.34762  0.37  1.0000
  C   C54       1.0  0.27748  0.1203  0.29485  1.0000
  C   C55       1.0  0.78589  0.301  0.05584  1.0000
  C   C56       1.0  0.39578999999999986  0.90563  0.06529  1.0000
  N   N1        1.0  0.72407  0.6676400000000001  0.4631899999999999  1.0000
  N   N2        1.0  0.7227999999999999  0.62078  0.9624  1.0000
  N   N3        1.0  0.27593  0.33236  0.5368  1.0000
  N   N4        1.0  0.2772  0.37922  0.03759999999999999  1.0000
  O   O1        1.0  0.73348  0.4724900000000001  0.64251  1.0000
  O   O2        1.0  0.90941  0.6606000000000001  0.63189  1.0000
  O   O3        1.0  0.90826  0.6113700000000001  0.7954799999999997  1.0000
  O   O4        1.0  0.53955  0.6605899999999999  0.63237  1.0000
  O   O5        1.0  0.5392799999999999  0.6363700000000001  0.79628  1.0000
  O   O6        1.0  0.72732  0.80973  0.78572  1.0000
  O   O7        1.0  0.72066  0.8477100000000002  0.6215299999999998  1.0000
  O   O8        1.0  0.7158399999999999  0.43812  0.80638  1.0000
  O   O9        1.0  0.11325999999999997  0.66616  0.8906  1.0000
  O   O10       1.0  0.32235  0.67276  0.8907799999999999  1.0000
  O   O11       1.0  0.6484899999999999  4.00000000000025e-05  0.88134  1.0000
  O   O12       1.0  0.65435  0.20688000000000004  0.89035  1.0000
  O   O13       1.0  0.26652  0.52751  0.3574899999999999  1.0000
  O   O14       1.0  0.09059000000000002  0.33940000000000003  0.36810999999999994  1.0000
  O   O15       1.0  0.09174  0.38863000000000003  0.20452  1.0000
  O   O16       1.0  0.46046  0.3393999999999999  0.36763  1.0000
  O   O17       1.0  0.46072  0.36363  0.20371  1.0000
  O   O18       1.0  0.2726799999999999  0.19026  0.21427  1.0000
  O   O19       1.0  0.27934  0.15228000000000003  0.37846999999999986  1.0000
  O   O20       1.0  0.28416  0.56187  0.19362  1.0000
  O   O21       1.0  0.8867399999999999  0.33384  0.10938999999999997  1.0000
  O   O22       1.0  0.67765  0.32724  0.10921  1.0000
  O   O23       1.0  0.35150999999999993  0.99996  0.11866  1.0000
  O   O24       1.0  0.34565  0.79312  0.10964  1.0000
