data_image0
_chemical_formula_structural       Zn6H36C36N24
_chemical_formula_sum              "Zn6 H36 C36 N24"
_cell_length_a       14.73329
_cell_length_b       14.73245
_cell_length_c       14.73256
_cell_angle_alpha    109.53261
_cell_angle_beta     109.57471
_cell_angle_gamma    109.57485

_symmetry_space_group_name_H-M    'P 1'
_symmetry_Int_Tables_number       1

loop_
  _symmetry_equiv_pos_as_xyz
  'x,y,z'

loop_
  _atom_site_type_symbol
  _atom_site_label
  _atom_site_symmetry_multiplicity
  _atom_site_fract_x
  _atom_site_fract_y
  _atom_site_fract_z
  _atom_site_occupancy
  Zn  Zn1       1.0  0.7501000000000002  0.2503300000000001  0.50025  1.0000
  Zn  Zn2       1.0  0.25038  0.75014  0.50025  1.0000
  Zn  Zn3       1.0  0.50025  0.2503500000000001  0.75012  1.0000
  Zn  Zn4       1.0  0.50025  0.75012  0.25035  1.0000
  Zn  Zn5       1.0  0.7501000000000003  0.50025  0.25033  1.0000
  Zn  Zn6       1.0  0.25038000000000016  0.5002500000000002  0.7501400000000001  1.0000
  H   H1        1.0  0.5720300000000003  0.11550000000000005  0.23613000000000003  1.0000
  H   H2        1.0  0.4280300000000002  0.6640700000000002  0.54347  1.0000
  H   H3        1.0  0.8798700000000003  0.33612000000000003  0.7643  1.0000
  H   H4        1.0  0.11978000000000008  0.8838700000000003  0.45594  1.0000
  H   H5        1.0  0.5434400000000001  0.42803000000000024  0.66408  1.0000
  H   H6        1.0  0.23615000000000003  0.5720300000000001  0.11546  1.0000
  H   H7        1.0  0.45597000000000004  0.11982000000000002  0.88389  1.0000
  H   H8        1.0  0.7643000000000002  0.87984  0.3361199999999999  1.0000
  H   H9        1.0  0.8838700000000003  0.4559700000000001  0.11982999999999999  1.0000
  H   H10       1.0  0.33609999999999995  0.76425  0.87983  1.0000
  H   H11       1.0  0.66409  0.5434400000000003  0.42799  1.0000
  H   H12       1.0  0.11549  0.23619000000000007  0.57205  1.0000
  H   H13       1.0  0.42803000000000013  0.54347  0.66406  1.0000
  H   H14       1.0  0.5720300000000003  0.23613000000000006  0.11549  1.0000
  H   H15       1.0  0.11978000000000001  0.4559400000000001  0.88386  1.0000
  H   H16       1.0  0.8798700000000003  0.7643099999999999  0.3361199999999999  1.0000
  H   H17       1.0  0.45596999999999993  0.88389  0.11982  1.0000
  H   H18       1.0  0.7643000000000002  0.33612000000000003  0.8798399999999998  1.0000
  H   H19       1.0  0.54344  0.66408  0.42802  1.0000
  H   H20       1.0  0.23615  0.11546  0.57203  1.0000
  H   H21       1.0  0.11549000000000004  0.5720600000000002  0.23618999999999998  1.0000
  H   H22       1.0  0.66409  0.428  0.54344  1.0000
  H   H23       1.0  0.33610000000000023  0.8798300000000002  0.76425  1.0000
  H   H24       1.0  0.8838700000000003  0.11983000000000002  0.45597  1.0000
  H   H25       1.0  0.6601500000000002  0.0002599999999999852  0.45951999999999993  1.0000
  H   H26       1.0  0.3401200000000001  0.79926  0.3401  1.0000
  H   H27       1.0  0.54021  0.20045000000000004  0.54022  1.0000
  H   H28       1.0  0.45953  0.0003000000000000321  0.66016  1.0000
  H   H29       1.0  0.34012000000000003  0.3401  0.7992599999999999  1.0000
  H   H30       1.0  0.45953000000000005  0.6601600000000002  0.0003  1.0000
  H   H31       1.0  0.6601500000000002  0.4595200000000001  0.00027  1.0000
  H   H32       1.0  0.5402100000000001  0.54022  0.20045000000000002  1.0000
  H   H33       1.0  0.00029000000000007503  0.6601200000000003  0.4594599999999999  1.0000
  H   H34       1.0  0.20049  0.54029  0.54029  1.0000
  H   H35       1.0  0.7992200000000003  0.34015  0.34014999999999995  1.0000
  H   H36       1.0  0.00029000000000001475  0.45946000000000004  0.66012  1.0000
  C   C1        1.0  0.57413  0.057160000000000016  0.2649  1.0000
  C   C2        1.0  0.4258500000000001  0.6907600000000003  0.48304  1.0000
  C   C3        1.0  0.79256  0.3094  0.73536  1.0000
  C   C4        1.0  0.20725000000000016  0.9423500000000002  0.51663  1.0000
  C   C5        1.0  0.48301000000000016  0.4258500000000001  0.69076  1.0000
  C   C6        1.0  0.2649100000000001  0.57413  0.05713  1.0000
  C   C7        1.0  0.51665  0.20727  0.94237  1.0000
  C   C8        1.0  0.7353600000000002  0.79254  0.3094  1.0000
  C   C9        1.0  0.9423400000000002  0.5166400000000002  0.20728  1.0000
  C   C10       1.0  0.30939  0.7353299999999999  0.7925299999999998  1.0000
  C   C11       1.0  0.69078  0.48302  0.42582  1.0000
  C   C12       1.0  0.05716000000000001  0.26494  0.57415  1.0000
  C   C13       1.0  0.42585  0.48304  0.69076  1.0000
  C   C14       1.0  0.57413  0.26491  0.05716  1.0000
  C   C15       1.0  0.20725  0.5166300000000001  0.9423399999999998  1.0000
  C   C16       1.0  0.79256  0.7353600000000001  0.3094  1.0000
  C   C17       1.0  0.51665  0.9423700000000003  0.20727  1.0000
  C   C18       1.0  0.7353600000000002  0.30940000000000006  0.7925400000000001  1.0000
  C   C19       1.0  0.4830100000000002  0.6907600000000003  0.42585  1.0000
  C   C20       1.0  0.26491  0.057130000000000014  0.57413  1.0000
  C   C21       1.0  0.05716000000000006  0.57415  0.26494  1.0000
  C   C22       1.0  0.69078  0.4258300000000001  0.48302  1.0000
  C   C23       1.0  0.3093900000000001  0.79254  0.73533  1.0000
  C   C24       1.0  0.9423400000000002  0.20728000000000002  0.51664  1.0000
  C   C25       1.0  0.62203  0.00015999999999999578  0.38242  1.0000
  C   C26       1.0  0.37812  0.7603600000000001  0.37811  1.0000
  C   C27       1.0  0.6174700000000001  0.23958000000000004  0.61747  1.0000
  C   C28       1.0  0.3824200000000001  0.00018000000000001926  0.62203  1.0000
  C   C29       1.0  0.37812  0.37811  0.76036  1.0000
  C   C30       1.0  0.3824200000000001  0.62203  0.00017999999999999998  1.0000
  C   C31       1.0  0.62203  0.3824200000000001  0.00016  1.0000
  C   C32       1.0  0.6174700000000001  0.61747  0.23958  1.0000
  C   C33       1.0  0.00016999999999996917  0.62201  0.38238  1.0000
  C   C34       1.0  0.23961  0.61751  0.61751  1.0000
  C   C35       1.0  0.7603400000000002  0.37813  0.37812999999999997  1.0000
  C   C36       1.0  0.00017000000000002945  0.3823800000000001  0.62201  1.0000
  N   N1        1.0  0.64101  0.0934  0.3759  1.0000
  N   N2        1.0  0.3592  0.7347800000000002  0.45233  1.0000
  N   N3        1.0  0.7174700000000002  0.26529000000000014  0.62436  1.0000
  N   N4        1.0  0.28218000000000015  0.90663  0.54753  1.0000
  N   N5        1.0  0.4523100000000001  0.35917  0.73478  1.0000
  N   N6        1.0  0.3759100000000001  0.64103  0.09341  1.0000
  N   N7        1.0  0.54755  0.28219  0.90662  1.0000
  N   N8        1.0  0.62435  0.7174600000000001  0.2653  1.0000
  N   N9        1.0  0.90661  0.5475200000000001  0.28216  1.0000
  N   N10       1.0  0.2653100000000001  0.62436  0.7175  1.0000
  N   N11       1.0  0.7347700000000003  0.4523400000000002  0.35918000000000005  1.0000
  N   N12       1.0  0.09343000000000005  0.3759000000000001  0.64102  1.0000
  N   N13       1.0  0.3592  0.45233  0.73478  1.0000
  N   N14       1.0  0.64101  0.3759000000000001  0.0934  1.0000
  N   N15       1.0  0.2821800000000002  0.5475300000000002  0.90663  1.0000
  N   N16       1.0  0.71747  0.62436  0.26529  1.0000
  N   N17       1.0  0.54755  0.90663  0.28219  1.0000
  N   N18       1.0  0.6243500000000002  0.2653  0.71746  1.0000
  N   N19       1.0  0.4523100000000002  0.7347800000000002  0.35917  1.0000
  N   N20       1.0  0.37591000000000013  0.09341000000000008  0.64103  1.0000
  N   N21       1.0  0.09343000000000011  0.6410200000000003  0.3759  1.0000
  N   N22       1.0  0.7347700000000003  0.35918  0.45233999999999996  1.0000
  N   N23       1.0  0.26531000000000005  0.7175  0.62436  1.0000
  N   N24       1.0  0.90661  0.28216  0.54752  1.0000
