data_image0
_chemical_formula_structural       Mn6H16W4C48N40
_chemical_formula_sum              "Mn6 H16 W4 C48 N40"
_cell_length_a       7.16726
_cell_length_b       13.23594
_cell_length_c       21.98809
_cell_angle_alpha    90.80154999999999
_cell_angle_beta     98.84560000000002
_cell_angle_gamma    90.29754

_space_group_name_H-M_alt    "P 1"
_space_group_IT_number       1

loop_
  _space_group_symop_operation_xyz
  'x, y, z'

loop_
  _atom_site_type_symbol
  _atom_site_label
  _atom_site_symmetry_multiplicity
  _atom_site_fract_x
  _atom_site_fract_y
  _atom_site_fract_z
  _atom_site_occupancy
  Mn  Mn1       1.0  0.76178  0.53869  0.76442  1.0000
  Mn  Mn2       1.0  0.74241  0.0372  0.73582  1.0000
  Mn  Mn3       1.0  0.24406999999999995  0.46885  0.2363  1.0000
  Mn  Mn4       1.0  0.25512  0.9707899999999998  0.26726  1.0000
  Mn  Mn5       1.0  0.57529  0.4636599999999999  0.50649  1.0000
  Mn  Mn6       1.0  0.95036  0.9831599999999999  0.99599  1.0000
  H   H1        1.0  0.6919  0.48553999999999997  0.63383  1.0000
  H   H2        1.0  0.60929  0.73471  0.52023  1.0000
  H   H3        1.0  0.72592  0.84746  0.61049  1.0000
  H   H4        1.0  0.78611  0.76736  0.71673  1.0000
  H   H5        1.0  0.8180699999999999  0.98713  0.8669  1.0000
  H   H6        1.0  0.8819399999999998  0.24026  0.9824  1.0000
  H   H7        1.0  0.7702799999999999  0.34982  0.8921600000000001  1.0000
  H   H8        1.0  0.71971  0.26563  0.78521  1.0000
  H   H9        1.0  0.3258  0.51596  0.3734100000000001  1.0000
  H   H10       1.0  0.35069000000000006  0.25416  0.47605000000000003  1.0000
  H   H11       1.0  0.24697999999999998  0.15128  0.37931  1.0000
  H   H12       1.0  0.21685999999999994  0.24373  0.27783  1.0000
  H   H13       1.0  0.17962999999999996  0.01626  0.12978  1.0000
  H   H14       1.0  0.13292999999999996  0.75691  0.01933  1.0000
  H   H15       1.0  0.24909999999999996  0.65277  0.11144  1.0000
  H   H16       1.0  0.2957599999999999  0.74134  0.21615000000000004  1.0000
  W   W1        1.0  0.21308999999999997  0.29148999999999997  0.6714  1.0000
  W   W2        1.0  0.29212  0.79406  0.82856  1.0000
  W   W3        1.0  0.7956999999999997  0.70032  0.33247  1.0000
  W   W4        1.0  0.7063799999999998  0.22114999999999996  0.16741  1.0000
  C   C1        1.0  0.4406999999999999  0.38603  0.7154  1.0000
  C   C2        1.0  0.4287299999999999  0.18332  0.68532  1.0000
  C   C3        1.0  0.015159999999999993  0.18303  0.68941  1.0000
  C   C4        1.0  0.05107999999999997  0.39843  0.71218  1.0000
  C   C5        1.0  0.36232  0.36179  0.60762  1.0000
  C   C6        1.0  0.19626999999999992  0.19322  0.59187  1.0000
  C   C7        1.0  0.9787500000000001  0.34787  0.60354  1.0000
  C   C8        1.0  0.25309  0.25709  0.76821  1.0000
  C   C9        1.0  0.68865  0.56667  0.62878  1.0000
  C   C10       1.0  0.64788  0.70355  0.56588  1.0000
  C   C11       1.0  0.70769  0.7667799999999999  0.61669  1.0000
  C   C12       1.0  0.74744  0.7235599999999999  0.67432  1.0000
  C   C13       1.0  0.06461000000000004  0.88776  0.7857500000000001  1.0000
  C   C14       1.0  0.0756  0.6855499999999998  0.81598  1.0000
  C   C15       1.0  0.4875300000000001  0.68551  0.8088300000000002  1.0000
  C   C16       1.0  0.4540699999999999  0.8999199999999998  0.7874000000000001  1.0000
  C   C17       1.0  0.15144  0.87083  0.8940999999999999  1.0000
  C   C18       1.0  0.308  0.69687  0.9067  1.0000
  C   C19       1.0  0.53244  0.84894  0.89559  1.0000
  C   C20       1.0  0.24527  0.75483  0.73171  1.0000
  C   C21       1.0  0.8171  0.06866  0.87211  1.0000
  C   C22       1.0  0.84744  0.2082  0.93617  1.0000
  C   C23       1.0  0.78999  0.26927  0.88561  1.0000
  C   C24       1.0  0.75709  0.22387999999999994  0.82761  1.0000
  C   C25       1.0  0.57894  0.6077  0.28924  1.0000
  C   C26       1.0  0.5656100000000001  0.8044099999999998  0.32295  1.0000
  C   C27       1.0  0.9592399999999999  0.83073  0.32099  1.0000
  C   C28       1.0  0.9618999999999995  0.60645  0.28775  1.0000
  C   C29       1.0  0.7174399999999997  0.58958  0.39433  1.0000
  C   C30       1.0  0.7946999999999997  0.77869  0.41707  1.0000
  C   C31       1.0  0.05339  0.65955  0.39044  1.0000
  C   C32       1.0  0.74068  0.73491  0.23632  1.0000
  C   C33       1.0  0.31768999999999986  0.4341  0.37437  1.0000
  C   C34       1.0  0.3259399999999999  0.28934  0.43111  1.0000
  C   C35       1.0  0.2715199999999999  0.23229999999999995  0.37756  1.0000
  C   C36       1.0  0.25006  0.28273  0.32203  1.0000
  C   C37       1.0  0.9384099999999997  0.13725  0.21442  1.0000
  C   C38       1.0  0.9139599999999998  0.33279  0.17837  1.0000
  C   C39       1.0  0.51529  0.32842  0.18391  1.0000
  C   C40       1.0  0.55766  0.11953  0.21793  1.0000
  C   C41       1.0  0.8091599999999999  0.11991  0.10431  1.0000
  C   C42       1.0  0.70131  0.31069  0.08489  1.0000
  C   C43       1.0  0.45562999999999987  0.17086  0.10618000000000001  1.0000
  C   C44       1.0  0.7606399999999998  0.2714  0.26198  1.0000
  C   C45       1.0  0.18569999999999998  0.9344  0.12671  1.0000
  C   C46       1.0  0.16482  0.79153  0.06502  1.0000
  C   C47       1.0  0.22605999999999996  0.73344  0.11641  1.0000
  C   C48       1.0  0.2569  0.78211  0.17354  1.0000
  N   N1        1.0  0.5725799999999998  0.43413  0.73921  1.0000
  N   N2        1.0  0.9502899999999996  0.6263  0.80605  1.0000
  N   N3        1.0  0.5848899999999998  0.61855  0.79685  1.0000
  N   N4        1.0  0.9490499999999997  0.45036  0.7377800000000001  1.0000
  N   N5        1.0  0.45191  0.39325  0.57052  1.0000
  N   N6        1.0  0.20123  0.14395  0.54771  1.0000
  N   N7        1.0  0.85594  0.38126  0.56722  1.0000
  N   N8        1.0  0.28294  0.23663  0.8202700000000002  1.0000
  N   N9        1.0  0.7369699999999998  0.62238  0.67993  1.0000
  N   N10       1.0  0.6365299999999999  0.60209  0.572  1.0000
  N   N11       1.0  0.9343299999999999  0.9354  0.76217  1.0000
  N   N12       1.0  0.5525499999999998  0.12431  0.69566  1.0000
  N   N13       1.0  0.9198900000000001  0.11521  0.70139  1.0000
  N   N14       1.0  0.55691  0.9497299999999999  0.76136  1.0000
  N   N15       1.0  0.06511999999999998  0.90668  0.93113  1.0000
  N   N16       1.0  0.30222000000000004  0.6465399999999999  0.9497400000000001  1.0000
  N   N17       1.0  0.6593799999999997  0.8817899999999999  0.93139  1.0000
  N   N18       1.0  0.2122199999999999  0.73289  0.67944  1.0000
  N   N19       1.0  0.7699599999999998  0.12274  0.8213  1.0000
  N   N20       1.0  0.8627099999999999  0.10707  0.92915  1.0000
  N   N21       1.0  0.4527499999999999  0.55762  0.26404  1.0000
  N   N22       1.0  0.03182999999999998  0.39581999999999995  0.19263  1.0000
  N   N23       1.0  0.40385999999999994  0.38544  0.19873000000000002  1.0000
  N   N24       1.0  0.07245  0.56274  0.26243  1.0000
  N   N25       1.0  0.6791099999999998  0.53397  0.43199  1.0000
  N   N26       1.0  0.7904600000000002  0.82537  0.46262  1.0000
  N   N27       1.0  0.19138999999999995  0.63352  0.42265  1.0000
  N   N28       1.0  0.7017699999999998  0.7540999999999999  0.18364  1.0000
  N   N29       1.0  0.2687599999999999  0.3841099999999999  0.32084  1.0000
  N   N30       1.0  0.35616000000000003  0.39024  0.42960000000000004  1.0000
  N   N31       1.0  0.06150999999999999  0.08799999999999997  0.24072000000000002  1.0000
  N   N32       1.0  0.45225999999999994  0.86923  0.31483  1.0000
  N   N33       1.0  0.053070000000000006  0.90047  0.31356  1.0000
  N   N34       1.0  0.4690199999999999  0.07089  0.24797  1.0000
  N   N35       1.0  0.85755  0.06333  0.06827  1.0000
  N   N36       1.0  0.7097299999999997  0.35932999999999987  0.04099  1.0000
  N   N37       1.0  0.31874999999999987  0.13949  0.07429  1.0000
  N   N38       1.0  0.7990999999999998  0.30041  0.31341  1.0000
  N   N39       1.0  0.23651999999999992  0.8833  0.17894  1.0000
  N   N40       1.0  0.14114000000000004  0.89255  0.07021  1.0000
