data_image0
_chemical_formula_structural       Ag8P4H48C24S4N12
_chemical_formula_sum              "Ag8 P4 H48 C24 S4 N12"
_cell_length_a       8.31894
_cell_length_b       10.69268
_cell_length_c       12.482650000000001
_cell_angle_alpha    90.00786
_cell_angle_beta     97.28485
_cell_angle_gamma    89.99953999999998

_space_group_name_H-M_alt    "P 1"
_space_group_IT_number       1

loop_
  _space_group_symop_operation_xyz
  'x, y, z'

loop_
  _atom_site_type_symbol
  _atom_site_label
  _atom_site_symmetry_multiplicity
  _atom_site_fract_x
  _atom_site_fract_y
  _atom_site_fract_z
  _atom_site_occupancy
  Ag  Ag1       1.0  0.07952000000000005  0.14436  0.7122400000000001  1.0000
  Ag  Ag2       1.0  0.44302000000000014  0.26514  0.84188  1.0000
  Ag  Ag3       1.0  0.30403  0.94722  0.16692000000000004  1.0000
  Ag  Ag4       1.0  0.18933  0.06404  0.94892  1.0000
  Ag  Ag5       1.0  0.92062  0.64442  0.28786  1.0000
  Ag  Ag6       1.0  0.55683  0.76513  0.15818  1.0000
  Ag  Ag7       1.0  0.6959100000000003  0.4472  0.83315  1.0000
  Ag  Ag8       1.0  0.8107700000000002  0.56417  0.0512  1.0000
  P   P1        1.0  0.29546  0.44883  0.88828  1.0000
  P   P2        1.0  0.23711000000000007  0.49590999999999996  0.39282  1.0000
  P   P3        1.0  0.7046200000000002  0.94885  0.11188  1.0000
  P   P4        1.0  0.7630700000000002  0.996  0.60727  1.0000
  H   H1        1.0  0.13867000000000004  0.53389  0.7261400000000002  1.0000
  H   H2        1.0  0.34111000000000014  0.59312  0.74338  1.0000
  H   H3        1.0  0.5293000000000001  0.56793  0.9588200000000002  1.0000
  H   H4        1.0  0.4431500000000001  0.4962599999999999  0.06466  1.0000
  H   H5        1.0  0.12846  0.4001799999999999  0.02831  1.0000
  H   H6        1.0  0.005950000000000005  0.4089999999999999  0.90056  1.0000
  H   H7        1.0  0.20671  0.58514  0.12898  1.0000
  H   H8        1.0  0.13463000000000006  0.73351  0.08087  1.0000
  H   H9        1.0  0.98082  0.75127  0.9048900000000001  1.0000
  H   H10       1.0  0.9373000000000001  0.61797  0.8208100000000003  1.0000
  H   H11       1.0  0.41241000000000017  0.7555500000000002  0.87741  1.0000
  H   H12       1.0  0.25673000000000007  0.8345  0.93587  1.0000
  H   H13       1.0  0.022030000000000004  0.44965  0.50193  1.0000
  H   H14       1.0  0.20565  0.49364  0.58279  1.0000
  H   H15       1.0  0.50979  0.49467  0.4914600000000001  1.0000
  H   H16       1.0  0.51386  0.45924000000000004  0.35259  1.0000
  H   H17       1.0  0.20757  0.38793  0.21928000000000003  1.0000
  H   H18       1.0  0.02252  0.38645000000000007  0.27789  1.0000
  H   H19       1.0  0.39247000000000015  0.18594  0.57238  1.0000
  H   H20       1.0  0.42874  0.3423  0.61419  1.0000
  H   H21       1.0  0.99243  0.2455  0.42516  1.0000
  H   H22       1.0  0.14345  0.12923  0.46227  1.0000
  H   H23       1.0  0.3935500000000002  0.13203  0.3788000000000001  1.0000
  H   H24       1.0  0.42563  0.25307  0.28665  1.0000
  H   H25       1.0  0.8614800000000002  0.03413  0.27399  1.0000
  H   H26       1.0  0.65904  0.0933  0.25677  1.0000
  H   H27       1.0  0.47076  0.06792  0.0413  1.0000
  H   H28       1.0  0.55691  0.9961699999999999  0.93548  1.0000
  H   H29       1.0  0.87167  0.9001299999999999  0.97185  1.0000
  H   H30       1.0  0.99417  0.90912  0.09956000000000001  1.0000
  H   H31       1.0  0.79327  0.08506  0.87107  1.0000
  H   H32       1.0  0.8653399999999999  0.23345  0.91918  1.0000
  H   H33       1.0  0.01915  0.25135  0.09512  1.0000
  H   H34       1.0  0.06275  0.1181  0.17924  1.0000
  H   H35       1.0  0.5876000000000002  0.25561  0.12265000000000001  1.0000
  H   H36       1.0  0.7432800000000003  0.33453  0.06416  1.0000
  H   H37       1.0  0.9782700000000001  0.9495  0.49832000000000004  1.0000
  H   H38       1.0  0.79478  0.99366  0.41736000000000006  1.0000
  H   H39       1.0  0.49054000000000003  0.99494  0.50847  1.0000
  H   H40       1.0  0.4862000000000001  0.95958  0.64734  1.0000
  H   H41       1.0  0.79225  0.88812  0.78081  1.0000
  H   H42       1.0  0.9774  0.8864199999999999  0.7222800000000001  1.0000
  H   H43       1.0  0.6074900000000002  0.68605  0.4276600000000001  1.0000
  H   H44       1.0  0.57145  0.8424299999999999  0.38583  1.0000
  H   H45       1.0  0.007470000000000003  0.74539  0.5751  1.0000
  H   H46       1.0  0.8563100000000001  0.62922  0.53789  1.0000
  H   H47       1.0  0.6061100000000003  0.63225  0.62121  1.0000
  H   H48       1.0  0.57402  0.75337  0.71332  1.0000
  C   C1        1.0  0.23558  0.572  0.78498  1.0000
  C   C2        1.0  0.4121900000000001  0.54823  0.98901  1.0000
  C   C3        1.0  0.10771000000000006  0.45346  0.9527200000000002  1.0000
  C   C4        1.0  0.18160000000000007  0.64319  0.05656  1.0000
  C   C5        1.0  0.02926000000000004  0.66221  0.87963  1.0000
  C   C6        1.0  0.2993700000000001  0.74211  0.9126500000000002  1.0000
  C   C7        1.0  0.15438  0.4372  0.51346  1.0000
  C   C8        1.0  0.4489500000000001  0.4413099999999999  0.4228300000000001  1.0000
  C   C9        1.0  0.15485  0.3748699999999999  0.2949  1.0000
  C   C10       1.0  0.37238  0.28355  0.54743  1.0000
  C   C11       1.0  0.12342  0.22779999999999997  0.43958  1.0000
  C   C12       1.0  0.3719800000000001  0.23158  0.36042  1.0000
  C   C13       1.0  0.76452  0.07213  0.21514  1.0000
  C   C14       1.0  0.5878600000000003  0.0482  0.01112  1.0000
  C   C15       1.0  0.89236  0.95349  0.04741000000000001  1.0000
  C   C16       1.0  0.81841  0.14316  0.9435  1.0000
  C   C17       1.0  0.97075  0.1623  0.12040000000000001  1.0000
  C   C18       1.0  0.70064  0.24216  0.0874  1.0000
  C   C19       1.0  0.84588  0.93718  0.48669  1.0000
  C   C20       1.0  0.55119  0.94157  0.57714  1.0000
  C   C21       1.0  0.8450400000000002  0.87495  0.7052400000000002  1.0000
  C   C22       1.0  0.62767  0.7837  0.4526  1.0000
  C   C23       1.0  0.87644  0.72778  0.5606  1.0000
  C   C24       1.0  0.6277300000000002  0.73182  0.63959  1.0000
  S   S1        1.0  0.32951  0.056159999999999995  0.78715  1.0000
  S   S2        1.0  0.20439  0.67675  0.35544  1.0000
  S   S3        1.0  0.6706100000000003  0.55617  0.21295000000000006  1.0000
  S   S4        1.0  0.7958000000000001  0.17686  0.64464  1.0000
  N   N1        1.0  0.17645  0.68704  0.83115  1.0000
  N   N2        1.0  0.33305  0.66599  0.011230000000000002  1.0000
  N   N3        1.0  0.05568000000000002  0.58165  0.97826  1.0000
  N   N4        1.0  0.1953  0.30449  0.53147  1.0000
  N   N5        1.0  0.45134  0.30737  0.45021  1.0000
  N   N6        1.0  0.19529000000000002  0.25014  0.33942000000000005  1.0000
  N   N7        1.0  0.82359  0.18714  0.16890000000000002  1.0000
  N   N8        1.0  0.66697  0.16594  0.9888500000000002  1.0000
  N   N9        1.0  0.94434  0.08166  0.02181  1.0000
  N   N10       1.0  0.8048  0.80448  0.46868  1.0000
  N   N11       1.0  0.54861  0.8076100000000002  0.54976  1.0000
  N   N12       1.0  0.80445  0.75024  0.6607  1.0000
