data_image0
_chemical_formula_structural       Zn4H48C76N4O16
_chemical_formula_sum              "Zn4 H48 C76 N4 O16"
_cell_length_a       14.00136
_cell_length_b       15.36485
_cell_length_c       15.338529999999999
_cell_angle_alpha    88.40883
_cell_angle_beta     86.02469
_cell_angle_gamma    85.39247

_symmetry_space_group_name_H-M    'P 1'
_symmetry_Int_Tables_number       1

loop_
  _symmetry_equiv_pos_as_xyz
  'x,y,z'

loop_
  _atom_site_type_symbol
  _atom_site_label
  _atom_site_symmetry_multiplicity
  _atom_site_fract_x
  _atom_site_fract_y
  _atom_site_fract_z
  _atom_site_occupancy
  Zn  Zn1       1.0  0.8920500000000001  0.8368999999999998  0.60168  1.0000
  Zn  Zn2       1.0  0.68914  0.8502499999999997  0.6118500000000002  1.0000
  Zn  Zn3       1.0  0.10795  0.16309999999999994  0.3983200000000001  1.0000
  Zn  Zn4       1.0  0.31086000000000014  0.14974999999999994  0.38815  1.0000
  H   H1        1.0  0.92493  0.7630999999999998  0.8736  1.0000
  H   H2        1.0  0.9274900000000003  0.7555199999999997  0.03546  1.0000
  H   H3        1.0  0.6426600000000002  0.88603  0.0565  1.0000
  H   H4        1.0  0.63525  0.82208  0.18266  1.0000
  H   H5        1.0  0.63919  0.88662  0.89482  1.0000
  H   H6        1.0  0.64171  0.8351899999999998  0.34312  1.0000
  H   H7        1.0  0.9481500000000002  0.83633  0.31322  1.0000
  H   H8        1.0  0.9435900000000003  0.8271099999999998  0.1528  1.0000
  H   H9        1.0  0.9370900000000002  0.1067  0.6116300000000002  1.0000
  H   H10       1.0  0.62983  0.13686  0.61563  1.0000
  H   H11       1.0  0.63457  0.29855  0.61377  1.0000
  H   H12       1.0  0.94373  0.26677  0.61328  1.0000
  H   H13       1.0  0.93198  0.3892599999999999  0.54069  1.0000
  H   H14       1.0  0.938  0.55106  0.53923  1.0000
  H   H15       1.0  0.02999  0.97529  0.59984  1.0000
  H   H16       1.0  0.05770000000000001  0.7051999999999998  0.6129000000000002  1.0000
  H   H17       1.0  0.23570000000000005  0.70179  0.61355  1.0000
  H   H18       1.0  0.20556  0.9846799999999998  0.60647  1.0000
  H   H19       1.0  0.36866  0.71351  0.66347  1.0000
  H   H20       1.0  0.34921000000000013  0.9784499999999998  0.55753  1.0000
  H   H21       1.0  0.5465600000000002  0.7211799999999998  0.65927  1.0000
  H   H22       1.0  0.5263900000000001  0.9767399999999998  0.56802  1.0000
  H   H23       1.0  0.6605700000000002  0.57815  0.67606  1.0000
  H   H24       1.0  0.6558  0.4165199999999999  0.68392  1.0000
  H   H25       1.0  0.07507  0.23689999999999994  0.1264  1.0000
  H   H26       1.0  0.07251000000000002  0.24449  0.96454  1.0000
  H   H27       1.0  0.3573400000000001  0.11397000000000002  0.9435  1.0000
  H   H28       1.0  0.36475  0.17792999999999995  0.81734  1.0000
  H   H29       1.0  0.36081  0.11337999999999997  0.10518  1.0000
  H   H30       1.0  0.35828  0.16482  0.6568800000000002  1.0000
  H   H31       1.0  0.05185000000000001  0.16367  0.68678  1.0000
  H   H32       1.0  0.05641000000000003  0.17288999999999993  0.8472  1.0000
  H   H33       1.0  0.06291000000000001  0.8933099999999998  0.38837  1.0000
  H   H34       1.0  0.37017000000000005  0.8631399999999998  0.38437  1.0000
  H   H35       1.0  0.3654299999999999  0.7014499999999998  0.38623  1.0000
  H   H36       1.0  0.05627000000000002  0.7332299999999998  0.3867200000000001  1.0000
  H   H37       1.0  0.06802  0.61075  0.4593100000000001  1.0000
  H   H38       1.0  0.06200000000000002  0.4489399999999999  0.46078  1.0000
  H   H39       1.0  0.9700100000000004  0.024710000000000003  0.40016  1.0000
  H   H40       1.0  0.9423  0.2947999999999999  0.3871  1.0000
  H   H41       1.0  0.7643  0.29821  0.38645  1.0000
  H   H42       1.0  0.79444  0.01532  0.39353  1.0000
  H   H43       1.0  0.63134  0.2865  0.33653  1.0000
  H   H44       1.0  0.65079  0.021550000000000003  0.44247  1.0000
  H   H45       1.0  0.4534400000000001  0.27882  0.34073  1.0000
  H   H46       1.0  0.4736  0.023259999999999996  0.43198  1.0000
  H   H47       1.0  0.3394300000000001  0.4218499999999999  0.32394  1.0000
  H   H48       1.0  0.3442000000000001  0.5834799999999998  0.31608  1.0000
  C   C1        1.0  0.78275  0.8324299999999998  0.7764700000000002  1.0000
  C   C2        1.0  0.7823500000000002  0.826  0.87418  1.0000
  C   C3        1.0  0.8633700000000003  0.78907  0.9146900000000002  1.0000
  C   C4        1.0  0.8646300000000001  0.7859999999999998  0.005440000000000002  1.0000
  C   C5        1.0  0.7041300000000001  0.85707  0.017220000000000006  1.0000
  C   C6        1.0  0.7967000000000002  0.84511  0.43502  1.0000
  C   C7        1.0  0.79495  0.8373199999999997  0.33817  1.0000
  C   C8        1.0  0.7041400000000001  0.8265099999999997  0.21028  1.0000
  C   C9        1.0  0.7020199999999998  0.8585799999999998  0.92654  1.0000
  C   C10       1.0  0.70703  0.8333099999999998  0.30028  1.0000
  C   C11       1.0  0.8799700000000004  0.8335599999999997  0.28392  1.0000
  C   C12       1.0  0.8769600000000002  0.8274399999999997  0.19376  1.0000
  C   C13       1.0  0.78897  0.8242699999999997  0.15481  1.0000
  C   C14       1.0  0.7857000000000002  0.8215099999999997  0.05868  1.0000
  C   C15       1.0  0.78093  0.01483  0.61078  1.0000
  C   C16       1.0  0.7830200000000003  0.11177999999999998  0.6140200000000001  1.0000
  C   C17       1.0  0.8711300000000001  0.14923999999999996  0.61317  1.0000
  C   C18       1.0  0.69784  0.16648999999999997  0.6153400000000002  1.0000
  C   C19       1.0  0.70106  0.25683  0.61504  1.0000
  C   C20       1.0  0.8744  0.23938999999999994  0.61331  1.0000
  C   C21       1.0  0.7893800000000002  0.2950599999999999  0.61387  1.0000
  C   C22       1.0  0.7930300000000002  0.3908999999999999  0.61187  1.0000
  C   C23       1.0  0.8727900000000001  0.43027  0.57157  1.0000
  C   C24       1.0  0.87623  0.5206799999999998  0.56985  1.0000
  C   C25       1.0  0.79913  0.5744799999999998  0.60666  1.0000
  C   C26       1.0  0.07862000000000002  0.9166899999999998  0.6039600000000002  1.0000
  C   C27       1.0  0.09438000000000003  0.7651699999999998  0.61084  1.0000
  C   C28       1.0  0.19345000000000007  0.7642899999999998  0.61243  1.0000
  C   C29       1.0  0.23713  0.8435699999999998  0.6103  1.0000
  C   C30       1.0  0.17696000000000006  0.9209799999999998  0.6069  1.0000
  C   C31       1.0  0.34239  0.8456499999999998  0.61107  1.0000
  C   C32       1.0  0.40012000000000014  0.7728799999999998  0.63982  1.0000
  C   C33       1.0  0.38871  0.9204999999999998  0.58331  1.0000
  C   C34       1.0  0.49897  0.7765399999999998  0.63914  1.0000
  C   C35       1.0  0.48769000000000023  0.9196899999999998  0.58664  1.0000
  C   C36       1.0  0.80034  0.67194  0.60355  1.0000
  C   C37       1.0  0.7193800000000001  0.5358599999999998  0.64669  1.0000
  C   C38       1.0  0.71676  0.44553  0.65007  1.0000
  C   C39       1.0  0.21725  0.16756999999999994  0.22353  1.0000
  C   C40       1.0  0.21765000000000004  0.17400999999999994  0.12582  1.0000
  C   C41       1.0  0.13662999999999997  0.21094  0.08531  1.0000
  C   C42       1.0  0.13537  0.214  0.99456  1.0000
  C   C43       1.0  0.29587000000000013  0.14292999999999995  0.98278  1.0000
  C   C44       1.0  0.2033  0.15489  0.56498  1.0000
  C   C45       1.0  0.20505000000000004  0.16269  0.66183  1.0000
  C   C46       1.0  0.2958600000000001  0.17349999999999993  0.78972  1.0000
  C   C47       1.0  0.29798  0.14142  0.07346  1.0000
  C   C48       1.0  0.29297  0.16669  0.69972  1.0000
  C   C49       1.0  0.12003  0.16644  0.71608  1.0000
  C   C50       1.0  0.12304000000000001  0.17255999999999994  0.80624  1.0000
  C   C51       1.0  0.21103  0.17573  0.8451900000000002  1.0000
  C   C52       1.0  0.21430000000000002  0.17849  0.94132  1.0000
  C   C53       1.0  0.21907000000000007  0.9851799999999997  0.38922  1.0000
  C   C54       1.0  0.21698000000000003  0.8882299999999997  0.38598  1.0000
  C   C55       1.0  0.12887000000000004  0.8507699999999998  0.3868300000000001  1.0000
  C   C56       1.0  0.3021600000000001  0.83352  0.38466  1.0000
  C   C57       1.0  0.29894000000000004  0.7431799999999997  0.38496  1.0000
  C   C58       1.0  0.1256  0.76062  0.38669  1.0000
  C   C59       1.0  0.21062000000000006  0.7049399999999998  0.38613  1.0000
  C   C60       1.0  0.2069700000000001  0.6091  0.38813  1.0000
  C   C61       1.0  0.12721  0.56973  0.4284300000000001  1.0000
  C   C62       1.0  0.12377  0.47932  0.43015  1.0000
  C   C63       1.0  0.20087  0.42552  0.39334  1.0000
  C   C64       1.0  0.92138  0.08330999999999997  0.39604  1.0000
  C   C65       1.0  0.9056200000000001  0.23482999999999996  0.38916  1.0000
  C   C66       1.0  0.80655  0.23570999999999995  0.38757  1.0000
  C   C67       1.0  0.7628700000000003  0.15643  0.3897000000000001  1.0000
  C   C68       1.0  0.8230400000000002  0.07902999999999998  0.3931  1.0000
  C   C69       1.0  0.65761  0.15434999999999993  0.3889300000000001  1.0000
  C   C70       1.0  0.59988  0.22711999999999993  0.36018  1.0000
  C   C71       1.0  0.61129  0.07949999999999997  0.41669  1.0000
  C   C72       1.0  0.50103  0.22346999999999997  0.36086  1.0000
  C   C73       1.0  0.51231  0.08030999999999998  0.41336  1.0000
  C   C74       1.0  0.19966  0.32807  0.39645  1.0000
  C   C75       1.0  0.28062  0.46414  0.35331  1.0000
  C   C76       1.0  0.28324  0.5544799999999998  0.34993000000000013  1.0000
  N   N1        1.0  0.03771999999999999  0.84009  0.60585  1.0000
  N   N2        1.0  0.54231  0.8489899999999998  0.61327  1.0000
  N   N3        1.0  0.96228  0.15992  0.39415  1.0000
  N   N4        1.0  0.45769  0.15101999999999996  0.38673  1.0000
  O   O1        1.0  0.6996100000000002  0.9843499999999997  0.60425  1.0000
  O   O2        1.0  0.8614100000000001  0.96985  0.61347  1.0000
  O   O3        1.0  0.86348  0.8173699999999998  0.73372  1.0000
  O   O4        1.0  0.7027000000000001  0.8532699999999998  0.74326  1.0000
  O   O5        1.0  0.7193800000000001  0.71517  0.61811  1.0000
  O   O6        1.0  0.8810100000000001  0.7040699999999998  0.5864500000000001  1.0000
  O   O7        1.0  0.71524  0.84842  0.47862  1.0000
  O   O8        1.0  0.87808  0.8491  0.4667100000000001  1.0000
  O   O9        1.0  0.3003900000000001  0.01565  0.39575  1.0000
  O   O10       1.0  0.13859  0.030160000000000003  0.38653  1.0000
  O   O11       1.0  0.13652000000000003  0.18262999999999996  0.26628  1.0000
  O   O12       1.0  0.29730000000000006  0.14674  0.25674  1.0000
  O   O13       1.0  0.2806200000000001  0.28483  0.38189  1.0000
  O   O14       1.0  0.11899  0.29593  0.41355  1.0000
  O   O15       1.0  0.28476  0.15158999999999995  0.52138  1.0000
  O   O16       1.0  0.12192000000000006  0.15089999999999995  0.53329  1.0000
