data_image0
_chemical_formula_structural       Zn10H20C44N12O28
_chemical_formula_sum              "Zn10 H20 C44 N12 O28"
_cell_length_a       10.12774
_cell_length_b       10.13129
_cell_length_c       21.75121
_cell_angle_alpha    96.24996
_cell_angle_beta     99.65635
_cell_angle_gamma    114.03532

_symmetry_space_group_name_H-M    'P 1'
_symmetry_Int_Tables_number       1

loop_
  _symmetry_equiv_pos_as_xyz
  'x,y,z'

loop_
  _atom_site_type_symbol
  _atom_site_label
  _atom_site_symmetry_multiplicity
  _atom_site_fract_x
  _atom_site_fract_y
  _atom_site_fract_z
  _atom_site_occupancy
  Zn  Zn1       1.0  0.05481999999999999  0.15526  0.27789  1.0000
  Zn  Zn2       1.0  0.96614  0.9814  0.13771  1.0000
  Zn  Zn3       1.0  0.37848  0.77698  0.22210999999999995  1.0000
  Zn  Zn4       1.0  0.34566000000000013  0.82862  0.36198  1.0000
  Zn  Zn5       1.0  0.94519  0.8447600000000001  0.7221099999999999  1.0000
  Zn  Zn6       1.0  0.03385999999999994  0.018599999999999957  0.8622899999999999  1.0000
  Zn  Zn7       1.0  0.62153  0.22305000000000003  0.7779  1.0000
  Zn  Zn8       1.0  0.65433  0.17139999999999997  0.6380199999999999  1.0000
  Zn  Zn9       1.0  0.13094000000000003  0.8802800000000001  0.24999999999999994  1.0000
  Zn  Zn10      1.0  0.8690299999999999  0.11972999999999989  0.7499999999999998  1.0000
  H   H1        1.0  0.29598  0.17424  0.4661999999999999  1.0000
  H   H2        1.0  0.20436  0.16373  0.65291  1.0000
  H   H3        1.0  0.89321  0.18783999999999998  0.49831999999999993  1.0000
  H   H4        1.0  0.7024600000000001  0.05228000000000001  0.30544  1.0000
  H   H5        1.0  0.59023  0.7612  0.13107  1.0000
  H   H6        1.0  0.20672000000000001  0.82996  0.03379  1.0000
  H   H7        1.0  0.011699999999999966  0.5514999999999999  0.8470099999999999  1.0000
  H   H8        1.0  0.18962000000000004  0.39559  0.00196  1.0000
  H   H9        1.0  0.24663  0.39659  0.19439  1.0000
  H   H10       1.0  0.13095  0.4596  0.36893999999999993  1.0000
  H   H11       1.0  0.70402  0.82576  0.53381  1.0000
  H   H12       1.0  0.79564  0.83628  0.34709  1.0000
  H   H13       1.0  0.10678999999999998  0.81217  0.50168  1.0000
  H   H14       1.0  0.29755  0.94774  0.69457  1.0000
  H   H15       1.0  0.40976999999999986  0.23881  0.8689299999999998  1.0000
  H   H16       1.0  0.79328  0.17004999999999995  0.9662099999999999  1.0000
  H   H17       1.0  0.9882999999999998  0.44852  0.15299  1.0000
  H   H18       1.0  0.81038  0.60441  0.99804  1.0000
  H   H19       1.0  0.7533800000000002  0.6034299999999999  0.8056199999999998  1.0000
  H   H20       1.0  0.86905  0.54041  0.63106  1.0000
  C   C1        1.0  0.09118999999999995  0.18442999999999996  0.4756199999999999  1.0000
  C   C2        1.0  0.22555999999999993  0.17744999999999994  0.4984099999999999  1.0000
  C   C3        1.0  0.26749  0.17112  0.56236  1.0000
  C   C4        1.0  0.17390000000000005  0.17029999999999995  0.60339  1.0000
  C   C5        1.0  0.03853999999999999  0.17525  0.58033  1.0000
  C   C6        1.0  0.99815  0.18397999999999995  0.5165299999999999  1.0000
  C   C7        1.0  0.04470999999999995  0.18679999999999997  0.40673999999999993  1.0000
  C   C8        1.0  0.40906000000000003  0.16281000000000004  0.58639  1.0000
  C   C9        1.0  0.93428  0.16419999999999998  0.6233  1.0000
  C   C10       1.0  0.7080899999999999  0.99827  0.2609  1.0000
  C   C11       1.0  0.65167  0.85004  0.17200999999999997  1.0000
  C   C12       1.0  0.20832  0.61603  0.02471  1.0000
  C   C13       1.0  0.17816  0.72719  0.00176  1.0000
  C   C14       1.0  0.10816000000000006  0.70482  0.93773  1.0000
  C   C15       1.0  0.0673599999999999  0.5705299999999998  0.8966299999999998  1.0000
  C   C16       1.0  0.09578  0.45871  0.9199299999999999  1.0000
  C   C17       1.0  0.16761000000000004  0.4823200000000001  0.98383  1.0000
  C   C18       1.0  0.27922  0.63801  0.09351999999999999  1.0000
  C   C19       1.0  0.07572999999999996  0.82266  0.91403  1.0000
  C   C20       1.0  0.042769999999999864  0.3110199999999999  0.8776399999999998  1.0000
  C   C21       1.0  0.23732000000000003  0.44687  0.23894999999999997  1.0000
  C   C22       1.0  0.17841  0.47978000000000004  0.32787999999999995  1.0000
  C   C23       1.0  0.9088100000000001  0.8155799999999999  0.5243799999999998  1.0000
  C   C24       1.0  0.77443  0.82255  0.50159  1.0000
  C   C25       1.0  0.7325  0.82888  0.43764  1.0000
  C   C26       1.0  0.82609  0.82971  0.3966099999999999  1.0000
  C   C27       1.0  0.9614600000000001  0.82476  0.41968  1.0000
  C   C28       1.0  0.0018399999999999632  0.81603  0.48346999999999996  1.0000
  C   C29       1.0  0.9552999999999999  0.81323  0.59327  1.0000
  C   C30       1.0  0.5909399999999999  0.8371999999999999  0.4136099999999999  1.0000
  C   C31       1.0  0.06570999999999994  0.8358  0.3767  1.0000
  C   C32       1.0  0.29192  0.001750000000000002  0.7391  1.0000
  C   C33       1.0  0.34833  0.14996999999999996  0.82799  1.0000
  C   C34       1.0  0.79168  0.3839799999999999  0.9753  1.0000
  C   C35       1.0  0.8218399999999999  0.27280999999999994  0.9982499999999997  1.0000
  C   C36       1.0  0.8918400000000001  0.29519  0.06227999999999999  1.0000
  C   C37       1.0  0.9326400000000001  0.42948  0.10337  1.0000
  C   C38       1.0  0.90423  0.5413  0.08007  1.0000
  C   C39       1.0  0.83239  0.51769  0.016169999999999997  1.0000
  C   C40       1.0  0.72078  0.36199  0.90649  1.0000
  C   C41       1.0  0.92427  0.17735  0.08598  1.0000
  C   C42       1.0  0.95723  0.68899  0.12235999999999998  1.0000
  C   C43       1.0  0.76269  0.55315  0.76106  1.0000
  C   C44       1.0  0.8216000000000001  0.52023  0.67212  1.0000
  N   N1        1.0  0.7952499999999999  0.94003  0.18272  1.0000
  N   N2        1.0  0.8318800000000001  0.035250000000000004  0.23981  1.0000
  N   N3        1.0  0.59267  0.88223  0.21983999999999998  1.0000
  N   N4        1.0  0.25786  0.6125  0.31713  1.0000
  N   N5        1.0  0.29581  0.5918  0.26004  1.0000
  N   N6        1.0  0.16234999999999994  0.37269  0.28003  1.0000
  N   N7        1.0  0.20475999999999991  0.059969999999999975  0.81728  1.0000
  N   N8        1.0  0.16813000000000006  0.96476  0.7601899999999999  1.0000
  N   N9        1.0  0.40733999999999987  0.11778999999999996  0.7801599999999999  1.0000
  N   N10       1.0  0.74214  0.38751  0.68287  1.0000
  N   N11       1.0  0.70419  0.40822  0.73997  1.0000
  N   N12       1.0  0.8376600000000001  0.6273299999999999  0.7199799999999998  1.0000
  O   O1        1.0  0.11906999999999993  0.1530499999999999  0.36958999999999986  1.0000
  O   O2        1.0  0.9407100000000002  0.22036  0.38769  1.0000
  O   O3        1.0  0.51225  0.19338000000000002  0.55602  1.0000
  O   O4        1.0  0.4322199999999999  0.12557  0.6403799999999998  1.0000
  O   O5        1.0  0.98607  0.17958  0.68248  1.0000
  O   O6        1.0  0.80178  0.14016  0.59623  1.0000
  O   O7        1.0  0.11238999999999999  0.039959999999999996  0.21877999999999997  1.0000
  O   O8        1.0  0.28037  0.74778  0.13088  1.0000
  O   O9        1.0  0.33368  0.5542  0.11231  1.0000
  O   O10       1.0  0.13516999999999996  0.9550699999999999  0.94537  1.0000
  O   O11       1.0  0.98639  0.7932  0.8596299999999999  1.0000
  O   O12       1.0  0.99939  0.30135999999999996  0.81825  1.0000
  O   O13       1.0  0.04669999999999989  0.20703999999999995  0.9056399999999998  1.0000
  O   O14       1.0  0.32160999999999995  0.89336  0.28107999999999994  1.0000
  O   O15       1.0  0.88092  0.8469499999999999  0.6304099999999999  1.0000
  O   O16       1.0  0.059310000000000064  0.7796900000000001  0.6123099999999999  1.0000
  O   O17       1.0  0.4877399999999998  0.8066199999999999  0.44396999999999986  1.0000
  O   O18       1.0  0.56778  0.87444  0.35962  1.0000
  O   O19       1.0  0.013919999999999972  0.8204299999999999  0.3175199999999999  1.0000
  O   O20       1.0  0.19822000000000012  0.85984  0.40378  1.0000
  O   O21       1.0  0.88762  0.96006  0.7812199999999999  1.0000
  O   O22       1.0  0.71963  0.25223  0.86913  1.0000
  O   O23       1.0  0.66633  0.4458099999999999  0.8876899999999999  1.0000
  O   O24       1.0  0.8648199999999999  0.04493  0.05463999999999999  1.0000
  O   O25       1.0  0.013620000000000007  0.20681000000000002  0.14038  1.0000
  O   O26       1.0  0.0006099999999999954  0.69865  0.18175  1.0000
  O   O27       1.0  0.9533000000000001  0.79296  0.09436  1.0000
  O   O28       1.0  0.6783699999999998  0.10665999999999996  0.7189199999999999  1.0000
