data_image0
_chemical_formula_structural       Ag8H32C32I8N24
_chemical_formula_sum              "Ag8 H32 C32 I8 N24"
_cell_length_a       5.85955
_cell_length_b       13.69471
_cell_length_c       20.71853
_cell_angle_alpha    89.99791
_cell_angle_beta     90.00721
_cell_angle_gamma    117.16014000000001

_space_group_name_H-M_alt    "P 1"
_space_group_IT_number       1

loop_
  _space_group_symop_operation_xyz
  'x, y, z'

loop_
  _atom_site_type_symbol
  _atom_site_label
  _atom_site_symmetry_multiplicity
  _atom_site_fract_x
  _atom_site_fract_y
  _atom_site_fract_z
  _atom_site_occupancy
  Ag  Ag1       1.0  0.1581300000000001  0.90386  0.39553  1.0000
  Ag  Ag2       1.0  0.6329799999999998  0.90484  0.12875000000000003  1.0000
  Ag  Ag3       1.0  0.6328800000000001  0.40484  0.37126000000000003  1.0000
  Ag  Ag4       1.0  0.1582399999999999  0.4038599999999999  0.10446000000000001  1.0000
  Ag  Ag5       1.0  0.36700999999999995  0.59516  0.6287300000000001  1.0000
  Ag  Ag6       1.0  0.84182  0.59614  0.89554  1.0000
  Ag  Ag7       1.0  0.84197  0.09614999999999999  0.60445  1.0000
  Ag  Ag8       1.0  0.36686  0.09515  0.8712500000000001  1.0000
  H   H1        1.0  0.8407299999999999  0.60083  0.3139  1.0000
  H   H2        1.0  0.38419999999999993  0.62845  0.31812  1.0000
  H   H3        1.0  0.7023699999999999  0.45415  0.5119  1.0000
  H   H4        1.0  0.06652999999999999  0.8072  0.53547  1.0000
  H   H5        1.0  0.45911999999999986  0.74254  0.04971  1.0000
  H   H6        1.0  0.33728  0.60189  0.03944  1.0000
  H   H7        1.0  0.5257200000000001  0.8108799999999999  0.26633000000000007  1.0000
  H   H8        1.0  0.2457299999999999  0.46284999999999993  0.24215000000000003  1.0000
  H   H9        1.0  0.45913  0.24252  0.45032  1.0000
  H   H10       1.0  0.33707  0.10185999999999998  0.46058  1.0000
  H   H11       1.0  0.52579  0.31089  0.23371  1.0000
  H   H12       1.0  0.24561999999999978  0.9628299999999999  0.25787  1.0000
  H   H13       1.0  0.84078  0.10076  0.18607  1.0000
  H   H14       1.0  0.38406  0.12842  0.18191  1.0000
  H   H15       1.0  0.7023100000000001  0.95413  0.9880700000000001  1.0000
  H   H16       1.0  0.06634  0.30717  0.96452  1.0000
  H   H17       1.0  0.54069  0.75748  0.54966  1.0000
  H   H18       1.0  0.66294  0.89814  0.53941  1.0000
  H   H19       1.0  0.47414  0.68911  0.76628  1.0000
  H   H20       1.0  0.7547500000000001  0.03719  0.74212  1.0000
  H   H21       1.0  0.15937000000000007  0.89925  0.81393  1.0000
  H   H22       1.0  0.61615  0.87158  0.81808  1.0000
  H   H23       1.0  0.29743000000000014  0.04587  0.01193  1.0000
  H   H24       1.0  0.93358  0.69283  0.03547  1.0000
  H   H25       1.0  0.15939999999999993  0.39919  0.68608  1.0000
  H   H26       1.0  0.61603  0.37156  0.68187  1.0000
  H   H27       1.0  0.29749  0.54585  0.48809000000000013  1.0000
  H   H28       1.0  0.9334599999999997  0.19280999999999995  0.46452  1.0000
  H   H29       1.0  0.54052  0.25743  0.9502800000000001  1.0000
  H   H30       1.0  0.66258  0.39809  0.9605600000000001  1.0000
  H   H31       1.0  0.47417999999999993  0.18910999999999997  0.73367  1.0000
  H   H32       1.0  0.75459  0.53716  0.75784  1.0000
  C   C1        1.0  0.8862199999999999  0.62785  0.53343  1.0000
  C   C2        1.0  0.78695  0.53754  0.49265  1.0000
  C   C3        1.0  0.89829  0.65487  0.40052  1.0000
  C   C4        1.0  0.98847  0.73296  0.50585  1.0000
  C   C5        1.0  0.46414000000000016  0.73699  0.23692000000000002  1.0000
  C   C6        1.0  0.3838  0.63533  0.26591  1.0000
  C   C7        1.0  0.3093999999999999  0.54621  0.22467000000000006  1.0000
  C   C8        1.0  0.3939999999999999  0.65639  0.13459  1.0000
  C   C9        1.0  0.46409  0.23697999999999997  0.26311000000000007  1.0000
  C   C10       1.0  0.38369999999999993  0.13532  0.23412000000000005  1.0000
  C   C11       1.0  0.30926  0.04619  0.27535  1.0000
  C   C12       1.0  0.39387  0.15637  0.3654300000000001  1.0000
  C   C13       1.0  0.88606  0.12783  0.96656  1.0000
  C   C14       1.0  0.78682  0.0375  0.0073300000000000014  1.0000
  C   C15       1.0  0.8982900000000003  0.15483  0.09947  1.0000
  C   C16       1.0  0.98832  0.23292  0.9941500000000002  1.0000
  C   C17       1.0  0.5359  0.76302  0.73688  1.0000
  C   C18       1.0  0.6164499999999997  0.8646899999999997  0.7658600000000001  1.0000
  C   C19       1.0  0.6909499999999998  0.95382  0.7246400000000002  1.0000
  C   C20       1.0  0.60611  0.84363  0.6345500000000001  1.0000
  C   C21       1.0  0.11388000000000005  0.87217  0.03343  1.0000
  C   C22       1.0  0.2129799999999999  0.9624899999999998  0.99267  1.0000
  C   C23       1.0  0.10157  0.84517  0.90053  1.0000
  C   C24       1.0  0.011539999999999833  0.7670799999999999  0.00584  1.0000
  C   C25       1.0  0.11371999999999988  0.37215999999999994  0.46656  1.0000
  C   C26       1.0  0.21294999999999986  0.46245999999999987  0.5073400000000001  1.0000
  C   C27       1.0  0.10174  0.34514  0.5994800000000001  1.0000
  C   C28       1.0  0.011509999999999975  0.26704  0.49415000000000003  1.0000
  C   C29       1.0  0.53584  0.26301  0.76307  1.0000
  C   C30       1.0  0.61635  0.36467  0.7340900000000002  1.0000
  C   C31       1.0  0.6908099999999999  0.45379  0.77532  1.0000
  C   C32       1.0  0.6059499999999998  0.3436  0.8654000000000001  1.0000
  I   I1        1.0  0.8777099999999999  0.6053  0.6343500000000002  1.0000
  I   I2        1.0  0.66115  0.90776  0.39713  1.0000
  I   I3        1.0  0.6612699999999999  0.40778999999999993  0.10285000000000001  1.0000
  I   I4        1.0  0.8775300000000001  0.10527  0.86563  1.0000
  I   I5        1.0  0.33876  0.59221  0.89715  1.0000
  I   I6        1.0  0.12228999999999976  0.8947199999999998  0.13436  1.0000
  I   I7        1.0  0.12218000000000005  0.3947  0.36564  1.0000
  I   I8        1.0  0.33894  0.09224  0.60286  1.0000
  N   N1        1.0  0.99326  0.74594  0.44249000000000005  1.0000
  N   N2        1.0  0.91576  0.67368  0.3388800000000001  1.0000
  N   N3        1.0  0.79003  0.54904  0.42837  1.0000
  N   N4        1.0  0.3096299999999999  0.5548  0.16009  1.0000
  N   N5        1.0  0.4067  0.66786  0.06996000000000001  1.0000
  N   N6        1.0  0.4721299999999998  0.7479599999999998  0.17229  1.0000
  N   N7        1.0  0.30948  0.05479  0.33994  1.0000
  N   N8        1.0  0.40663  0.16783  0.43007000000000006  1.0000
  N   N9        1.0  0.47201999999999994  0.24794  0.32775000000000004  1.0000
  N   N10       1.0  0.99326  0.24591  0.057510000000000006  1.0000
  N   N11       1.0  0.91585  0.17363  0.16111000000000003  1.0000
  N   N12       1.0  0.78999  0.04900999999999999  0.07162000000000002  1.0000
  N   N13       1.0  0.69063  0.94522  0.6600500000000001  1.0000
  N   N14       1.0  0.59331  0.83217  0.56991  1.0000
  N   N15       1.0  0.5278899999999997  0.75205  0.6722400000000001  1.0000
  N   N16       1.0  0.006789999999999766  0.7540899999999999  0.94249  1.0000
  N   N17       1.0  0.08431000000000002  0.82637  0.8388900000000001  1.0000
  N   N18       1.0  0.21001999999999968  0.9509899999999998  0.92838  1.0000
  N   N19       1.0  0.006820000000000002  0.25407  0.55749  1.0000
  N   N20       1.0  0.0844  0.32633  0.6610900000000001  1.0000
  N   N21       1.0  0.20994  0.45097  0.57161  1.0000
  N   N22       1.0  0.69046  0.4451899999999999  0.83991  1.0000
  N   N23       1.0  0.59324  0.33213  0.93004  1.0000
  N   N24       1.0  0.52774  0.25203  0.82771  1.0000
