data_image0
_chemical_formula_structural       Cd4H36C48Br4N12O16
_chemical_formula_sum              "Cd4 H36 C48 Br4 N12 O16"
_cell_length_a       7.94814
_cell_length_b       14.35179
_cell_length_c       16.81434
_cell_angle_alpha    104.29722
_cell_angle_beta     90.0
_cell_angle_gamma    90.0

_symmetry_space_group_name_H-M    'P 1'
_symmetry_Int_Tables_number       1

loop_
  _symmetry_equiv_pos_as_xyz
  'x,y,z'

loop_
  _atom_site_type_symbol
  _atom_site_label
  _atom_site_symmetry_multiplicity
  _atom_site_fract_x
  _atom_site_fract_y
  _atom_site_fract_z
  _atom_site_occupancy
  Cd  Cd1       1.0  0.6923599999999998  0.8618800000000001  0.83893  1.0000
  Cd  Cd2       1.0  0.19235  0.6381199999999999  0.66107  1.0000
  Cd  Cd3       1.0  0.30765  0.13812  0.16107  1.0000
  Cd  Cd4       1.0  0.8076499999999998  0.36188  0.33893  1.0000
  H   H1        1.0  0.8599699999999998  0.11223  0.07953  1.0000
  H   H2        1.0  0.07981  0.32461  0.91021  1.0000
  H   H3        1.0  0.9474899999999998  0.16556  0.84315  1.0000
  H   H4        1.0  0.43147999999999986  0.66216  0.82727  1.0000
  H   H5        1.0  0.62936  0.85362  0.03734999999999999  1.0000
  H   H6        1.0  0.25414  0.5598899999999999  0.9024399999999998  1.0000
  H   H7        1.0  0.2512799999999999  0.59397  0.01116  1.0000
  H   H8        1.0  0.3730999999999999  0.42761  0.95043  1.0000
  H   H9        1.0  0.53786  0.48066  0.90748  1.0000
  H   H10       1.0  0.3599699999999999  0.38776  0.42046999999999995  1.0000
  H   H11       1.0  0.5798099999999998  0.17537999999999995  0.5897899999999998  1.0000
  H   H12       1.0  0.4474899999999999  0.33443  0.65685  1.0000
  H   H13       1.0  0.9314799999999998  0.83783  0.67273  1.0000
  H   H14       1.0  0.12935999999999995  0.64638  0.46265  1.0000
  H   H15       1.0  0.7541399999999998  0.9401  0.59756  1.0000
  H   H16       1.0  0.75129  0.90602  0.48884  1.0000
  H   H17       1.0  0.8731099999999998  0.07238  0.54957  1.0000
  H   H18       1.0  0.03786  0.019340000000000024  0.59251  1.0000
  H   H19       1.0  0.14002999999999993  0.8877600000000001  0.92047  1.0000
  H   H20       1.0  0.9201999999999998  0.67539  0.08979  1.0000
  H   H21       1.0  0.05250999999999999  0.83444  0.15685  1.0000
  H   H22       1.0  0.56852  0.3378399999999999  0.17273  1.0000
  H   H23       1.0  0.3706399999999999  0.14638000000000004  0.96265  1.0000
  H   H24       1.0  0.74586  0.4401  0.09756  1.0000
  H   H25       1.0  0.74872  0.4060200000000001  0.9888400000000002  1.0000
  H   H26       1.0  0.6269  0.57238  0.04957  1.0000
  H   H27       1.0  0.4621399999999999  0.51934  0.09251  1.0000
  H   H28       1.0  0.64003  0.6122299999999998  0.5795299999999998  1.0000
  H   H29       1.0  0.4202  0.82461  0.41021  1.0000
  H   H30       1.0  0.5525099999999997  0.66556  0.34315  1.0000
  H   H31       1.0  0.06852  0.16216  0.32727  1.0000
  H   H32       1.0  0.8706399999999997  0.35362  0.53735  1.0000
  H   H33       1.0  0.24585999999999994  0.05989  0.40244  1.0000
  H   H34       1.0  0.24872  0.09397  0.51116  1.0000
  H   H35       1.0  0.1269  0.92762  0.45042999999999994  1.0000
  H   H36       1.0  0.9621399999999998  0.98066  0.40749  1.0000
  C   C1        1.0  0.8941699999999998  0.13027  0.9577  1.0000
  C   C2        1.0  0.9080299999999998  0.15942  0.04310999999999999  1.0000
  C   C3        1.0  0.9794799999999998  0.24823  0.08165  1.0000
  C   C4        1.0  0.03829  0.30667  0.03231  1.0000
  C   C5        1.0  0.030129999999999994  0.27806  0.9467299999999997  1.0000
  C   C6        1.0  0.9569199999999998  0.18966999999999992  0.9095999999999997  1.0000
  C   C7        1.0  0.81506  0.035310000000000015  0.91878  1.0000
  C   C8        1.0  0.9817699999999998  0.27843  0.17391  1.0000
  C   C9        1.0  0.4682099999999999  0.69596  0.88966  1.0000
  C   C10       1.0  0.5649399999999998  0.79266  0.99836  1.0000
  C   C11       1.0  0.3338599999999999  0.5765900000000002  0.9573699999999998  1.0000
  C   C12       1.0  0.4507899999999999  0.49272  0.95981  1.0000
  C   C13       1.0  0.3941699999999999  0.36972999999999995  0.5422999999999998  1.0000
  C   C14       1.0  0.40803  0.34057999999999994  0.4568899999999999  1.0000
  C   C15       1.0  0.4794799999999999  0.25177  0.41835  1.0000
  C   C16       1.0  0.5382899999999998  0.19333  0.46769  1.0000
  C   C17       1.0  0.5301299999999998  0.22193  0.55327  1.0000
  C   C18       1.0  0.4569199999999999  0.31033  0.59039  1.0000
  C   C19       1.0  0.31505  0.46469  0.58122  1.0000
  C   C20       1.0  0.48177  0.22157  0.32609  1.0000
  C   C21       1.0  0.9682099999999998  0.8040299999999998  0.6103399999999998  1.0000
  C   C22       1.0  0.06494  0.70733  0.50164  1.0000
  C   C23       1.0  0.8338599999999998  0.9234  0.54263  1.0000
  C   C24       1.0  0.9507999999999998  0.007269999999999935  0.5401899999999997  1.0000
  C   C25       1.0  0.10582999999999997  0.86973  0.04229999999999998  1.0000
  C   C26       1.0  0.09198  0.84057  0.95689  1.0000
  C   C27       1.0  0.020519999999999993  0.7517699999999999  0.9183399999999998  1.0000
  C   C28       1.0  0.96171  0.6933199999999999  0.9676899999999998  1.0000
  C   C29       1.0  0.9698699999999998  0.7219299999999998  0.05327  1.0000
  C   C30       1.0  0.04308  0.81033  0.09039  1.0000
  C   C31       1.0  0.18495  0.96469  0.08122  1.0000
  C   C32       1.0  0.01823  0.72156  0.8260899999999998  1.0000
  C   C33       1.0  0.53179  0.30403  0.11033999999999997  1.0000
  C   C34       1.0  0.4350699999999999  0.20732999999999996  0.00164  1.0000
  C   C35       1.0  0.66614  0.42339999999999994  0.04263  1.0000
  C   C36       1.0  0.5492099999999999  0.50727  0.04019  1.0000
  C   C37       1.0  0.6058399999999998  0.6302699999999999  0.4577  1.0000
  C   C38       1.0  0.5919799999999997  0.6594199999999999  0.54311  1.0000
  C   C39       1.0  0.5205299999999998  0.74823  0.58165  1.0000
  C   C40       1.0  0.4617099999999999  0.80667  0.53231  1.0000
  C   C41       1.0  0.4698699999999999  0.7780599999999999  0.44673  1.0000
  C   C42       1.0  0.54309  0.68967  0.40961  1.0000
  C   C43       1.0  0.68495  0.53531  0.4187799999999999  1.0000
  C   C44       1.0  0.51823  0.77843  0.67391  1.0000
  C   C45       1.0  0.03179  0.19597  0.38966  1.0000
  C   C46       1.0  0.9350699999999997  0.2926599999999999  0.49836  1.0000
  C   C47       1.0  0.16614  0.0766  0.4573699999999999  1.0000
  C   C48       1.0  0.04920999999999998  0.99272  0.45981  1.0000
  Br  Br1       1.0  0.13016  0.43118  0.08466  1.0000
  Br  Br2       1.0  0.6301599999999998  0.06881  0.41534  1.0000
  Br  Br3       1.0  0.8698499999999998  0.56881  0.91534  1.0000
  Br  Br4       1.0  0.3698399999999999  0.93118  0.58466  1.0000
  N   N1        1.0  0.5569399999999998  0.77733  0.91463  1.0000
  N   N2        1.0  0.48593999999999987  0.7255699999999999  0.026099999999999995  1.0000
  N   N3        1.0  0.42448999999999987  0.66494  0.9559  1.0000
  N   N4        1.0  0.05694  0.72266  0.58537  1.0000
  N   N5        1.0  0.9859399999999998  0.77443  0.4739  1.0000
  N   N6        1.0  0.9244899999999998  0.8350499999999998  0.5441  1.0000
  N   N7        1.0  0.44306  0.22267  0.08537  1.0000
  N   N8        1.0  0.5140699999999998  0.2744299999999999  0.9739  1.0000
  N   N9        1.0  0.57551  0.33505  0.044099999999999986  1.0000
  N   N10       1.0  0.9430599999999998  0.2773299999999999  0.41463  1.0000
  N   N11       1.0  0.014059999999999996  0.22557  0.5261  1.0000
  N   N12       1.0  0.07550999999999997  0.16493999999999995  0.4558999999999999  1.0000
  O   O1        1.0  0.7496299999999998  0.9861099999999998  0.9642799999999998  1.0000
  O   O2        1.0  0.8178799999999998  0.006509999999999931  0.8401899999999998  1.0000
  O   O3        1.0  0.08091999999999998  0.2372  0.21372999999999995  1.0000
  O   O4        1.0  0.8752599999999998  0.34287999999999996  0.20628999999999995  1.0000
  O   O5        1.0  0.24962999999999994  0.51388  0.53571  1.0000
  O   O6        1.0  0.31788  0.49348  0.65981  1.0000
  O   O7        1.0  0.5809299999999997  0.2628  0.28627  1.0000
  O   O8        1.0  0.37526  0.15711  0.29371  1.0000
  O   O9        1.0  0.2503799999999999  0.013879999999999998  0.03571  1.0000
  O   O10       1.0  0.18211999999999995  0.99349  0.15981  1.0000
  O   O11       1.0  0.9190799999999998  0.7628  0.78627  1.0000
  O   O12       1.0  0.12473999999999998  0.6571099999999999  0.79371  1.0000
  O   O13       1.0  0.7503799999999998  0.48611000000000004  0.46429  1.0000
  O   O14       1.0  0.68212  0.50651  0.34019  1.0000
  O   O15       1.0  0.4190799999999999  0.7372  0.71373  1.0000
  O   O16       1.0  0.62474  0.8428799999999997  0.70629  1.0000
