data_image0
_chemical_formula_structural       Y2H36C30S6N24O12
_chemical_formula_sum              "Y2 H36 C30 S6 N24 O12"
_cell_length_a       8.24579
_cell_length_b       11.51619
_cell_length_c       14.53344
_cell_angle_alpha    68.45828
_cell_angle_beta     79.29696
_cell_angle_gamma    77.67348

_symmetry_space_group_name_H-M    'P 1'
_symmetry_Int_Tables_number       1

loop_
  _symmetry_equiv_pos_as_xyz
  'x,y,z'

loop_
  _atom_site_type_symbol
  _atom_site_label
  _atom_site_symmetry_multiplicity
  _atom_site_fract_x
  _atom_site_fract_y
  _atom_site_fract_z
  _atom_site_occupancy
  Y   Y1        1.0  0.7596700000000001  0.96451  0.01661  1.0000
  Y   Y2        1.0  0.23915  0.034619999999999984  0.98473  1.0000
  H   H1        1.0  0.8169300000000005  0.40137  0.8369  1.0000
  H   H2        1.0  0.9753099999999997  0.38061  0.7381600000000003  1.0000
  H   H3        1.0  0.4074400000000001  0.38188  0.8761  1.0000
  H   H4        1.0  0.3508700000000001  0.50803  0.7752400000000002  1.0000
  H   H5        1.0  0.83509  0.95834  0.55949  1.0000
  H   H6        1.0  0.8504699999999998  0.09247999999999992  0.4510400000000001  1.0000
  H   H7        1.0  0.22155999999999998  0.21168  0.46632000000000007  1.0000
  H   H8        1.0  0.30733  0.30755  0.35588  1.0000
  H   H9        1.0  0.8144800000000002  0.07600999999999998  0.30408  1.0000
  H   H10       1.0  0.73886  0.22243999999999994  0.21150000000000005  1.0000
  H   H11       1.0  0.16254999999999994  0.49920000000000003  0.42797000000000013  1.0000
  H   H12       1.0  0.11603000000000001  0.37344  0.53794  1.0000
  H   H13       1.0  0.59455  0.22932999999999995  0.5445300000000001  1.0000
  H   H14       1.0  0.5740599999999999  0.09566999999999994  0.6429000000000002  1.0000
  H   H15       1.0  0.45587000000000033  0.87753  0.79993  1.0000
  H   H16       1.0  0.6742299999999999  0.8839300000000001  0.7681900000000002  1.0000
  H   H17       1.0  0.04175999999999997  0.4937099999999999  0.8938500000000003  1.0000
  H   H18       1.0  0.12290999999999996  0.37743000000000004  0.9996  1.0000
  H   H19       1.0  0.18312999999999988  0.59786  0.16356000000000007  1.0000
  H   H20       1.0  0.02472000000000003  0.61838  0.26236000000000004  1.0000
  H   H21       1.0  0.59413  0.61782  0.12405000000000002  1.0000
  H   H22       1.0  0.64891  0.49147  0.2251  1.0000
  H   H23       1.0  0.16545000000000007  0.04167000000000002  0.44044  1.0000
  H   H24       1.0  0.14981999999999998  0.9073899999999999  0.5487900000000001  1.0000
  H   H25       1.0  0.77889  0.7885900000000001  0.53324  1.0000
  H   H26       1.0  0.69236  0.69314  0.64358  1.0000
  H   H27       1.0  0.18373999999999988  0.9247100000000001  0.6964200000000002  1.0000
  H   H28       1.0  0.2601999999999998  0.7782500000000001  0.7889500000000003  1.0000
  H   H29       1.0  0.8376500000000003  0.50074  0.57217  1.0000
  H   H30       1.0  0.8841399999999999  0.62651  0.4622300000000001  1.0000
  H   H31       1.0  0.4051799999999999  0.77172  0.4560200000000001  1.0000
  H   H32       1.0  0.42754999999999993  0.9030299999999998  0.3555400000000001  1.0000
  H   H33       1.0  0.5442800000000001  0.12284  0.20291000000000006  1.0000
  H   H34       1.0  0.32618  0.11621000000000001  0.23583000000000004  1.0000
  H   H35       1.0  0.9580600000000001  0.50473  0.10664000000000003  1.0000
  H   H36       1.0  0.87751  0.62155  0.00098  1.0000
  C   C1        1.0  0.9079000000000002  0.08649  0.15381  1.0000
  C   C2        1.0  0.84901  0.21874000000000002  0.67761  1.0000
  C   C3        1.0  0.9657700000000001  0.22100999999999996  0.8725700000000001  1.0000
  C   C4        1.0  0.8801500000000004  0.3367299999999999  0.79669  1.0000
  C   C5        1.0  0.91366  0.031100000000000003  0.51647  1.0000
  C   C6        1.0  0.94623  0.30326  0.3229200000000001  1.0000
  C   C7        1.0  0.84772  0.14961999999999998  0.23321000000000006  1.0000
  C   C8        1.0  0.9244300000000001  0.10532999999999995  0.57889  1.0000
  C   C9        1.0  0.9727600000000001  0.40581999999999996  0.4205000000000001  1.0000
  C   C10       1.0  0.058859999999999954  0.45353000000000004  0.4779400000000001  1.0000
  C   C11       1.0  0.5790500000000001  0.8380299999999998  0.82605  1.0000
  C   C12       1.0  0.5846100000000001  0.8727699999999999  0.9159000000000003  1.0000
  C   C13       1.0  0.44310000000000016  0.63096  0.90815  1.0000
  C   C14       1.0  0.20888999999999994  0.55316  0.9557100000000002  1.0000
  C   C15       1.0  0.07614999999999998  0.4791799999999999  0.9674000000000003  1.0000
  C   C16       1.0  0.09119000000000008  0.91384  0.84671  1.0000
  C   C17       1.0  0.15112  0.78073  0.32265  1.0000
  C   C18       1.0  0.034039999999999966  0.77819  0.12797  1.0000
  C   C19       1.0  0.11980000000000003  0.66243  0.20382000000000006  1.0000
  C   C20       1.0  0.08678000000000001  0.96894  0.48334000000000005  1.0000
  C   C21       1.0  0.053109999999999886  0.6968399999999999  0.6774900000000003  1.0000
  C   C22       1.0  0.15106999999999995  0.8508200000000001  0.7672500000000001  1.0000
  C   C23       1.0  0.07593000000000003  0.89482  0.42084  1.0000
  C   C24       1.0  0.02711999999999998  0.59427  0.5798  1.0000
  C   C25       1.0  0.94134  0.5464799999999999  0.5222600000000001  1.0000
  C   C26       1.0  0.42085  0.16110999999999998  0.17692  1.0000
  C   C27       1.0  0.41527  0.12366  0.08826000000000003  1.0000
  C   C28       1.0  0.55588  0.36906  0.09208000000000001  1.0000
  C   C29       1.0  0.79049  0.44634  0.04443  1.0000
  C   C30       1.0  0.9237700000000001  0.51971  0.03297  1.0000
  S   S1        1.0  0.021409999999999974  0.21808  0.24173000000000003  1.0000
  S   S2        1.0  0.6321899999999997  0.67139  0.84067  1.0000
  S   S3        1.0  0.7170399999999999  0.30705  0.74446  1.0000
  S   S4        1.0  0.9777300000000001  0.7818500000000002  0.75881  1.0000
  S   S5        1.0  0.36702  0.3286  0.15987000000000007  1.0000
  S   S6        1.0  0.28301  0.6919499999999998  0.25616  1.0000
  N   N1        1.0  0.35927999999999993  0.54675  0.8961600000000002  1.0000
  N   N2        1.0  0.20273  0.63606  8.000000000000003e-05  1.0000
  N   N3        1.0  0.059389999999999984  0.32092  0.37452  1.0000
  N   N4        1.0  0.01427999999999993  0.1955399999999999  0.6661800000000002  1.0000
  N   N5        1.0  0.35172000000000003  0.68478  0.97098  1.0000
  N   N6        1.0  0.78632  0.16371  0.62474  1.0000
  N   N7        1.0  0.42083  0.47368999999999983  0.8345400000000002  1.0000
  N   N8        1.0  0.21917  0.24980999999999995  0.39026  1.0000
  N   N9        1.0  0.06143999999999996  0.12396000000000003  0.6026  1.0000
  N   N10       1.0  0.81632  0.43616999999999995  0.4005300000000001  1.0000
  N   N11       1.0  0.79936  0.37265  0.33726  1.0000
  N   N12       1.0  0.61557  0.18065999999999996  0.6169000000000001  1.0000
  N   N13       1.0  0.6402800000000001  0.4529999999999999  0.10407000000000002  1.0000
  N   N14       1.0  0.7960299999999999  0.36364  0.9999600000000001  1.0000
  N   N15       1.0  0.94032  0.6793799999999999  0.62554  1.0000
  N   N16       1.0  0.98587  0.80444  0.33375  1.0000
  N   N17       1.0  0.64678  0.31529  0.029090000000000008  1.0000
  N   N18       1.0  0.21395000000000006  0.83588  0.3753500000000001  1.0000
  N   N19       1.0  0.57933  0.52625  0.16561  1.0000
  N   N20       1.0  0.7807500000000005  0.75071  0.60935  1.0000
  N   N21       1.0  0.93885  0.8763700000000001  0.3970800000000001  1.0000
  N   N22       1.0  0.18335000000000007  0.5636899999999999  0.6001800000000002  1.0000
  N   N23       1.0  0.19994000000000006  0.6271899999999999  0.6635300000000002  1.0000
  N   N24       1.0  0.38466  0.81848  0.38337  1.0000
  O   O1        1.0  0.8016  0.03213000000000001  0.13884  1.0000
  O   O2        1.0  0.88635  0.13059000000000004  0.92619  1.0000
  O   O3        1.0  0.11739999999999999  0.21975  0.8801800000000001  1.0000
  O   O4        1.0  0.05659000000000002  0.09212000000000001  0.11141000000000001  1.0000
  O   O5        1.0  0.6575300000000003  0.8002700000000004  0.9900300000000001  1.0000
  O   O6        1.0  0.5231600000000001  0.9897299999999999  0.9079600000000002  1.0000
  O   O7        1.0  0.19762000000000005  0.96839  0.8613800000000003  1.0000
  O   O8        1.0  0.11349999999999996  0.86866  0.07431000000000003  1.0000
  O   O9        1.0  0.88249  0.7796300000000002  0.12032000000000001  1.0000
  O   O10       1.0  0.9426599999999998  0.90792  0.88936  1.0000
  O   O11       1.0  0.34231  0.19551000000000002  0.01382  1.0000
  O   O12       1.0  0.47718  0.006720000000000005  0.09695  1.0000
