data_image0
_chemical_formula_structural       Sr4H32C56S4O24
_chemical_formula_sum              "Sr4 H32 C56 S4 O24"
_cell_length_a       4.71098
_cell_length_b       13.15205
_cell_length_c       23.32113
_cell_angle_alpha    100.01234
_cell_angle_beta     89.91673
_cell_angle_gamma    89.92742000000001

_space_group_name_H-M_alt    "P 1"
_space_group_IT_number       1

loop_
  _space_group_symop_operation_xyz
  'x, y, z'

loop_
  _atom_site_type_symbol
  _atom_site_label
  _atom_site_symmetry_multiplicity
  _atom_site_fract_x
  _atom_site_fract_y
  _atom_site_fract_z
  _atom_site_occupancy
  Sr  Sr1       1.0  0.24546  0.6126899999999998  0.23135  1.0000
  Sr  Sr2       1.0  0.73944  0.88767  0.26907  1.0000
  Sr  Sr3       1.0  0.75455  0.38732  0.76865  1.0000
  Sr  Sr4       1.0  0.2605700000000001  0.11233999999999997  0.73093  1.0000
  H   H1        1.0  0.57048  0.39814  0.9287300000000002  1.0000
  H   H2        1.0  0.44404000000000005  0.44424  0.0336  1.0000
  H   H3        1.0  0.7021  0.25221  0.00572  1.0000
  H   H4        1.0  0.81875  0.2103  0.89996  1.0000
  H   H5        1.0  0.44256  0.3606  0.17403  1.0000
  H   H6        1.0  0.56891  0.21532  0.22475999999999996  1.0000
  H   H7        1.0  0.83191  0.04927  0.15424  1.0000
  H   H8        1.0  0.70712  0.19241  0.10067000000000001  1.0000
  H   H9        1.0  0.07202  0.10248000000000002  0.57092  1.0000
  H   H10       1.0  0.94619  0.05571999999999999  0.46618  1.0000
  H   H11       1.0  0.20298  0.24812000000000006  0.49390000000000006  1.0000
  H   H12       1.0  0.31796  0.29049  0.59964  1.0000
  H   H13       1.0  0.94687  0.13969  0.32569  1.0000
  H   H14       1.0  0.0718  0.28615  0.27587  1.0000
  H   H15       1.0  0.33269000000000004  0.45119000000000004  0.34672  1.0000
  H   H16       1.0  0.20743  0.30744  0.39963  1.0000
  H   H17       1.0  0.42953  0.60187  0.07127  1.0000
  H   H18       1.0  0.55598  0.55577  0.96641  1.0000
  H   H19       1.0  0.29791  0.7478  0.9942900000000001  1.0000
  H   H20       1.0  0.18126  0.7897099999999999  0.10004  1.0000
  H   H21       1.0  0.55745  0.6394099999999998  0.8259699999999999  1.0000
  H   H22       1.0  0.4311  0.7846899999999999  0.77524  1.0000
  H   H23       1.0  0.16811  0.95074  0.84577  1.0000
  H   H24       1.0  0.29289  0.8075999999999999  0.89933  1.0000
  H   H25       1.0  0.92799  0.8975299999999999  0.42908  1.0000
  H   H26       1.0  0.05383  0.94429  0.53382  1.0000
  H   H27       1.0  0.7970300000000001  0.75189  0.5061  1.0000
  H   H28       1.0  0.68205  0.7095199999999999  0.40035999999999994  1.0000
  H   H29       1.0  0.05314  0.8603199999999999  0.67431  1.0000
  H   H30       1.0  0.92821  0.71386  0.72414  1.0000
  H   H31       1.0  0.6673200000000001  0.54882  0.65328  1.0000
  H   H32       1.0  0.7925800000000002  0.69257  0.60038  1.0000
  C   C1        1.0  0.28434  0.26141  0.84588  1.0000
  C   C2        1.0  0.21282  0.29397  0.9090099999999999  1.0000
  C   C3        1.0  0.38816  0.36283000000000004  0.9458700000000001  1.0000
  C   C4        1.0  0.30691  0.39435  0.00395  1.0000
  C   C5        1.0  0.06417  0.35519  0.02529  1.0000
  C   C6        1.0  0.8866500000000002  0.28612  0.98867  1.0000
  C   C7        1.0  0.9649499999999999  0.25677  0.93013  1.0000
  C   C8        1.0  0.06846  0.2861  0.1354  1.0000
  C   C9        1.0  0.3103  0.29252  0.16933  1.0000
  C   C10       1.0  0.39125  0.20895  0.19502999999999998  1.0000
  C   C11       1.0  0.22037  0.11966000000000002  0.18826000000000004  1.0000
  C   C12       1.0  0.9720100000000002  0.11533  0.15578  1.0000
  C   C13       1.0  0.89185  0.19832  0.12865  1.0000
  C   C14       1.0  0.30426  0.03684  0.22157  1.0000
  C   C15       1.0  0.7843000000000001  0.23985  0.65393  1.0000
  C   C16       1.0  0.7131100000000001  0.20676  0.5908  1.0000
  C   C17       1.0  0.8889600000000001  0.13760000000000006  0.55391  1.0000
  C   C18       1.0  0.8081  0.10558  0.49587  1.0000
  C   C19       1.0  0.56445  0.14429000000000003  0.47461000000000003  1.0000
  C   C20       1.0  0.38692000000000004  0.214  0.5111  1.0000
  C   C21       1.0  0.46490000000000004  0.24370999999999998  0.56961  1.0000
  C   C22       1.0  0.57053  0.21367  0.36457  1.0000
  C   C23       1.0  0.81341  0.20773  0.33075  1.0000
  C   C24       1.0  0.89394  0.292  0.30561  1.0000
  C   C25       1.0  0.72236  0.38123  0.31275  1.0000
  C   C26       1.0  0.47328999999999993  0.3851  0.34509  1.0000
  C   C27       1.0  0.39307  0.30157  0.37174  1.0000
  C   C28       1.0  0.8041900000000001  0.46432  0.27957  1.0000
  C   C29       1.0  0.71567  0.7385999999999999  0.15412  1.0000
  C   C30       1.0  0.7871900000000001  0.7060399999999999  0.09100000000000001  1.0000
  C   C31       1.0  0.61185  0.63718  0.05414  1.0000
  C   C32       1.0  0.6931000000000002  0.6056599999999999  0.99605  1.0000
  C   C33       1.0  0.93584  0.64482  0.97471  1.0000
  C   C34       1.0  0.11336  0.71389  0.01133  1.0000
  C   C35       1.0  0.03506  0.74324  0.06987  1.0000
  C   C36       1.0  0.9315499999999999  0.71391  0.8646  1.0000
  C   C37       1.0  0.68972  0.7074899999999998  0.83067  1.0000
  C   C38       1.0  0.60876  0.79106  0.80498  1.0000
  C   C39       1.0  0.77964  0.88035  0.81175  1.0000
  C   C40       1.0  0.028000000000000004  0.88468  0.84422  1.0000
  C   C41       1.0  0.10817000000000002  0.8016899999999999  0.87136  1.0000
  C   C42       1.0  0.69575  0.96317  0.77844  1.0000
  C   C43       1.0  0.21571000000000004  0.76016  0.34608  1.0000
  C   C44       1.0  0.28691  0.79325  0.40921  1.0000
  C   C45       1.0  0.11105000000000001  0.86241  0.44609  1.0000
  C   C46       1.0  0.19192000000000004  0.8944300000000001  0.50413  1.0000
  C   C47       1.0  0.43557  0.8557199999999999  0.5254  1.0000
  C   C48       1.0  0.6131  0.78602  0.4889  1.0000
  C   C49       1.0  0.5351100000000001  0.7563  0.43039  1.0000
  C   C50       1.0  0.42949000000000004  0.78634  0.63544  1.0000
  C   C51       1.0  0.1866  0.79228  0.66925  1.0000
  C   C52       1.0  0.10607999999999998  0.7080099999999999  0.69439  1.0000
  C   C53       1.0  0.27765  0.61878  0.68725  1.0000
  C   C54       1.0  0.52673  0.61491  0.65491  1.0000
  C   C55       1.0  0.60695  0.69844  0.62826  1.0000
  C   C56       1.0  0.19583  0.53569  0.72043  1.0000
  S   S1        1.0  0.96938  0.39087  0.10021  1.0000
  S   S2        1.0  0.4703800000000001  0.10869999999999999  0.39967  1.0000
  S   S3        1.0  0.03063999999999998  0.6091400000000001  0.8998  1.0000
  S   S4        1.0  0.52964  0.89131  0.60033  1.0000
  O   O1        1.0  0.53883  0.05107000000000002  0.24874000000000002  1.0000
  O   O2        1.0  0.14155000000000004  0.95931  0.22276  1.0000
  O   O3        1.0  0.50251  0.20713  0.83144  1.0000
  O   O4        1.0  0.1137  0.2877  0.80795  1.0000
  O   O5        1.0  0.11489  0.48710999999999993  0.12581  1.0000
  O   O6        1.0  0.65915  0.38831000000000004  0.0998  1.0000
  O   O7        1.0  0.03615  0.44993  0.25127  1.0000
  O   O8        1.0  0.64082  0.54211  0.27969  1.0000
  O   O9        1.0  0.00265  0.29352  0.6685  1.0000
  O   O10       1.0  0.6123  0.21417  0.69189  1.0000
  O   O11       1.0  0.6150500000000001  0.011859999999999987  0.37422  1.0000
  O   O12       1.0  0.16011  0.11164  0.4  1.0000
  O   O13       1.0  0.46119000000000004  0.9489400000000001  0.7512699999999999  1.0000
  O   O14       1.0  0.85847  0.04070000000000001  0.77725  1.0000
  O   O15       1.0  0.49751000000000006  0.79288  0.16856  1.0000
  O   O16       1.0  0.8863100000000002  0.7123099999999999  0.19205000000000003  1.0000
  O   O17       1.0  0.88513  0.51291  0.8742  1.0000
  O   O18       1.0  0.34086  0.6117000000000001  0.9002  1.0000
  O   O19       1.0  0.96387  0.5500800000000001  0.7487300000000001  1.0000
  O   O20       1.0  0.35919  0.4579  0.72032  1.0000
  O   O21       1.0  0.99736  0.70649  0.33151  1.0000
  O   O22       1.0  0.38771  0.7858399999999999  0.30812  1.0000
  O   O23       1.0  0.38497  0.98815  0.62579  1.0000
  O   O24       1.0  0.8399  0.88837  0.6  1.0000
