data_image0
_chemical_formula_structural       Sc6H24C48O50
_chemical_formula_sum              "Sc6 H24 C48 O50"
_cell_length_a       14.65515
_cell_length_b       14.65514
_cell_length_c       17.88531
_cell_angle_alpha    90.0
_cell_angle_beta     90.0
_cell_angle_gamma    119.94947

_symmetry_space_group_name_H-M    'P 1'
_symmetry_Int_Tables_number       1

loop_
  _symmetry_equiv_pos_as_xyz
  'x,y,z'

loop_
  _atom_site_type_symbol
  _atom_site_label
  _atom_site_symmetry_multiplicity
  _atom_site_fract_x
  _atom_site_fract_y
  _atom_site_fract_z
  _atom_site_occupancy
  Sc  Sc1       1.0  0.25624  0.7437700000000003  0.25005  1.0000
  Sc  Sc2       1.0  0.48745  0.74368  0.25005  1.0000
  Sc  Sc3       1.0  0.25633  0.51256  0.25005  1.0000
  Sc  Sc4       1.0  0.7437699999999999  0.25624  0.74995  1.0000
  Sc  Sc5       1.0  0.51255  0.25632  0.74995  1.0000
  Sc  Sc6       1.0  0.7436799999999999  0.48745  0.74995  1.0000
  H   H1        1.0  0.60714  0.90427  0.10717000000000003  1.0000
  H   H2        1.0  0.2972000000000001  0.3929300000000001  0.10716000000000002  1.0000
  H   H3        1.0  0.09568999999999994  0.70282  0.10713  1.0000
  H   H4        1.0  0.39289  0.09576  0.60716  1.0000
  H   H5        1.0  0.7028200000000001  0.6070500000000001  0.60715  1.0000
  H   H6        1.0  0.90427  0.29717  0.60711  1.0000
  H   H7        1.0  0.70282  0.09569  0.8928700000000003  1.0000
  H   H8        1.0  0.9042699999999999  0.60714  0.89283  1.0000
  H   H9        1.0  0.39292  0.29719  0.89284  1.0000
  H   H10       1.0  0.2971699999999999  0.90427  0.39289  1.0000
  H   H11       1.0  0.09576  0.39289  0.39284  1.0000
  H   H12       1.0  0.60706  0.70282  0.39286  1.0000
  H   H13       1.0  0.39286  0.09573  0.89283  1.0000
  H   H14       1.0  0.7028099999999999  0.60708  0.89283  1.0000
  H   H15       1.0  0.9043099999999997  0.29718  0.8928700000000003  1.0000
  H   H16       1.0  0.60712  0.90424  0.39285  1.0000
  H   H17       1.0  0.29719  0.39295  0.39286  1.0000
  H   H18       1.0  0.09573000000000012  0.7028300000000002  0.39289  1.0000
  H   H19       1.0  0.29718  0.90431  0.10713  1.0000
  H   H20       1.0  0.09573  0.39286  0.10718  1.0000
  H   H21       1.0  0.60708  0.70281  0.10716000000000002  1.0000
  H   H22       1.0  0.7028300000000001  0.09573  0.6071200000000001  1.0000
  H   H23       1.0  0.9042399999999997  0.60712  0.60715  1.0000
  H   H24       1.0  0.39295  0.29718  0.60714  1.0000
  C   C1        1.0  0.56962  0.97057  0.03312  1.0000
  C   C2        1.0  0.40102  0.43045  0.03312  1.0000
  C   C3        1.0  0.02940999999999998  0.5990400000000001  0.0331  1.0000
  C   C4        1.0  0.4304  0.02945  0.5331100000000002  1.0000
  C   C5        1.0  0.59899  0.56955  0.5331100000000002  1.0000
  C   C6        1.0  0.97058  0.40096  0.53309  1.0000
  C   C7        1.0  0.59904  0.02941  0.9669  1.0000
  C   C8        1.0  0.97057  0.56962  0.9668800000000001  1.0000
  C   C9        1.0  0.43045000000000005  0.4010200000000001  0.9668800000000001  1.0000
  C   C10       1.0  0.40096  0.97058  0.46691000000000005  1.0000
  C   C11       1.0  0.029450000000000007  0.4304  0.46688999999999997  1.0000
  C   C12       1.0  0.5695500000000001  0.5989900000000001  0.4669  1.0000
  C   C13       1.0  0.4303899999999999  0.029430000000000005  0.9668800000000001  1.0000
  C   C14       1.0  0.59899  0.56956  0.9668800000000001  1.0000
  C   C15       1.0  0.97059  0.40096  0.9669  1.0000
  C   C16       1.0  0.5696100000000002  0.9705500000000002  0.46688999999999997  1.0000
  C   C17       1.0  0.40101000000000003  0.43046000000000006  0.4669  1.0000
  C   C18       1.0  0.02942  0.59905  0.46691000000000005  1.0000
  C   C19       1.0  0.4009600000000001  0.9705900000000002  0.0331  1.0000
  C   C20       1.0  0.029430000000000053  0.4303900000000001  0.03313  1.0000
  C   C21       1.0  0.56956  0.5989900000000001  0.03312  1.0000
  C   C22       1.0  0.59905  0.029430000000000005  0.53309  1.0000
  C   C23       1.0  0.97055  0.56961  0.5331100000000002  1.0000
  C   C24       1.0  0.43046  0.40101  0.5331  1.0000
  C   C25       1.0  0.4397600000000001  0.8795000000000002  0.13591  1.0000
  C   C26       1.0  0.47038999999999986  0.94076  0.0676  1.0000
  C   C27       1.0  0.43976  0.56026  0.13592  1.0000
  C   C28       1.0  0.47037999999999996  0.52963  0.0676  1.0000
  C   C29       1.0  0.12051  0.56026  0.13592  1.0000
  C   C30       1.0  0.059249999999999976  0.52962  0.0676  1.0000
  C   C31       1.0  0.56027  0.12054000000000002  0.63586  1.0000
  C   C32       1.0  0.52964  0.05930000000000001  0.56757  1.0000
  C   C33       1.0  0.56027  0.43974  0.63587  1.0000
  C   C34       1.0  0.52966  0.47035  0.56757  1.0000
  C   C35       1.0  0.87947  0.43974  0.63586  1.0000
  C   C36       1.0  0.9407  0.47036  0.5675600000000001  1.0000
  C   C37       1.0  0.56025  0.12051  0.86409  1.0000
  C   C38       1.0  0.52961  0.059240000000000015  0.9323999999999999  1.0000
  C   C39       1.0  0.8794999999999998  0.4397500000000001  0.86409  1.0000
  C   C40       1.0  0.9407599999999999  0.47039000000000003  0.9323999999999999  1.0000
  C   C41       1.0  0.56025  0.4397500000000001  0.86408  1.0000
  C   C42       1.0  0.5296299999999999  0.47037000000000007  0.9323999999999999  1.0000
  C   C43       1.0  0.43974  0.87947  0.36414  1.0000
  C   C44       1.0  0.47036  0.9407  0.43244000000000005  1.0000
  C   C45       1.0  0.12053999999999995  0.56027  0.36414  1.0000
  C   C46       1.0  0.05929999999999999  0.52964  0.43243  1.0000
  C   C47       1.0  0.43974  0.56027  0.36413  1.0000
  C   C48       1.0  0.47035  0.52966  0.43243  1.0000
  O   O1        1.0  0.34854  0.8507200000000001  0.16681  1.0000
  O   O2        1.0  0.63956  0.9445100000000001  0.061070000000000006  1.0000
  O   O3        1.0  0.5021600000000002  0.6514300000000001  0.16683000000000003  1.0000
  O   O4        1.0  0.30508999999999986  0.36056  0.06104  1.0000
  O   O5        1.0  0.14928999999999998  0.49779  0.16683000000000003  1.0000
  O   O6        1.0  0.05544  0.69501  0.06102  1.0000
  O   O7        1.0  0.6514700000000001  0.1493  0.66678  1.0000
  O   O8        1.0  0.36045  0.0555  0.5610700000000001  1.0000
  O   O9        1.0  0.4978600000000001  0.34857  0.66679  1.0000
  O   O10       1.0  0.69492  0.63944  0.56104  1.0000
  O   O11       1.0  0.85071  0.50221  0.6668000000000002  1.0000
  O   O12       1.0  0.9445500000000001  0.305  0.56102  1.0000
  O   O13       1.0  0.49779  0.14929  0.8331700000000001  1.0000
  O   O14       1.0  0.69501  0.05544  0.93898  1.0000
  O   O15       1.0  0.85072  0.34854  0.8331900000000002  1.0000
  O   O16       1.0  0.9445000000000001  0.6395600000000002  0.9389300000000002  1.0000
  O   O17       1.0  0.65142  0.50215  0.8331800000000001  1.0000
  O   O18       1.0  0.36056  0.30509  0.93896  1.0000
  O   O19       1.0  0.5022200000000001  0.8507100000000001  0.33320000000000005  1.0000
  O   O20       1.0  0.305  0.94455  0.43898  1.0000
  O   O21       1.0  0.14930000000000004  0.65148  0.33322  1.0000
  O   O22       1.0  0.05550000000000002  0.3604500000000001  0.4389300000000001  1.0000
  O   O23       1.0  0.34858  0.49787000000000003  0.33321  1.0000
  O   O24       1.0  0.63944  0.6949200000000001  0.43897  1.0000
  O   O25       1.0  0.65147  0.14928  0.8331900000000002  1.0000
  O   O26       1.0  0.36044  0.0555  0.9389300000000002  1.0000
  O   O27       1.0  0.49785000000000007  0.34858000000000006  0.8331800000000001  1.0000
  O   O28       1.0  0.69492  0.63944  0.93896  1.0000
  O   O29       1.0  0.85071  0.50221  0.8331700000000001  1.0000
  O   O30       1.0  0.94456  0.305  0.93898  1.0000
  O   O31       1.0  0.34854000000000007  0.8507100000000001  0.33322  1.0000
  O   O32       1.0  0.63955  0.9445  0.43894  1.0000
  O   O33       1.0  0.5021500000000001  0.6514300000000001  0.33321  1.0000
  O   O34       1.0  0.30508999999999986  0.36057  0.43897  1.0000
  O   O35       1.0  0.1493  0.4978000000000001  0.33320000000000005  1.0000
  O   O36       1.0  0.055449999999999965  0.69501  0.43898  1.0000
  O   O37       1.0  0.5022200000000001  0.8507200000000001  0.16683000000000003  1.0000
  O   O38       1.0  0.305  0.9445600000000001  0.06102  1.0000
  O   O39       1.0  0.14929  0.65147  0.16681  1.0000
  O   O40       1.0  0.05550000000000002  0.36044  0.061070000000000006  1.0000
  O   O41       1.0  0.34859  0.49787000000000003  0.16683000000000003  1.0000
  O   O42       1.0  0.6394500000000001  0.6949200000000001  0.06104  1.0000
  O   O43       1.0  0.49779  0.1493  0.6668000000000002  1.0000
  O   O44       1.0  0.69501  0.055450000000000006  0.56102  1.0000
  O   O45       1.0  0.8507100000000001  0.34853000000000006  0.66678  1.0000
  O   O46       1.0  0.9445000000000001  0.6395500000000002  0.5610700000000001  1.0000
  O   O47       1.0  0.65143  0.50214  0.66679  1.0000
  O   O48       1.0  0.3605699999999999  0.30509  0.56103  1.0000
  O   O49       1.0  0.33333  0.66667  0.2499  1.0000
  O   O50       1.0  0.66667  0.3333300000000001  0.7501  1.0000
