data_image0
_chemical_formula_structural       Zn12H24C24O48
_chemical_formula_sum              "Zn12 H24 C24 O48"
_cell_length_a       9.99121
_cell_length_b       11.463430000000002
_cell_length_c       14.659859999999998
_cell_angle_alpha    91.35519
_cell_angle_beta     89.95767999999998
_cell_angle_gamma    90.07915

_space_group_name_H-M_alt    "P 1"
_space_group_IT_number       1

loop_
  _space_group_symop_operation_xyz
  'x, y, z'

loop_
  _atom_site_type_symbol
  _atom_site_label
  _atom_site_symmetry_multiplicity
  _atom_site_fract_x
  _atom_site_fract_y
  _atom_site_fract_z
  _atom_site_occupancy
  Zn  Zn1       1.0  0.9220100000000001  0.75715  0.13072  1.0000
  Zn  Zn2       1.0  0.10832  0.73986  0.31224  1.0000
  Zn  Zn3       1.0  0.42171  0.7410199999999999  0.3690699999999999  1.0000
  Zn  Zn4       1.0  0.60888  0.75724  0.18775  1.0000
  Zn  Zn5       1.0  0.07799  0.24285  0.86928  1.0000
  Zn  Zn6       1.0  0.89168  0.26014  0.68776  1.0000
  Zn  Zn7       1.0  0.57829  0.25897999999999993  0.6309299999999998  1.0000
  Zn  Zn8       1.0  0.39112  0.24277  0.8122499999999998  1.0000
  Zn  Zn9       1.0  0.0  0.5  0.0  1.0000
  Zn  Zn10      1.0  0.5  0.0  0.5  1.0000
  Zn  Zn11      1.0  0.0  0.0  0.0  1.0000
  Zn  Zn12      1.0  0.5  0.5  0.5  1.0000
  H   H1        1.0  0.74545  0.86408  0.37261  1.0000
  H   H2        1.0  0.0411  0.47224  0.27535  1.0000
  H   H3        1.0  0.60471  0.55531  0.04218  1.0000
  H   H4        1.0  0.19516  0.9863  0.24063999999999994  1.0000
  H   H5        1.0  0.16436  0.68854  0.92359  1.0000
  H   H6        1.0  0.69947  0.00039999999999999996  0.00447  1.0000
  H   H7        1.0  0.24496000000000004  0.6352  0.12698  1.0000
  H   H8        1.0  0.54095  0.02509  0.22478999999999993  1.0000
  H   H9        1.0  0.10451  0.9434  0.45734  1.0000
  H   H10       1.0  0.69562  0.51127  0.25966  1.0000
  H   H11       1.0  0.66407  0.81131  0.57657  1.0000
  H   H12       1.0  0.20042  0.49876  0.49631  1.0000
  H   H13       1.0  0.25455  0.13592  0.62738  1.0000
  H   H14       1.0  0.9589  0.52776  0.72465  1.0000
  H   H15       1.0  0.39528  0.4447  0.95781  1.0000
  H   H16       1.0  0.8048300000000002  0.0137  0.75936  1.0000
  H   H17       1.0  0.8356399999999999  0.31146  0.07641  1.0000
  H   H18       1.0  0.30053  0.9996000000000002  0.99553  1.0000
  H   H19       1.0  0.75504  0.36481  0.87302  1.0000
  H   H20       1.0  0.45905000000000007  0.97492  0.77521  1.0000
  H   H21       1.0  0.8954900000000001  0.05661  0.54266  1.0000
  H   H22       1.0  0.30437  0.48874  0.7403399999999998  1.0000
  H   H23       1.0  0.33592  0.18869999999999995  0.42342999999999986  1.0000
  H   H24       1.0  0.79958  0.50124  0.50369  1.0000
  C   C1        1.0  0.8276199999999999  0.82919  0.32999  1.0000
  C   C2        1.0  0.01645  0.51706  0.21177  1.0000
  C   C3        1.0  0.71299  0.57231  0.04928999999999999  1.0000
  C   C4        1.0  0.12611  0.95547  0.18647  1.0000
  C   C5        1.0  0.10210999999999999  0.74293  0.96943  1.0000
  C   C6        1.0  0.71805  0.92856  0.05127  1.0000
  C   C7        1.0  0.32753  0.66884  0.16982999999999998  1.0000
  C   C8        1.0  0.51637  0.9802300000000002  0.28837  1.0000
  C   C9        1.0  0.21268  0.92582  0.4504799999999999  1.0000
  C   C10       1.0  0.6262  0.54206  0.31362  1.0000
  C   C11       1.0  0.60243  0.75652  0.53054  1.0000
  C   C12       1.0  0.21812999999999996  0.57036  0.44911999999999996  1.0000
  C   C13       1.0  0.17238  0.17082  0.67001  1.0000
  C   C14       1.0  0.98355  0.48294  0.7882299999999999  1.0000
  C   C15       1.0  0.28701  0.42769000000000007  0.95071  1.0000
  C   C16       1.0  0.87389  0.04453  0.81353  1.0000
  C   C17       1.0  0.8978900000000001  0.25707  0.03057  1.0000
  C   C18       1.0  0.28195  0.07144  0.94873  1.0000
  C   C19       1.0  0.67247  0.33116  0.83017  1.0000
  C   C20       1.0  0.48363  0.019779999999999996  0.7116299999999999  1.0000
  C   C21       1.0  0.78732  0.07417999999999998  0.5495199999999998  1.0000
  C   C22       1.0  0.3738  0.45794000000000007  0.68638  1.0000
  C   C23       1.0  0.39757  0.24349  0.46946  1.0000
  C   C24       1.0  0.78187  0.4296400000000001  0.55088  1.0000
  O   O1        1.0  0.80009  0.8058800000000002  0.24573999999999996  1.0000
  O   O2        1.0  0.93965  0.8172499999999999  0.3681699999999999  1.0000
  O   O3        1.0  0.00713  0.62908  0.21835999999999997  1.0000
  O   O4        1.0  0.99966  0.45652000000000004  0.1405  1.0000
  O   O5        1.0  0.7459  0.65099  0.10949  1.0000
  O   O6        1.0  0.79171  0.51399  0.99954  1.0000
  O   O7        1.0  0.08039  0.85125  0.19530999999999996  1.0000
  O   O8        1.0  0.10052  0.02385  0.12346999999999997  1.0000
  O   O9        1.0  0.02273  0.6856  0.022119999999999994  1.0000
  O   O10       1.0  0.11443000000000002  0.85126  0.96753  1.0000
  O   O11       1.0  0.84123  0.8970200000000002  0.0594  1.0000
  O   O12       1.0  0.61864  0.88566  0.09107999999999997  1.0000
  O   O13       1.0  0.29997  0.69168  0.25415  1.0000
  O   O14       1.0  0.43993  0.67996  0.13182  1.0000
  O   O15       1.0  0.50729  0.8682000000000001  0.28172  1.0000
  O   O16       1.0  0.4995200000000001  0.04089  0.35959  1.0000
  O   O17       1.0  0.24533000000000002  0.84697  0.39036  1.0000
  O   O18       1.0  0.29152  0.9837500000000001  0.50051  1.0000
  O   O19       1.0  0.58038  0.64607  0.30462  1.0000
  O   O20       1.0  0.60043  0.47377999999999987  0.37674  1.0000
  O   O21       1.0  0.52305  0.81326  0.47777999999999987  1.0000
  O   O22       1.0  0.6156  0.64823  0.5324  1.0000
  O   O23       1.0  0.34102  0.60303  0.4408  1.0000
  O   O24       1.0  0.11836000000000002  0.61164  0.4089299999999999  1.0000
  O   O25       1.0  0.19991000000000003  0.19411999999999996  0.75426  1.0000
  O   O26       1.0  0.060349999999999994  0.18275  0.6318299999999998  1.0000
  O   O27       1.0  0.99287  0.37091999999999997  0.7816399999999998  1.0000
  O   O28       1.0  0.0003400000000000002  0.54348  0.8595  1.0000
  O   O29       1.0  0.2541  0.34901  0.89051  1.0000
  O   O30       1.0  0.20829  0.48601  0.00046  1.0000
  O   O31       1.0  0.9196100000000001  0.14875  0.80469  1.0000
  O   O32       1.0  0.89948  0.97615  0.87653  1.0000
  O   O33       1.0  0.97726  0.3144  0.9778799999999997  1.0000
  O   O34       1.0  0.8855700000000001  0.14874  0.03247  1.0000
  O   O35       1.0  0.15877  0.10298  0.94059  1.0000
  O   O36       1.0  0.38135  0.11434  0.90891  1.0000
  O   O37       1.0  0.70002  0.30832  0.7458499999999998  1.0000
  O   O38       1.0  0.56007  0.32004  0.86818  1.0000
  O   O39       1.0  0.49271  0.1318  0.71828  1.0000
  O   O40       1.0  0.50048  0.95911  0.64041  1.0000
  O   O41       1.0  0.75466  0.15304  0.60964  1.0000
  O   O42       1.0  0.70848  0.016249999999999997  0.4994899999999999  1.0000
  O   O43       1.0  0.41962  0.35393  0.69538  1.0000
  O   O44       1.0  0.39957  0.52622  0.62326  1.0000
  O   O45       1.0  0.47695  0.18674  0.52221  1.0000
  O   O46       1.0  0.3844  0.35176999999999997  0.4676  1.0000
  O   O47       1.0  0.65898  0.39697  0.5592  1.0000
  O   O48       1.0  0.88163  0.38836  0.59107  1.0000
