data_image0
_chemical_formula_structural       Cu4H32C40N24
_chemical_formula_sum              "Cu4 H32 C40 N24"
_cell_length_a       8.17712
_cell_length_b       16.28185
_cell_length_c       20.02765
_cell_angle_alpha    90.0
_cell_angle_beta     90.09802000000002
_cell_angle_gamma    90.00045

_symmetry_space_group_name_H-M    'P 1'
_symmetry_Int_Tables_number       1

loop_
  _symmetry_equiv_pos_as_xyz
  'x,y,z'

loop_
  _atom_site_type_symbol
  _atom_site_label
  _atom_site_symmetry_multiplicity
  _atom_site_fract_x
  _atom_site_fract_y
  _atom_site_fract_z
  _atom_site_occupancy
  Cu  Cu1       1.0  0.76861  0.7479800000000002  0.25042  1.0000
  Cu  Cu2       1.0  0.7313  0.24790000000000004  0.74957  1.0000
  Cu  Cu3       1.0  0.23139000000000007  0.25203  0.74958  1.0000
  Cu  Cu4       1.0  0.2687  0.7521000000000002  0.25043  1.0000
  H   H1        1.0  0.75685  0.85109  0.38238  1.0000
  H   H2        1.0  0.27515  0.85106  0.38821  1.0000
  H   H3        1.0  0.24743000000000004  0.91075  0.49454  1.0000
  H   H4        1.0  0.76745  0.9807700000000003  0.42118  1.0000
  H   H5        1.0  0.7431500000000002  0.35107  0.61762  1.0000
  H   H6        1.0  0.22485  0.35105  0.61179  1.0000
  H   H7        1.0  0.25256  0.41075  0.50547  1.0000
  H   H8        1.0  0.73254  0.4808000000000001  0.57883  1.0000
  H   H9        1.0  0.24171  0.14907  0.88202  1.0000
  H   H10       1.0  0.72345  0.14777  0.88748  1.0000
  H   H11       1.0  0.75245  0.08914000000000002  0.99433  1.0000
  H   H12       1.0  0.23183  0.01906  0.9211299999999999  1.0000
  H   H13       1.0  0.25829  0.64908  0.11799  1.0000
  H   H14       1.0  0.7765300000000003  0.64778  0.11252  1.0000
  H   H15       1.0  0.7475500000000003  0.58914  0.00568  1.0000
  H   H16       1.0  0.26818  0.51902  0.07888  1.0000
  H   H17       1.0  0.24315  0.14891  0.61762  1.0000
  H   H18       1.0  0.72484  0.14894  0.61179  1.0000
  H   H19       1.0  0.75256  0.08926  0.50546  1.0000
  H   H20       1.0  0.23255  0.01923  0.57882  1.0000
  H   H21       1.0  0.25685000000000013  0.64893  0.38237  1.0000
  H   H22       1.0  0.7751400000000003  0.64895  0.38821  1.0000
  H   H23       1.0  0.7474300000000003  0.58925  0.49452999999999997  1.0000
  H   H24       1.0  0.26745  0.5192  0.42117  1.0000
  H   H25       1.0  0.75829  0.85093  0.11798  1.0000
  H   H26       1.0  0.27654  0.85223  0.11252  1.0000
  H   H27       1.0  0.24755  0.91086  0.00566  1.0000
  H   H28       1.0  0.76817  0.98094  0.07887  1.0000
  H   H29       1.0  0.74171  0.3509200000000001  0.8820100000000001  1.0000
  H   H30       1.0  0.22346000000000005  0.35222  0.88748  1.0000
  H   H31       1.0  0.25244  0.4108600000000001  0.99431  1.0000
  H   H32       1.0  0.73182  0.48098  0.92112  1.0000
  C   C1        1.0  0.88331  0.83905  0.37075  1.0000
  C   C2        1.0  0.15007000000000012  0.8377700000000002  0.37481  1.0000
  C   C3        1.0  0.00835  0.93736  0.45142  1.0000
  C   C4        1.0  0.14093  0.95066  0.49591  1.0000
  C   C5        1.0  0.8673100000000002  0.9879400000000002  0.45656  1.0000
  C   C6        1.0  0.61668  0.33903  0.62925  1.0000
  C   C7        1.0  0.34992  0.33777  0.62519  1.0000
  C   C8        1.0  0.49165000000000003  0.4373700000000001  0.54859  1.0000
  C   C9        1.0  0.3590600000000001  0.45066  0.5041  1.0000
  C   C10       1.0  0.63268  0.48795  0.54345  1.0000
  C   C11       1.0  0.11507000000000003  0.16071  0.87022  1.0000
  C   C12       1.0  0.84829  0.16123  0.87402  1.0000
  C   C13       1.0  0.9912500000000001  0.06255  0.9512600000000001  1.0000
  C   C14       1.0  0.8590300000000002  0.04929  0.99579  1.0000
  C   C15       1.0  0.13231  0.01199  0.95655  1.0000
  C   C16       1.0  0.38493  0.66072  0.12978  1.0000
  C   C17       1.0  0.6517  0.66124  0.12598  1.0000
  C   C18       1.0  0.50875  0.56254  0.04875  1.0000
  C   C19       1.0  0.64096  0.54928  0.00422  1.0000
  C   C20       1.0  0.3677  0.51198  0.04346  1.0000
  C   C21       1.0  0.11668  0.16095  0.62925  1.0000
  C   C22       1.0  0.84992  0.16223  0.62519  1.0000
  C   C23       1.0  0.99165  0.06264  0.54858  1.0000
  C   C24       1.0  0.8590700000000002  0.049340000000000016  0.50409  1.0000
  C   C25       1.0  0.13269  0.01206  0.54344  1.0000
  C   C26       1.0  0.38332  0.66097  0.37075  1.0000
  C   C27       1.0  0.65007  0.66224  0.3748  1.0000
  C   C28       1.0  0.50835  0.56263  0.4514  1.0000
  C   C29       1.0  0.64093  0.54934  0.4959  1.0000
  C   C30       1.0  0.36732  0.51205  0.45655  1.0000
  C   C31       1.0  0.88493  0.83929  0.12977  1.0000
  C   C32       1.0  0.1517  0.83877  0.12598  1.0000
  C   C33       1.0  0.00875  0.93745  0.04874  1.0000
  C   C34       1.0  0.14096  0.95071  0.00421  1.0000
  C   C35       1.0  0.86769  0.98801  0.04345  1.0000
  C   C36       1.0  0.61507  0.33928  0.87022  1.0000
  C   C37       1.0  0.3483  0.33876  0.87401  1.0000
  C   C38       1.0  0.4912500000000001  0.4374600000000001  0.9512400000000001  1.0000
  C   C39       1.0  0.3590300000000001  0.4507200000000001  0.9957800000000001  1.0000
  C   C40       1.0  0.6323  0.48803  0.95654  1.0000
  N   N1        1.0  0.93536  0.7844  0.32594  1.0000
  N   N2        1.0  0.10327  0.78337  0.32838  1.0000
  N   N3        1.0  0.01458  0.87517  0.40297000000000005  1.0000
  N   N4        1.0  0.56463  0.28436  0.67405  1.0000
  N   N5        1.0  0.39672  0.28335  0.67161  1.0000
  N   N6        1.0  0.48542  0.37517  0.59705  1.0000
  N   N7        1.0  0.0624  0.21452  0.82485  1.0000
  N   N8        1.0  0.8944500000000002  0.21511  0.8271099999999999  1.0000
  N   N9        1.0  0.98428  0.12445  0.90252  1.0000
  N   N10       1.0  0.4376  0.71454  0.17514  1.0000
  N   N11       1.0  0.60555  0.71513  0.17288  1.0000
  N   N12       1.0  0.51571  0.62445  0.09749  1.0000
  N   N13       1.0  0.06464000000000002  0.21561  0.67406  1.0000
  N   N14       1.0  0.8967300000000002  0.21663  0.67162  1.0000
  N   N15       1.0  0.98542  0.12482999999999998  0.59703  1.0000
  N   N16       1.0  0.43537  0.71564  0.32595  1.0000
  N   N17       1.0  0.60328  0.71666  0.32839  1.0000
  N   N18       1.0  0.51457  0.62483  0.40295000000000003  1.0000
  N   N19       1.0  0.93759  0.7854900000000002  0.17515  1.0000
  N   N20       1.0  0.10555  0.78489  0.17289  1.0000
  N   N21       1.0  0.01571  0.87555  0.09748  1.0000
  N   N22       1.0  0.5624  0.28546  0.8248599999999999  1.0000
  N   N23       1.0  0.39445  0.28487  0.82712  1.0000
  N   N24       1.0  0.48429  0.37556  0.9025  1.0000
