data_image0
_chemical_formula_structural       Mn8H16W4C48N40O8
_chemical_formula_sum              "Mn8 H16 W4 C48 N40 O8"
_cell_length_a       11.47703
_cell_length_b       13.88701
_cell_length_c       14.66472
_cell_angle_alpha    90.0
_cell_angle_beta     90.0
_cell_angle_gamma    90.00504000000001

_space_group_name_H-M_alt    "P 1"
_space_group_IT_number       1

loop_
  _space_group_symop_operation_xyz
  'x, y, z'

loop_
  _atom_site_type_symbol
  _atom_site_label
  _atom_site_symmetry_multiplicity
  _atom_site_fract_x
  _atom_site_fract_y
  _atom_site_fract_z
  _atom_site_occupancy
  Mn  Mn1       1.0  0.20059  0.67746  0.53434  1.0000
  Mn  Mn2       1.0  0.70148  0.82277  0.53463  1.0000
  Mn  Mn3       1.0  0.7015000000000001  0.82274  0.9653600000000002  1.0000
  Mn  Mn4       1.0  0.2985  0.17726  0.03464  1.0000
  Mn  Mn5       1.0  0.79944  0.32252  0.46569000000000005  1.0000
  Mn  Mn6       1.0  0.20058  0.6775  0.96567  1.0000
  Mn  Mn7       1.0  0.29852  0.17725  0.46537  1.0000
  Mn  Mn8       1.0  0.79943  0.32254  0.034310000000000014  1.0000
  H   H1        1.0  0.25982  0.99134  0.16480000000000003  1.0000
  H   H2        1.0  0.49085000000000006  0.7106  0.83661  1.0000
  H   H3        1.0  0.99095  0.78925  0.83662  1.0000
  H   H4        1.0  0.49088  0.71061  0.66342  1.0000
  H   H5        1.0  0.2598  0.9913300000000002  0.33521  1.0000
  H   H6        1.0  0.74019  0.00866  0.8352000000000002  1.0000
  H   H7        1.0  0.75991  0.50877  0.33522  1.0000
  H   H8        1.0  0.5091300000000001  0.2894  0.33659  1.0000
  H   H9        1.0  0.75991  0.50877  0.16477  1.0000
  H   H10       1.0  0.2401  0.49124  0.66477  1.0000
  H   H11       1.0  0.99096  0.78927  0.66338  1.0000
  H   H12       1.0  0.00903  0.21074  0.3366300000000001  1.0000
  H   H13       1.0  0.5091300000000001  0.2894  0.1634  1.0000
  H   H14       1.0  0.7402000000000002  0.00868  0.6648  1.0000
  H   H15       1.0  0.00904  0.21075  0.16338000000000005  1.0000
  H   H16       1.0  0.24007  0.49123  0.8352200000000001  1.0000
  W   W1        1.0  0.63862  0.047470000000000005  0.25  1.0000
  W   W2        1.0  0.36138  0.95253  0.74998  1.0000
  W   W3        1.0  0.86109  0.54713  0.74999  1.0000
  W   W4        1.0  0.1389  0.45287  0.25002  1.0000
  C   C1        1.0  0.71607  0.1482  0.15714  1.0000
  C   C2        1.0  0.28393  0.85181  0.84285  1.0000
  C   C3        1.0  0.21621  0.35175  0.34294  1.0000
  C   C4        1.0  0.00952  0.39462  0.16183  1.0000
  C   C5        1.0  0.33758000000000005  0.05109000000000001  0.8592300000000003  1.0000
  C   C6        1.0  0.20435  0.03957  0.20351  1.0000
  C   C7        1.0  0.43589000000000006  0.66301  0.70328  1.0000
  C   C8        1.0  0.7956500000000001  0.96043  0.79649  1.0000
  C   C9        1.0  0.5092  0.10646  0.33758  1.0000
  C   C10       1.0  0.93617  0.83691  0.70329  1.0000
  C   C11       1.0  0.78378  0.64825  0.65709  1.0000
  C   C12       1.0  0.49079000000000006  0.89357  0.83757  1.0000
  C   C13       1.0  0.16223  0.55068  0.14066  1.0000
  C   C14       1.0  0.67895  0.50837  0.75  1.0000
  C   C15       1.0  0.8377700000000001  0.44929  0.85933  1.0000
  C   C16       1.0  0.56412  0.337  0.29674  1.0000
  C   C17       1.0  0.50644  0.05117  0.74998  1.0000
  C   C18       1.0  0.66242  0.94891  0.14075  1.0000
  C   C19       1.0  0.29542  0.5393  0.70358  1.0000
  C   C20       1.0  0.7956400000000001  0.96043  0.7035  1.0000
  C   C21       1.0  0.71609  0.14819  0.34284  1.0000
  C   C22       1.0  0.06382  0.1631  0.2967100000000001  1.0000
  C   C23       1.0  0.56411  0.337  0.20327  1.0000
  C   C24       1.0  0.82093  0.00849  0.25  1.0000
  C   C25       1.0  0.99367  0.55081  0.25001  1.0000
  C   C26       1.0  0.9361800000000001  0.83691  0.7967  1.0000
  C   C27       1.0  0.28393  0.85184  0.65713  1.0000
  C   C28       1.0  0.4908100000000001  0.8935600000000001  0.66243  1.0000
  C   C29       1.0  0.50921  0.10644  0.1624  1.0000
  C   C30       1.0  0.8377800000000001  0.44933  0.6406200000000001  1.0000
  C   C31       1.0  0.21623  0.35173  0.15709000000000004  1.0000
  C   C32       1.0  0.99048  0.60541  0.66182  1.0000
  C   C33       1.0  0.17909  0.99152  0.74998  1.0000
  C   C34       1.0  0.4358700000000001  0.66301  0.79673  1.0000
  C   C35       1.0  0.7045800000000001  0.4607  0.20358000000000007  1.0000
  C   C36       1.0  0.6624  0.94895  0.35928  1.0000
  C   C37       1.0  0.78377  0.64828  0.8429200000000001  1.0000
  C   C38       1.0  0.06382  0.16311  0.20331  1.0000
  C   C39       1.0  0.20436  0.03957  0.2965  1.0000
  C   C40       1.0  0.70459  0.46069  0.29642  1.0000
  C   C41       1.0  0.99049  0.60538  0.83819  1.0000
  C   C42       1.0  0.00949  0.39462  0.33818  1.0000
  C   C43       1.0  0.4935600000000001  0.94882  0.25001  1.0000
  C   C44       1.0  0.2954  0.5393  0.7964100000000002  1.0000
  C   C45       1.0  0.33758000000000005  0.05106  0.64072  1.0000
  C   C46       1.0  0.00631  0.44919  0.75  1.0000
  C   C47       1.0  0.32105  0.49164  0.25002  1.0000
  C   C48       1.0  0.16222000000000003  0.55066  0.35938  1.0000
  N   N1        1.0  0.63875  0.39545  0.15654  1.0000
  N   N2        1.0  0.43432  0.13614  0.38463  1.0000
  N   N3        1.0  0.08027  0.01249  0.74999  1.0000
  N   N4        1.0  0.13811  0.10464  0.3435500000000001  1.0000
  N   N5        1.0  0.75855  0.19922  0.10206  1.0000
  N   N6        1.0  0.9117900000000001  0.60134  0.25001  1.0000
  N   N7        1.0  0.0882  0.39867  0.74999  1.0000
  N   N8        1.0  0.4343300000000001  0.13612  0.11536  1.0000
  N   N9        1.0  0.5887  0.10135000000000001  0.74998  1.0000
  N   N10       1.0  0.24147  0.8008  0.6020500000000001  1.0000
  N   N11       1.0  0.36121  0.60457  0.84346  1.0000
  N   N12       1.0  0.67172  0.89281  0.41892  1.0000
  N   N13       1.0  0.25842  0.3006  0.39805  1.0000
  N   N14       1.0  0.8618900000000002  0.89536  0.84354  1.0000
  N   N15       1.0  0.56566  0.86386  0.61538  1.0000
  N   N16       1.0  0.74156  0.6994  0.8980400000000001  1.0000
  N   N17       1.0  0.91975  0.98751  0.25001  1.0000
  N   N18       1.0  0.13811  0.10465  0.15646  1.0000
  N   N19       1.0  0.32827  0.10720000000000002  0.58108  1.0000
  N   N20       1.0  0.17157  0.60729  0.08146  1.0000
  N   N21       1.0  0.58007  0.48758  0.75  1.0000
  N   N22       1.0  0.41994  0.51243  0.25  1.0000
  N   N23       1.0  0.25843  0.30061  0.10196000000000002  1.0000
  N   N24       1.0  0.86188  0.89536  0.65644  1.0000
  N   N25       1.0  0.24145  0.80081  0.89796  1.0000
  N   N26       1.0  0.93466  0.36366  0.11549  1.0000
  N   N27       1.0  0.56564  0.8638900000000002  0.8846300000000002  1.0000
  N   N28       1.0  0.82841  0.39272  0.58143  1.0000
  N   N29       1.0  0.06534  0.63634  0.88452  1.0000
  N   N30       1.0  0.06535000000000002  0.63635  0.61548  1.0000
  N   N31       1.0  0.4113  0.89865  0.25002  1.0000
  N   N32       1.0  0.36124  0.60457  0.65654  1.0000
  N   N33       1.0  0.17159  0.6072799999999999  0.41857  1.0000
  N   N34       1.0  0.63879  0.39542000000000005  0.34347  1.0000
  N   N35       1.0  0.9346500000000001  0.36364  0.38452  1.0000
  N   N36       1.0  0.7416  0.69937  0.60195  1.0000
  N   N37       1.0  0.6717300000000002  0.89279  0.0811  1.0000
  N   N38       1.0  0.75854  0.19918  0.39797  1.0000
  N   N39       1.0  0.32826000000000005  0.10721000000000001  0.9188900000000002  1.0000
  N   N40       1.0  0.8284200000000002  0.39273  0.91857  1.0000
  O   O1        1.0  0.85181  0.88723  0.9336200000000002  1.0000
  O   O2        1.0  0.34939  0.61268  0.56658  1.0000
  O   O3        1.0  0.1482  0.11274  0.43363  1.0000
  O   O4        1.0  0.1482  0.11278  0.06639  1.0000
  O   O5        1.0  0.34935  0.6127000000000001  0.9334200000000001  1.0000
  O   O6        1.0  0.85183  0.88728  0.56636  1.0000
  O   O7        1.0  0.65062  0.38735  0.43344  1.0000
  O   O8        1.0  0.65062  0.38734  0.06658  1.0000
