data_image0
_chemical_formula_structural       Fe6H28C64O30
_chemical_formula_sum              "Fe6 H28 C64 O30"
_cell_length_a       10.17814
_cell_length_b       15.716520000000001
_cell_length_c       23.41265
_cell_angle_alpha    90.0
_cell_angle_beta     90.00180999999999
_cell_angle_gamma    90.06818

_symmetry_space_group_name_H-M    'P 1'
_symmetry_Int_Tables_number       1

loop_
  _symmetry_equiv_pos_as_xyz
  'x,y,z'

loop_
  _atom_site_type_symbol
  _atom_site_label
  _atom_site_symmetry_multiplicity
  _atom_site_fract_x
  _atom_site_fract_y
  _atom_site_fract_z
  _atom_site_occupancy
  Fe  Fe1       1.0  0.70841  0.8675699999999997  0.42388999999999993  1.0000
  Fe  Fe2       1.0  0.52998  0.73875  0.49998  1.0000
  Fe  Fe3       1.0  0.29055  0.36598  0.0761  1.0000
  Fe  Fe4       1.0  0.29058  0.36597  0.92391  1.0000
  Fe  Fe5       1.0  0.47041  0.23825999999999994  0.9999899999999999  1.0000
  Fe  Fe6       1.0  0.7083899999999999  0.86754  0.57611  1.0000
  H   H1        1.0  0.39328  0.9227299999999998  0.20303  1.0000
  H   H2        1.0  0.9178199999999999  0.59048  0.75578  1.0000
  H   H3        1.0  0.08169  0.09045999999999997  0.74373  1.0000
  H   H4        1.0  0.8664299999999999  0.68691  0.32515  1.0000
  H   H5        1.0  0.8663  0.68686  0.67483  1.0000
  H   H6        1.0  0.9984199999999999  0.46242999999999995  0.78723  1.0000
  H   H7        1.0  0.0817  0.09045999999999997  0.25627  1.0000
  H   H8        1.0  0.44218999999999997  0.018949999999999995  0.12112  1.0000
  H   H9        1.0  0.41953  0.9264  0.6960399999999999  1.0000
  H   H10       1.0  0.15778  0.83013  0.56684  1.0000
  H   H11       1.0  0.55628  0.5193  0.62101  1.0000
  H   H12       1.0  0.39329  0.9227299999999998  0.79697  1.0000
  H   H13       1.0  0.55642  0.5193899999999998  0.37901999999999997  1.0000
  H   H14       1.0  0.57924  0.4261699999999999  0.80401  1.0000
  H   H15       1.0  0.84189  0.3300399999999999  0.06721  1.0000
  H   H16       1.0  0.60531  0.4228399999999999  0.70274  1.0000
  H   H17       1.0  0.44218999999999997  0.01894  0.8788799999999999  1.0000
  H   H18       1.0  0.13314  0.18673999999999993  0.82477  1.0000
  H   H19       1.0  0.0003300000000000001  0.96258  0.71207  1.0000
  H   H20       1.0  0.8419  0.33003  0.93279  1.0000
  H   H21       1.0  0.15785  0.8300999999999997  0.43315  1.0000
  H   H22       1.0  0.99844  0.4624199999999999  0.21276999999999996  1.0000
  H   H23       1.0  0.41955999999999993  0.9263899999999999  0.30395  1.0000
  H   H24       1.0  0.60534  0.4228999999999999  0.29729  1.0000
  H   H25       1.0  0.9178599999999999  0.59051  0.24421  1.0000
  H   H26       1.0  0.0003499999999999997  0.96259  0.28795  1.0000
  H   H27       1.0  0.57924  0.42615999999999987  0.19598999999999997  1.0000
  H   H28       1.0  0.13313  0.18673999999999993  0.17523  1.0000
  C   C1        1.0  0.17374  0.8624399999999998  0.39267  1.0000
  C   C2        1.0  0.08603  0.9383599999999997  0.68952  1.0000
  C   C3        1.0  0.21298  0.9495  0.28815  1.0000
  C   C4        1.0  0.78575  0.4496099999999999  0.7879499999999999  1.0000
  C   C5        1.0  0.08606  0.93838  0.31048  1.0000
  C   C6        1.0  0.63492  0.53446  0.34916  1.0000
  C   C7        1.0  0.76319  0.50077  0.26419  1.0000
  C   C8        1.0  0.70679  0.6099099999999997  0.64352  1.0000
  C   C9        1.0  0.06679  0.89626  0.63746  1.0000
  C   C10       1.0  0.69882  0.37214  0.87032  1.0000
  C   C11       1.0  0.23558  0.00056  0.23601  1.0000
  C   C12       1.0  0.58223  0.34048999999999996  0.09732  1.0000
  C   C13       1.0  0.82582  0.3623999999999999  0.89235  1.0000
  C   C14       1.0  0.67107  0.67429  0.5997  1.0000
  C   C15       1.0  0.33631  0.98061  0.8030099999999999  1.0000
  C   C16       1.0  0.2919  0.10959999999999998  0.14368  1.0000
  C   C17       1.0  0.78576  0.44963  0.21205  1.0000
  C   C18       1.0  0.23557  0.00056  0.7639899999999998  1.0000
  C   C19       1.0  0.15964  0.07401999999999997  0.22646  1.0000
  C   C20       1.0  0.81091  0.62843  0.68102  1.0000
  C   C21       1.0  0.81098  0.6284899999999998  0.31897  1.0000
  C   C22       1.0  0.66237  0.4808499999999999  0.30321  1.0000
  C   C23       1.0  0.67148  0.11651999999999997  0.49999  1.0000
  C   C24       1.0  0.18817  0.12822999999999996  0.18133  1.0000
  C   C25       1.0  0.30049  0.8726799999999998  0.62945  1.0000
  C   C26       1.0  0.91288  0.43836999999999987  0.18998  1.0000
  C   C27       1.0  0.32741  0.61461  1e-05  1.0000
  C   C28       1.0  0.6793  0.41615999999999986  0.81884  1.0000
  C   C29       1.0  0.29191  0.10959999999999998  0.85632  1.0000
  C   C30       1.0  0.21296  0.9495  0.71185  1.0000
  C   C31       1.0  0.41746  0.842  0.4029  1.0000
  C   C32       1.0  0.91287  0.43836  0.81002  1.0000
  C   C33       1.0  0.76314  0.50074  0.73581  1.0000
  C   C34       1.0  0.93259  0.3963299999999999  0.86208  1.0000
  C   C35       1.0  0.66231  0.4808099999999999  0.6968000000000001  1.0000
  C   C36       1.0  0.33631  0.98061  0.19699  1.0000
  C   C37       1.0  0.18817  0.12822999999999996  0.81867  1.0000
  C   C38       1.0  0.67099  0.67433  0.40025999999999995  1.0000
  C   C39       1.0  0.31958  0.9163199999999998  0.68108  1.0000
  C   C40       1.0  0.41744  0.8420299999999997  0.59708  1.0000
  C   C41       1.0  0.82582  0.3623999999999999  0.10764999999999998  1.0000
  C   C42       1.0  0.67931  0.41617  0.18117  1.0000
  C   C43       1.0  0.15963  0.07401999999999997  0.77354  1.0000
  C   C44       1.0  0.06738999999999999  0.3887  0.8853400000000001  1.0000
  C   C45       1.0  0.31223  0.52429  0.9999899999999999  1.0000
  C   C46       1.0  0.8394299999999999  0.57416  0.72612  1.0000
  C   C47       1.0  0.30052  0.87265  0.37053  1.0000
  C   C48       1.0  0.83949  0.5741999999999998  0.27387  1.0000
  C   C49       1.0  0.1737  0.8624599999999999  0.60732  1.0000
  C   C50       1.0  0.36376  0.03413  0.15097  1.0000
  C   C51       1.0  0.31961  0.9163099999999997  0.31891  1.0000
  C   C52       1.0  0.32701  0.17411  0.09984  1.0000
  C   C53       1.0  0.9325800000000001  0.8886599999999998  0.61367  1.0000
  C   C54       1.0  0.06741  0.38869  0.11466  1.0000
  C   C55       1.0  0.9325800000000001  0.3963299999999999  0.13792  1.0000
  C   C56       1.0  0.36377  0.03413  0.84903  1.0000
  C   C57       1.0  0.58221  0.3405  0.90268  1.0000
  C   C58       1.0  0.63483  0.53439  0.65084  1.0000
  C   C59       1.0  0.70686  0.60997  0.35647  1.0000
  C   C60       1.0  0.9326199999999999  0.8886599999999998  0.38633  1.0000
  C   C61       1.0  0.32702  0.17411  0.90016  1.0000
  C   C62       1.0  0.06683999999999998  0.89626  0.36254999999999993  1.0000
  C   C63       1.0  0.68751  0.02626  0.5  1.0000
  C   C64       1.0  0.69883  0.37213  0.12969  1.0000
  O   O1        1.0  0.34606  0.3246799999999999  1e-05  1.0000
  O   O2        1.0  0.8311999999999999  0.90911  0.64358  1.0000
  O   O3        1.0  0.91484  0.86114  0.56276  1.0000
  O   O4        1.0  0.72568  0.7470199999999998  0.60537  1.0000
  O   O5        1.0  0.69372  0.99127  0.45055999999999996  1.0000
  O   O6        1.0  0.91489  0.86115  0.43723999999999996  1.0000
  O   O7        1.0  0.40892  0.15535999999999997  0.06003  1.0000
  O   O8        1.0  0.72565  0.74706  0.39464999999999995  1.0000
  O   O9        1.0  0.3994599999999999  0.78737  0.55746  1.0000
  O   O10       1.0  0.08553  0.3631399999999999  0.06318  1.0000
  O   O11       1.0  0.65349  0.82629  0.5  1.0000
  O   O12       1.0  0.47098  0.37204  0.11145  1.0000
  O   O13       1.0  0.16816  0.4068799999999999  0.14546  1.0000
  O   O14       1.0  0.3994599999999999  0.7873499999999998  0.44252  1.0000
  O   O15       1.0  0.27257  0.2467  0.8943399999999999  1.0000
  O   O16       1.0  0.5282999999999999  0.8742899999999998  0.61135  1.0000
  O   O17       1.0  0.58832  0.6546899999999998  0.56018  1.0000
  O   O18       1.0  0.16817  0.4068799999999999  0.8545300000000001  1.0000
  O   O19       1.0  0.69371  0.9912799999999998  0.54944  1.0000
  O   O20       1.0  0.83125  0.90911  0.35641000000000006  1.0000
  O   O21       1.0  0.58807  0.65474  0.43973000000000007  1.0000
  O   O22       1.0  0.40893  0.15533999999999995  0.93997  1.0000
  O   O23       1.0  0.30646  0.48925  0.04946  1.0000
  O   O24       1.0  0.52831  0.8742799999999997  0.38865  1.0000
  O   O25       1.0  0.08553  0.3631399999999999  0.9368200000000001  1.0000
  O   O26       1.0  0.47098  0.37203  0.88855  1.0000
  O   O27       1.0  0.30646  0.48925  0.95056  1.0000
  O   O28       1.0  0.6009  0.2857299999999999  0.9422499999999999  1.0000
  O   O29       1.0  0.60089  0.28573999999999994  0.05774  1.0000
  O   O30       1.0  0.27254  0.24672999999999995  0.10566  1.0000
