data_image0
_chemical_formula_structural       Li4Zn4H24C80O32
_chemical_formula_sum              "Li4 Zn4 H24 C80 O32"
_cell_length_a       10.15623
_cell_length_b       16.53972
_cell_length_c       16.539659999999998
_cell_angle_alpha    80.6816
_cell_angle_beta     84.48129
_cell_angle_gamma    84.48131

_space_group_name_H-M_alt    "P 1"
_space_group_IT_number       1

loop_
  _space_group_symop_operation_xyz
  'x, y, z'

loop_
  _atom_site_type_symbol
  _atom_site_label
  _atom_site_symmetry_multiplicity
  _atom_site_fract_x
  _atom_site_fract_y
  _atom_site_fract_z
  _atom_site_occupancy
  Li  Li1       1.0  0.3852900000000001  0.8975700000000001  0.52704  1.0000
  Li  Li2       1.0  0.6147200000000002  0.47296  0.10243  1.0000
  Li  Li3       1.0  0.6147200000000002  0.10243000000000001  0.4729599999999999  1.0000
  Li  Li4       1.0  0.3852900000000001  0.52704  0.8975699999999998  1.0000
  Zn  Zn1       1.0  0.23623999999999995  0.91208  0.37584  1.0000
  Zn  Zn2       1.0  0.76376  0.6241700000000001  0.08791999999999997  1.0000
  Zn  Zn3       1.0  0.76376  0.08792  0.62417  1.0000
  Zn  Zn4       1.0  0.23623999999999995  0.37583000000000005  0.91208  1.0000
  H   H1        1.0  0.85527  0.95447  0.5232999999999998  1.0000
  H   H2        1.0  0.5262400000000002  0.84674  0.7313499999999997  1.0000
  H   H3        1.0  0.18924999999999995  0.76356  0.64803  1.0000
  H   H4        1.0  0.33365  0.68291  0.5676  1.0000
  H   H5        1.0  0.07295000000000001  0.87721  0.19425  1.0000
  H   H6        1.0  0.14473000000000003  0.4767  0.04553  1.0000
  H   H7        1.0  0.47376  0.26865  0.15326  1.0000
  H   H8        1.0  0.8107500000000001  0.35197  0.23643999999999996  1.0000
  H   H9        1.0  0.66636  0.4324  0.3171  1.0000
  H   H10       1.0  0.92705  0.80575  0.12278999999999997  1.0000
  H   H11       1.0  0.14472999999999997  0.045529999999999994  0.4767  1.0000
  H   H12       1.0  0.47376  0.15326  0.26865  1.0000
  H   H13       1.0  0.8107500000000001  0.23644000000000004  0.3519699999999999  1.0000
  H   H14       1.0  0.66636  0.31709  0.43241  1.0000
  H   H15       1.0  0.92705  0.12278999999999997  0.80575  1.0000
  H   H16       1.0  0.85527  0.5233  0.95448  1.0000
  H   H17       1.0  0.5262400000000002  0.73135  0.8467499999999998  1.0000
  H   H18       1.0  0.18925000000000003  0.6480300000000001  0.7635599999999998  1.0000
  H   H19       1.0  0.33365  0.5676  0.68291  1.0000
  H   H20       1.0  0.07295000000000001  0.19425000000000006  0.8772099999999998  1.0000
  H   H21       1.0  0.5000000000000001  0.7162300000000001  0.28377999999999987  1.0000
  H   H22       1.0  0.5  0.28377  0.71623  1.0000
  H   H23       1.0  0.29709  0.12478  0.12478  1.0000
  H   H24       1.0  0.7029100000000003  0.8752200000000001  0.8752299999999997  1.0000
  C   C1        1.0  0.09925000000000005  0.88334  0.5408699999999999  1.0000
  C   C2        1.0  0.9756099999999999  0.86113  0.59466  1.0000
  C   C3        1.0  0.8563499999999997  0.90667  0.57682  1.0000
  C   C4        1.0  0.7387199999999999  0.8929  0.6261  1.0000
  C   C5        1.0  0.6181400000000002  0.9473100000000001  0.60004  1.0000
  C   C6        1.0  0.7358699999999999  0.82741  0.6941  1.0000
  C   C7        1.0  0.6178100000000001  0.80926  0.74477  1.0000
  C   C8        1.0  0.09714000000000003  0.748  0.6837099999999998  1.0000
  C   C9        1.0  0.9782700000000001  0.7966699999999999  0.6634799999999997  1.0000
  C   C10       1.0  0.85703  0.77887  0.71214  1.0000
  C   C11       1.0  0.38831  0.7651  0.4215099999999999  1.0000
  C   C12       1.0  0.44367  0.67913  0.41197  1.0000
  C   C13       1.0  0.3793000000000001  0.6227000000000001  0.5583699999999998  1.0000
  C   C14       1.0  0.44126  0.61292  0.47941  1.0000
  C   C15       1.0  0.23147999999999996  0.9877499999999999  0.21773  1.0000
  C   C16       1.0  0.17709999999999998  0.023  0.13672  1.0000
  C   C17       1.0  0.041639999999999996  0.9052  0.13433  1.0000
  C   C18       1.0  0.08646999999999999  0.9824100000000001  0.09839999999999997  1.0000
  C   C19       1.0  0.90076  0.45913  0.11666  1.0000
  C   C20       1.0  0.02439000000000001  0.40534  0.13886999999999994  1.0000
  C   C21       1.0  0.14365000000000003  0.42317999999999995  0.09332999999999997  1.0000
  C   C22       1.0  0.26128000000000007  0.3739  0.1071  1.0000
  C   C23       1.0  0.38186  0.39996  0.05269  1.0000
  C   C24       1.0  0.26413000000000003  0.30589999999999995  0.17259  1.0000
  C   C25       1.0  0.3821900000000001  0.25524  0.19074  1.0000
  C   C26       1.0  0.90286  0.31629  0.252  1.0000
  C   C27       1.0  0.02174  0.33652  0.20333  1.0000
  C   C28       1.0  0.14297  0.28786  0.22112999999999994  1.0000
  C   C29       1.0  0.6116900000000001  0.57849  0.2349  1.0000
  C   C30       1.0  0.55634  0.58803  0.32087  1.0000
  C   C31       1.0  0.6207000000000001  0.44163  0.3772999999999999  1.0000
  C   C32       1.0  0.55875  0.52059  0.38708  1.0000
  C   C33       1.0  0.76853  0.78227  0.01225  1.0000
  C   C34       1.0  0.8229000000000001  0.86328  0.9769999999999998  1.0000
  C   C35       1.0  0.95836  0.86567  0.09479999999999997  1.0000
  C   C36       1.0  0.91353  0.9016  0.01759  1.0000
  C   C37       1.0  0.90076  0.11665999999999997  0.4591299999999999  1.0000
  C   C38       1.0  0.024390000000000012  0.13887  0.40535  1.0000
  C   C39       1.0  0.14365  0.09333000000000002  0.4231799999999999  1.0000
  C   C40       1.0  0.26128000000000007  0.1071  0.3739  1.0000
  C   C41       1.0  0.38186  0.05269000000000001  0.39996  1.0000
  C   C42       1.0  0.26413000000000003  0.17259  0.3059  1.0000
  C   C43       1.0  0.3821900000000001  0.19074  0.25524  1.0000
  C   C44       1.0  0.90286  0.252  0.3162999999999999  1.0000
  C   C45       1.0  0.02174000000000001  0.20333  0.3365299999999999  1.0000
  C   C46       1.0  0.14297000000000004  0.22113000000000002  0.28787  1.0000
  C   C47       1.0  0.6116900000000001  0.23489999999999997  0.57849  1.0000
  C   C48       1.0  0.5563400000000001  0.32087  0.58803  1.0000
  C   C49       1.0  0.6207000000000001  0.37729999999999997  0.44164  1.0000
  C   C50       1.0  0.55875  0.38708  0.52059  1.0000
  C   C51       1.0  0.76853  0.012250000000000002  0.78228  1.0000
  C   C52       1.0  0.8229000000000002  0.9769999999999999  0.86329  1.0000
  C   C53       1.0  0.95836  0.0948  0.86567  1.0000
  C   C54       1.0  0.91353  0.017590000000000036  0.9015999999999997  1.0000
  C   C55       1.0  0.09924999999999999  0.54087  0.88334  1.0000
  C   C56       1.0  0.9756100000000001  0.59466  0.8611399999999998  1.0000
  C   C57       1.0  0.85635  0.57682  0.90667  1.0000
  C   C58       1.0  0.7387200000000002  0.6261  0.8928999999999999  1.0000
  C   C59       1.0  0.6181400000000001  0.60004  0.94731  1.0000
  C   C60       1.0  0.7358699999999999  0.6941  0.82742  1.0000
  C   C61       1.0  0.6178099999999999  0.7447599999999998  0.80926  1.0000
  C   C62       1.0  0.09714  0.6837100000000002  0.74801  1.0000
  C   C63       1.0  0.9782600000000001  0.66348  0.7966799999999998  1.0000
  C   C64       1.0  0.85703  0.71214  0.77887  1.0000
  C   C65       1.0  0.38830999999999993  0.42150999999999994  0.7651  1.0000
  C   C66       1.0  0.4436699999999999  0.41196999999999995  0.67913  1.0000
  C   C67       1.0  0.37930000000000014  0.5583700000000001  0.6226999999999999  1.0000
  C   C68       1.0  0.44126  0.47941000000000006  0.61292  1.0000
  C   C69       1.0  0.23147999999999996  0.21773000000000003  0.98775  1.0000
  C   C70       1.0  0.1771  0.13672  0.023  1.0000
  C   C71       1.0  0.041639999999999996  0.13433  0.90521  1.0000
  C   C72       1.0  0.08647000000000002  0.09840000000000003  0.98241  1.0000
  C   C73       1.0  0.5  0.66545  0.3345499999999999  1.0000
  C   C74       1.0  0.5  0.53338  0.46662  1.0000
  C   C75       1.0  0.5  0.33454999999999996  0.66546  1.0000
  C   C76       1.0  0.5  0.4666199999999999  0.53339  1.0000
  C   C77       1.0  0.22312  0.09716  0.09716  1.0000
  C   C78       1.0  0.04321  0.02022  0.02022  1.0000
  C   C79       1.0  0.7768800000000001  0.90284  0.90285  1.0000
  C   C80       1.0  0.9567900000000003  0.97978  0.97978  1.0000
  O   O1        1.0  0.08640999999999997  0.89251  0.46325  1.0000
  O   O2        1.0  0.20081  0.8926  0.575  1.0000
  O   O3        1.0  0.63342  0.025009999999999998  0.57921  1.0000
  O   O4        1.0  0.51339  0.9155499999999999  0.59483  1.0000
  O   O5        1.0  0.32552  0.80328  0.36076  1.0000
  O   O6        1.0  0.4072799999999997  0.79339  0.48508  1.0000
  O   O7        1.0  0.14651000000000003  0.9605599999999999  0.27716  1.0000
  O   O8        1.0  0.35306000000000004  0.98835  0.22223  1.0000
  O   O9        1.0  0.9135900000000001  0.53676  0.10749  1.0000
  O   O10       1.0  0.7992000000000001  0.42501  0.1074  1.0000
  O   O11       1.0  0.36658000000000013  0.42079000000000005  0.975  1.0000
  O   O12       1.0  0.48661  0.40517  0.08445  1.0000
  O   O13       1.0  0.67449  0.63924  0.19672  1.0000
  O   O14       1.0  0.59273  0.51492  0.20661  1.0000
  O   O15       1.0  0.85349  0.72284  0.03943999999999999  1.0000
  O   O16       1.0  0.64694  0.77777  0.01165  1.0000
  O   O17       1.0  0.9135900000000002  0.10749  0.53676  1.0000
  O   O18       1.0  0.7992000000000001  0.10740000000000001  0.42501  1.0000
  O   O19       1.0  0.36658000000000013  0.9749899999999999  0.42079  1.0000
  O   O20       1.0  0.48661000000000026  0.08445000000000001  0.40517  1.0000
  O   O21       1.0  0.6744900000000001  0.19672  0.63924  1.0000
  O   O22       1.0  0.59273  0.20660999999999993  0.51492  1.0000
  O   O23       1.0  0.85349  0.03944000000000003  0.7228399999999998  1.0000
  O   O24       1.0  0.64694  0.01165000000000002  0.7777799999999998  1.0000
  O   O25       1.0  0.08641000000000004  0.46324  0.8925099999999999  1.0000
  O   O26       1.0  0.20080000000000003  0.57499  0.8925999999999997  1.0000
  O   O27       1.0  0.63342  0.57921  0.025009999999999994  1.0000
  O   O28       1.0  0.51339  0.59483  0.91555  1.0000
  O   O29       1.0  0.32552  0.36075999999999997  0.80328  1.0000
  O   O30       1.0  0.4072699999999999  0.48508000000000007  0.79339  1.0000
  O   O31       1.0  0.14651000000000003  0.27716  0.96056  1.0000
  O   O32       1.0  0.35306000000000004  0.22223  0.9883499999999998  1.0000
