data_image0
_chemical_formula_structural       Zn4H40C68N4O16
_chemical_formula_sum              "Zn4 H40 C68 N4 O16"
_cell_length_a       10.35755
_cell_length_b       11.99347
_cell_length_c       13.72107
_cell_angle_alpha    98.06261999999998
_cell_angle_beta     95.00453
_cell_angle_gamma    102.77766

_symmetry_space_group_name_H-M    'P 1'
_symmetry_Int_Tables_number       1

loop_
  _symmetry_equiv_pos_as_xyz
  'x,y,z'

loop_
  _atom_site_type_symbol
  _atom_site_label
  _atom_site_symmetry_multiplicity
  _atom_site_fract_x
  _atom_site_fract_y
  _atom_site_fract_z
  _atom_site_occupancy
  Zn  Zn1       1.0  0.28902000000000005  0.97552  0.7704900000000002  1.0000
  Zn  Zn2       1.0  0.23435000000000009  0.8011700000000002  0.5385700000000001  1.0000
  Zn  Zn3       1.0  0.71098  0.02448000000000001  0.22952  1.0000
  Zn  Zn4       1.0  0.76565  0.19883  0.46143  1.0000
  H   H1        1.0  0.22255000000000003  0.68165  0.77134  1.0000
  H   H2        1.0  0.3522600000000001  0.24366000000000002  0.5966400000000001  1.0000
  H   H3        1.0  0.12837000000000004  0.48377000000000003  0.005210000000000002  1.0000
  H   H4        1.0  0.03124999999999999  0.81509  0.3724400000000001  1.0000
  H   H5        1.0  0.14969000000000002  0.04905000000000002  0.9408600000000003  1.0000
  H   H6        1.0  0.6364700000000001  0.94315  0.52276  1.0000
  H   H7        1.0  0.50154  0.75058  0.7948600000000002  1.0000
  H   H8        1.0  0.4394400000000001  0.86323  0.9066200000000002  1.0000
  H   H9        1.0  0.37891  0.42822  0.53007  1.0000
  H   H10       1.0  0.04057000000000003  0.86325  0.20377000000000006  1.0000
  H   H11       1.0  0.12167000000000001  0.001320000000000002  0.11099000000000002  1.0000
  H   H12       1.0  0.42025  0.8025  0.07206  1.0000
  H   H13       1.0  0.98399  0.76305  0.8017600000000003  1.0000
  H   H14       1.0  0.45653  0.8414800000000001  0.23375000000000004  1.0000
  H   H15       1.0  0.86181  0.6885899999999999  0.9333300000000002  1.0000
  H   H16       1.0  0.42577  0.79028  0.3994200000000001  1.0000
  H   H17       1.0  0.15006000000000005  0.66865  0.9371200000000002  1.0000
  H   H18       1.0  0.18047000000000005  0.31327000000000005  0.9059000000000003  1.0000
  H   H19       1.0  0.61694  0.67698  0.92784  1.0000
  H   H20       1.0  0.87254  0.9331200000000001  0.5168600000000001  1.0000
  H   H21       1.0  0.8783299999999999  0.9986799999999998  0.88901  1.0000
  H   H22       1.0  0.96875  0.18490999999999996  0.62756  1.0000
  H   H23       1.0  0.77745  0.31835  0.22866  1.0000
  H   H24       1.0  0.6477400000000002  0.7563400000000001  0.4033600000000001  1.0000
  H   H25       1.0  0.13819000000000004  0.31142  0.06667000000000001  1.0000
  H   H26       1.0  0.5742300000000001  0.20972  0.6005800000000001  1.0000
  H   H27       1.0  0.95943  0.13675000000000007  0.7962400000000002  1.0000
  H   H28       1.0  0.12746  0.06688  0.48314  1.0000
  H   H29       1.0  0.3635300000000001  0.056850000000000026  0.4772500000000001  1.0000
  H   H30       1.0  0.6210900000000001  0.57179  0.46994000000000014  1.0000
  H   H31       1.0  0.5434700000000001  0.15852  0.7662500000000001  1.0000
  H   H32       1.0  0.49846000000000007  0.24942000000000003  0.20514  1.0000
  H   H33       1.0  0.5605600000000001  0.13677000000000006  0.09339000000000003  1.0000
  H   H34       1.0  0.8716300000000001  0.51623  0.99479  1.0000
  H   H35       1.0  0.84994  0.33136  0.06288  1.0000
  H   H36       1.0  0.81953  0.68674  0.09410000000000003  1.0000
  H   H37       1.0  0.57975  0.19750000000000004  0.9279400000000001  1.0000
  H   H38       1.0  0.016010000000000028  0.23695000000000005  0.19825000000000004  1.0000
  H   H39       1.0  0.3830600000000001  0.32302  0.07217  1.0000
  H   H40       1.0  0.8503100000000002  0.9509500000000001  0.05914000000000001  1.0000
  C   C1        1.0  0.8864200000000002  0.8581199999999998  0.64873  1.0000
  C   C2        1.0  0.32323  0.31647  0.63776  1.0000
  C   C3        1.0  0.1904  0.9657  0.06736000000000002  1.0000
  C   C4        1.0  0.8105000000000003  0.7217799999999999  0.8752700000000002  1.0000
  C   C5        1.0  0.13008999999999996  0.84961  0.24342  1.0000
  C   C6        1.0  0.6785700000000001  0.8138400000000001  0.7274  1.0000
  C   C7        1.0  0.61631  0.8667200000000002  0.65435  1.0000
  C   C8        1.0  0.23355000000000006  0.39891  0.7823100000000002  1.0000
  C   C9        1.0  0.35898000000000013  0.8582  0.046890000000000015  1.0000
  C   C10       1.0  0.33691  0.4205  0.59953  1.0000
  C   C11       1.0  0.30207  0.61655  0.59638  1.0000
  C   C12       1.0  0.29536  0.51324  0.6484600000000001  1.0000
  C   C13       1.0  0.24652000000000002  0.50593  0.74285  1.0000
  C   C14       1.0  0.60839  0.75959  0.79947  1.0000
  C   C15       1.0  0.25311  0.18632999999999997  0.75743  1.0000
  C   C16       1.0  0.3587900000000001  0.8345400000000001  0.25894000000000006  1.0000
  C   C17       1.0  0.16046000000000002  0.48922000000000004  0.9321500000000003  1.0000
  C   C18       1.0  0.8799500000000002  0.76496  0.8020400000000002  1.0000
  C   C19       1.0  0.17274000000000003  0.59376  0.8936400000000002  1.0000
  C   C20       1.0  0.2696700000000001  0.30261  0.72588  1.0000
  C   C21       1.0  0.12255999999999999  0.82102  0.33773  1.0000
  C   C22       1.0  0.4815500000000001  0.8910800000000001  0.6595600000000003  1.0000
  C   C23       1.0  0.03265000000000002  0.8708500000000001  0.6461800000000001  1.0000
  C   C24       1.0  0.3440300000000001  0.8068600000000002  0.3526800000000001  1.0000
  C   C25       1.0  0.21438  0.60168  0.80141  1.0000
  C   C26       1.0  0.26666  0.89466  0.10545000000000003  1.0000
  C   C27       1.0  0.8177200000000002  0.8128  0.7265300000000002  1.0000
  C   C28       1.0  0.20602999999999996  0.9942099999999999  0.97372  1.0000
  C   C29       1.0  0.36975  0.89057  0.95425  1.0000
  C   C30       1.0  0.18999000000000008  0.39432000000000006  0.8775500000000003  1.0000
  C   C31       1.0  0.8186700000000002  0.8988000000000002  0.57485  1.0000
  C   C32       1.0  0.67284  0.71667  0.87288  1.0000
  C   C33       1.0  0.6852099999999999  0.90445  0.5782  1.0000
  C   C34       1.0  0.25139000000000006  0.8593  0.20330000000000006  1.0000
  C   C35       1.0  0.39161000000000007  0.24041  0.20053000000000007  1.0000
  C   C36       1.0  0.18133000000000002  0.10120000000000003  0.4251500000000001  1.0000
  C   C37       1.0  0.11358000000000003  0.14188000000000003  0.35127000000000014  1.0000
  C   C38       1.0  0.32716  0.28333  0.12712  1.0000
  C   C39       1.0  0.38369  0.13328  0.34565  1.0000
  C   C40       1.0  0.9673500000000002  0.12915000000000004  0.35382000000000013  1.0000
  C   C41       1.0  0.76645  0.60109  0.21769  1.0000
  C   C42       1.0  0.8096  0.03430000000000004  0.9326400000000001  1.0000
  C   C43       1.0  0.6979300000000002  0.38345  0.4036200000000001  1.0000
  C   C44       1.0  0.6630900000000001  0.5795  0.4004700000000001  1.0000
  C   C45       1.0  0.12005000000000005  0.23505000000000004  0.19796000000000002  1.0000
  C   C46       1.0  0.75348  0.49407  0.25715000000000005  1.0000
  C   C47       1.0  0.70464  0.4867600000000001  0.35154000000000013  1.0000
  C   C48       1.0  0.8774400000000002  0.17898000000000003  0.66227  1.0000
  C   C49       1.0  0.6302500000000001  0.10944  0.04575  1.0000
  C   C50       1.0  0.83954  0.51078  0.06785  1.0000
  C   C51       1.0  0.65597  0.19314  0.6473200000000001  1.0000
  C   C52       1.0  0.64102  0.1418  0.95311  1.0000
  C   C53       1.0  0.86991  0.15040000000000006  0.7565800000000003  1.0000
  C   C54       1.0  0.74861  0.14070000000000002  0.7967000000000002  1.0000
  C   C55       1.0  0.7856200000000001  0.39831999999999995  0.19859000000000004  1.0000
  C   C56       1.0  0.73334  0.10534000000000002  0.89455  1.0000
  C   C57       1.0  0.51845  0.10892  0.34044  1.0000
  C   C58       1.0  0.7468900000000002  0.8136700000000001  0.24257  1.0000
  C   C59       1.0  0.18228000000000008  0.1872  0.27347  1.0000
  C   C60       1.0  0.8100100000000001  0.60568  0.12245000000000002  1.0000
  C   C61       1.0  0.32143000000000005  0.18616  0.2726100000000001  1.0000
  C   C62       1.0  0.67677  0.68354  0.36224  1.0000
  C   C63       1.0  0.3147900000000002  0.09555000000000004  0.42181000000000013  1.0000
  C   C64       1.0  0.18950000000000003  0.27822  0.12473000000000002  1.0000
  C   C65       1.0  0.8272600000000002  0.40624  0.10636000000000002  1.0000
  C   C66       1.0  0.73033  0.69739  0.27412  1.0000
  C   C67       1.0  0.6412100000000002  0.16546  0.74106  1.0000
  C   C68       1.0  0.7939700000000001  0.00579  0.026280000000000005  1.0000
  N   N1        1.0  0.29356000000000004  0.95658  0.9173100000000002  1.0000
  N   N2        1.0  0.22826000000000005  0.80203  0.39222  1.0000
  N   N3        1.0  0.70644  0.04343000000000001  0.08269000000000003  1.0000
  N   N4        1.0  0.7717400000000001  0.1979700000000001  0.6077800000000002  1.0000
  O   O1        1.0  0.16989000000000007  0.15030000000000002  0.8141900000000001  1.0000
  O   O2        1.0  0.07769000000000001  0.87191  0.56222  1.0000
  O   O3        1.0  0.39068  0.64385  0.5423300000000002  1.0000
  O   O4        1.0  0.10518999999999996  0.8828500000000001  0.72884  1.0000
  O   O5        1.0  0.20729000000000006  0.6718  0.60993  1.0000
  O   O6        1.0  0.4375200000000001  0.89925  0.74421  1.0000
  O   O7        1.0  0.3308400000000001  0.12284000000000002  0.7205500000000001  1.0000
  O   O8        1.0  0.41720000000000007  0.9067  0.58089  1.0000
  O   O9        1.0  0.6093200000000001  0.35615  0.45768  1.0000
  O   O10       1.0  0.66916  0.8771600000000002  0.27945000000000003  1.0000
  O   O11       1.0  0.89481  0.11715000000000003  0.27116000000000007  1.0000
  O   O12       1.0  0.92231  0.12809  0.43778  1.0000
  O   O13       1.0  0.5828000000000002  0.09330000000000002  0.41912000000000005  1.0000
  O   O14       1.0  0.56248  0.10075  0.2558  1.0000
  O   O15       1.0  0.8301100000000002  0.8497000000000001  0.18582000000000004  1.0000
  O   O16       1.0  0.7927100000000001  0.3282  0.39007  1.0000
