data_image0
_chemical_formula_structural       Zn10H32C48S4N36O16
_chemical_formula_sum              "Zn10 H32 C48 S4 N36 O16"
_cell_length_a       16.00283
_cell_length_b       15.99642
_cell_length_c       16.03918
_cell_angle_alpha    107.90259
_cell_angle_beta     108.00676
_cell_angle_gamma    112.6846

_symmetry_space_group_name_H-M    'P 1'
_symmetry_Int_Tables_number       1

loop_
  _symmetry_equiv_pos_as_xyz
  'x,y,z'

loop_
  _atom_site_type_symbol
  _atom_site_label
  _atom_site_symmetry_multiplicity
  _atom_site_fract_x
  _atom_site_fract_y
  _atom_site_fract_z
  _atom_site_occupancy
  Zn  Zn1       1.0  0.80338  0.016320000000000005  0.050270000000000016  1.0000
  Zn  Zn2       1.0  0.9659100000000002  0.75318  0.9487300000000001  1.0000
  Zn  Zn3       1.0  0.9830000000000001  0.03685000000000009  0.7875000000000002  1.0000
  Zn  Zn4       1.0  0.24659  0.19633000000000003  0.21301000000000003  1.0000
  Zn  Zn5       1.0  0.44621000000000016  0.9965400000000001  0.7129900000000002  1.0000
  Zn  Zn6       1.0  0.287  0.7332  0.28758000000000006  1.0000
  Zn  Zn7       1.0  0.26628  0.55343  0.55031  1.0000
  Zn  Zn8       1.0  0.0018400000000000688  0.71472  0.4467000000000001  1.0000
  Zn  Zn9       1.0  0.9998799999999999  7.000000000007616e-05  0.9999300000000001  1.0000
  Zn  Zn10      1.0  0.25000999999999995  0.74992  0.4999000000000001  1.0000
  H   H1        1.0  0.45863  0.92367  0.99133  1.0000
  H   H2        1.0  0.95025  0.20292999999999997  0.29062  1.0000
  H   H3        1.0  0.16565  0.29069  0.3737400000000001  1.0000
  H   H4        1.0  0.67455  0.77716  0.02167  1.0000
  H   H5        1.0  0.9341899999999999  0.4682799999999999  0.00876  1.0000
  H   H6        1.0  0.91317  0.66162  0.7079800000000002  1.0000
  H   H7        1.0  0.91762  0.79522  0.62711  1.0000
  H   H8        1.0  0.75637  0.65196  0.9771100000000003  1.0000
  H   H9        1.0  0.07492999999999998  0.06660000000000002  0.53565  1.0000
  H   H10       1.0  0.7951600000000001  0.08889000000000004  0.7484700000000001  1.0000
  H   H11       1.0  0.7076500000000001  0.08260000000000002  0.87538  1.0000
  H   H12       1.0  0.22250000000000011  0.24506000000000006  0.8976400000000002  1.0000
  H   H13       1.0  0.53262  0.54123  0.46586  1.0000
  H   H14       1.0  0.3405  0.04935  0.25312  1.0000
  H   H15       1.0  0.20778999999999995  0.8339299999999997  0.12455000000000002  1.0000
  H   H16       1.0  0.3482100000000001  0.32559  0.10441000000000002  1.0000
  H   H17       1.0  0.7912699999999999  0.28244  0.96582  1.0000
  H   H18       1.0  0.2987800000000001  0.08954000000000013  0.7525100000000002  1.0000
  H   H19       1.0  0.08336999999999996  0.9569199999999999  0.6235500000000002  1.0000
  H   H20       1.0  0.57561  0.09831999999999998  0.60462  1.0000
  H   H21       1.0  0.31696  0.82526  0.03615  1.0000
  H   H22       1.0  0.33896  0.54558  0.2489  1.0000
  H   H23       1.0  0.3326199999999999  0.4579500000000001  0.3758700000000001  1.0000
  H   H24       1.0  0.4953199999999999  0.9728599999999998  0.39800000000000013  1.0000
  H   H25       1.0  0.17404  0.20865  0.49151  1.0000
  H   H26       1.0  0.4531200000000001  0.7000400000000001  0.7907900000000002  1.0000
  H   H27       1.0  0.5409999999999996  0.9154  0.87398  1.0000
  H   H28       1.0  0.027289999999999988  0.42467  0.52185  1.0000
  H   H29       1.0  0.71835  0.68416  0.5084900000000001  1.0000
  H   H30       1.0  0.9113299999999999  0.6629099999999999  0.20682000000000006  1.0000
  H   H31       1.0  0.04506999999999989  0.66768  0.12637  1.0000
  H   H32       1.0  0.90197  0.50647  0.4770000000000001  1.0000
  C   C1        1.0  0.66774  0.97059  0.10663000000000003  1.0000
  C   C2        1.0  0.56991  0.92115  0.10859000000000003  1.0000
  C   C3        1.0  0.47287999999999997  0.9008199999999998  0.04889  1.0000
  C   C4        1.0  0.9965899999999998  0.18936999999999998  0.25775  1.0000
  C   C5        1.0  0.10273000000000002  0.23162  0.29838000000000003  1.0000
  C   C6        1.0  0.74043  0.7908999999999998  0.009630000000000003  1.0000
  C   C7        1.0  0.8646000000000003  0.56107  0.8932100000000002  1.0000
  C   C8        1.0  0.8135000000000001  0.4613000000000001  0.8914700000000002  1.0000
  C   C9        1.0  0.85337  0.42464  0.9514900000000002  1.0000
  C   C10       1.0  0.93215  0.74084  0.7416400000000001  1.0000
  C   C11       1.0  0.9336699999999997  0.8070199999999998  0.7020600000000001  1.0000
  C   C12       1.0  0.7815900000000001  0.72996  0.98933  1.0000
  C   C13       1.0  0.028900000000000033  0.13603  0.6966400000000001  1.0000
  C   C14       1.0  0.07839000000000007  0.18743000000000007  0.6485600000000001  1.0000
  C   C15       1.0  0.09843  0.14735  0.57221  1.0000
  C   C16       1.0  0.8090700000000002  0.0691500000000001  0.8080100000000002  1.0000
  C   C17       1.0  0.76689  0.06666000000000012  0.8715500000000003  1.0000
  C   C18       1.0  0.20879000000000011  0.2195400000000001  0.9498600000000003  1.0000
  C   C19       1.0  0.43923000000000006  0.33232  0.3034500000000001  1.0000
  C   C20       1.0  0.53898  0.43057000000000006  0.35215000000000013  1.0000
  C   C21       1.0  0.5759900000000001  0.52751  0.42863000000000007  1.0000
  C   C22       1.0  0.26114000000000004  0.002990000000000027  0.19285000000000005  1.0000
  C   C23       1.0  0.19543999999999995  0.8968899999999997  0.12848  1.0000
  C   C24       1.0  0.26996  0.26004  0.051830000000000015  1.0000
  C   C25       1.0  0.58228  0.1892100000000001  0.8034900000000003  1.0000
  C   C26       1.0  0.68055  0.28894000000000014  0.8520800000000002  1.0000
  C   C27       1.0  0.77754  0.3259000000000001  0.92862  1.0000
  C   C28       1.0  0.25242  0.01026999999999999  0.69216  1.0000
  C   C29       1.0  0.14633  0.9446  0.62755  1.0000
  C   C30       1.0  0.51009  0.02008999999999995  0.55202  1.0000
  C   C31       1.0  0.38635  0.77921  0.197  1.0000
  C   C32       1.0  0.43794  0.82872  0.14905  1.0000
  C   C33       1.0  0.3977199999999999  0.8486499999999999  0.07255  1.0000
  C   C34       1.0  0.31918  0.5594  0.30837  1.0000
  C   C35       1.0  0.31669000000000014  0.5171800000000001  0.3719400000000001  1.0000
  C   C36       1.0  0.4696799999999999  0.9590199999999999  0.4500900000000001  1.0000
  C   C37       1.0  0.22076  0.41761  0.60668  1.0000
  C   C38       1.0  0.1713500000000001  0.31968000000000013  0.6085700000000003  1.0000
  C   C39       1.0  0.15094999999999997  0.22269999999999995  0.54885  1.0000
  C   C40       1.0  0.4395500000000001  0.7464600000000001  0.7579300000000002  1.0000
  C   C41       1.0  0.48186  0.8526000000000001  0.7985900000000002  1.0000
  C   C42       1.0  0.04092999999999992  0.4905099999999999  0.50967  1.0000
  C   C43       1.0  0.8108799999999998  0.61464  0.39316  1.0000
  C   C44       1.0  0.71121  0.56344  0.39140000000000014  1.0000
  C   C45       1.0  0.67466  0.60332  0.45139  1.0000
  C   C46       1.0  0.9905899999999999  0.6819699999999999  0.24065  1.0000
  C   C47       1.0  0.056909999999999905  0.6837199999999998  0.20133  1.0000
  C   C48       1.0  0.97992  0.53159  0.48914000000000013  1.0000
  S   S1        1.0  0.56845  0.8752800000000001  0.19291000000000005  1.0000
  S   S2        1.0  0.6827900000000001  0.37491  0.80758  1.0000
  S   S3        1.0  0.1251900000000001  0.3179800000000001  0.6925700000000002  1.0000
  S   S4        1.0  0.62483  0.4327600000000001  0.3076500000000001  1.0000
  N   N1        1.0  0.026510000000000034  0.11599000000000002  0.14043000000000005  1.0000
  N   N2        1.0  0.95204  0.11877  0.16026  1.0000
  N   N3        1.0  0.11846  0.18426  0.22392  1.0000
  N   N4        1.0  0.8012199999999999  0.8813399999999999  0.014910000000000003  1.0000
  N   N5        1.0  0.97539  0.88753  0.85973  1.0000
  N   N6        1.0  0.9586400000000002  0.79298  0.8390800000000002  1.0000
  N   N7        1.0  0.96036  0.89691  0.77697  1.0000
  N   N8        1.0  0.8665199999999998  0.7861399999999998  0.98419  1.0000
  N   N9        1.0  0.88308  0.02471999999999996  0.91064  1.0000
  N   N10       1.0  0.88005  0.04251000000000002  0.8338000000000001  1.0000
  N   N11       1.0  0.8146199999999999  0.039230000000000154  0.9342000000000003  1.0000
  N   N12       1.0  0.11802000000000014  0.1347300000000001  0.9203300000000002  1.0000
  N   N13       1.0  0.11379  0.97325  0.08901000000000003  1.0000
  N   N14       1.0  0.20821999999999996  0.04762  0.16674  1.0000
  N   N15       1.0  0.1051999999999998  0.8812999999999998  0.06508000000000001  1.0000
  N   N16       1.0  0.21365000000000003  0.19901000000000002  0.08064000000000003  1.0000
  N   N17       1.0  0.2227800000000001  0.86316  0.58825  1.0000
  N   N18       1.0  0.29715  0.9575000000000001  0.6661600000000001  1.0000
  N   N19       1.0  0.13073999999999983  0.8544599999999998  0.56406  1.0000
  N   N20       1.0  0.44898  0.96369  0.5807  1.0000
  N   N21       1.0  0.27473  0.63332  0.41081000000000006  1.0000
  N   N22       1.0  0.29253  0.63033  0.33403  1.0000
  N   N23       1.0  0.28925000000000006  0.56485  0.4344600000000001  1.0000
  N   N24       1.0  0.3848300000000001  0.8682200000000001  0.4204400000000001  1.0000
  N   N25       1.0  0.36607  0.77656  0.64064  1.0000
  N   N26       1.0  0.36885  0.70202  0.66045  1.0000
  N   N27       1.0  0.43444000000000005  0.86846  0.72413  1.0000
  N   N28       1.0  0.13130000000000006  0.55126  0.51485  1.0000
  N   N29       1.0  0.1373100000000001  0.7253300000000003  0.3590800000000001  1.0000
  N   N30       1.0  0.042640000000000004  0.70838  0.33811  1.0000
  N   N31       1.0  0.14682000000000006  0.7105000000000001  0.27645000000000003  1.0000
  N   N32       1.0  0.03594000000000001  0.6163799999999999  0.48370000000000013  1.0000
  N   N33       1.0  0.8773400000000001  0.8774700000000001  0.9996000000000002  1.0000
  N   N34       1.0  0.12192999999999997  0.12334  0.00023000000000000003  1.0000
  N   N35       1.0  0.3733499999999998  0.87201  0.50025  1.0000
  N   N36       1.0  0.12728999999999988  0.6272399999999998  0.49922  1.0000
  O   O1        1.0  0.74982  0.9884  0.17201  1.0000
  O   O2        1.0  0.66477  0.98987  0.03245  1.0000
  O   O3        1.0  0.8163100000000001  0.5772700000000002  0.8278400000000002  1.0000
  O   O4        1.0  0.9584699999999999  0.6329899999999999  0.9672700000000002  1.0000
  O   O5        1.0  0.011750000000000134  0.1840500000000001  0.7612600000000003  1.0000
  O   O6        1.0  0.008610000000000022  0.04208000000000001  0.6740900000000001  1.0000
  O   O7        1.0  0.42294  0.2508  0.23884000000000002  1.0000
  O   O8        1.0  0.36759999999999987  0.33434  0.32567  1.0000
  O   O9        1.0  0.50061  0.17283000000000018  0.7388500000000002  1.0000
  O   O10       1.0  0.5843300000000002  0.11760000000000012  0.8258400000000002  1.0000
  O   O11       1.0  0.43425  0.76213  0.2619  1.0000
  O   O12       1.0  0.29227  0.75875  0.17399  1.0000
  O   O13       1.0  0.23877000000000007  0.49962  0.6722000000000002  1.0000
  O   O14       1.0  0.2398  0.41478  0.53242  1.0000
  O   O15       1.0  0.82703  0.56638  0.3277500000000001  1.0000
  O   O16       1.0  0.8827899999999997  0.7085  0.4670100000000001  1.0000
