data_image0
_chemical_formula_structural       Zn4H32C48N4O16
_chemical_formula_sum              "Zn4 H32 C48 N4 O16"
_cell_length_a       7.80862
_cell_length_b       12.498380000000001
_cell_length_c       18.88703
_cell_angle_alpha    120.90120999999999
_cell_angle_beta     89.72536000000001
_cell_angle_gamma    108.62807

_symmetry_space_group_name_H-M    'P 1'
_symmetry_Int_Tables_number       1

loop_
  _symmetry_equiv_pos_as_xyz
  'x,y,z'

loop_
  _atom_site_type_symbol
  _atom_site_label
  _atom_site_symmetry_multiplicity
  _atom_site_fract_x
  _atom_site_fract_y
  _atom_site_fract_z
  _atom_site_occupancy
  Zn  Zn1       1.0  0.7480600000000001  0.11722000000000024  0.8805100000000002  1.0000
  Zn  Zn2       1.0  0.63726  0.88143  0.61897  1.0000
  Zn  Zn3       1.0  0.25194000000000005  0.8827800000000001  0.11949  1.0000
  Zn  Zn4       1.0  0.3627399999999999  0.11856000000000001  0.38103  1.0000
  H   H1        1.0  0.6249499999999999  0.10300000000000002  0.58991  1.0000
  H   H2        1.0  0.45037  0.43209  0.65918  1.0000
  H   H3        1.0  0.70103  0.40847000000000017  0.8519900000000002  1.0000
  H   H4        1.0  0.62763  0.7311  0.94225  1.0000
  H   H5        1.0  0.8013700000000001  0.6626000000000002  0.9212600000000002  1.0000
  H   H6        1.0  0.83646  0.62552  0.029280000000000007  1.0000
  H   H7        1.0  0.2914900000000001  0.4871400000000001  0.89468  1.0000
  H   H8        1.0  0.51997  0.6081900000000002  0.80332  1.0000
  H   H9        1.0  0.52746  0.89547  0.90857  1.0000
  H   H10       1.0  0.01992000000000006  0.5654200000000001  0.8408  1.0000
  H   H11       1.0  0.2927799999999999  0.5908  0.64706  1.0000
  H   H12       1.0  0.8931599999999998  0.26813000000000003  0.55717  1.0000
  H   H13       1.0  0.13656  0.3368000000000001  0.57725  1.0000
  H   H14       1.0  0.20917  0.37457  0.46959  1.0000
  H   H15       1.0  0.80448  0.5128  0.60611  1.0000
  H   H16       1.0  0.9099300000000001  0.3898700000000002  0.6962000000000003  1.0000
  H   H17       1.0  0.37505000000000005  0.8970000000000001  0.4101  1.0000
  H   H18       1.0  0.54963  0.56791  0.34082  1.0000
  H   H19       1.0  0.29897000000000007  0.5915300000000001  0.14802  1.0000
  H   H20       1.0  0.37237000000000003  0.26890000000000003  0.05775  1.0000
  H   H21       1.0  0.19863000000000006  0.33740000000000003  0.07874  1.0000
  H   H22       1.0  0.16355000000000008  0.37448000000000015  0.97073  1.0000
  H   H23       1.0  0.70851  0.5128600000000001  0.10532000000000002  1.0000
  H   H24       1.0  0.48003000000000007  0.39181000000000005  0.19668  1.0000
  H   H25       1.0  0.4725500000000001  0.10453000000000001  0.09143  1.0000
  H   H26       1.0  0.9800899999999998  0.43458  0.15921  1.0000
  H   H27       1.0  0.70722  0.4092  0.35294  1.0000
  H   H28       1.0  0.10685000000000013  0.7318700000000002  0.44284  1.0000
  H   H29       1.0  0.86344  0.6632  0.42275  1.0000
  H   H30       1.0  0.79084  0.6254300000000002  0.53041  1.0000
  H   H31       1.0  0.19552000000000003  0.4872000000000001  0.39389  1.0000
  H   H32       1.0  0.09006999999999994  0.61013  0.3038  1.0000
  C   C1        1.0  0.73735  0.17362000000000005  0.75017  1.0000
  C   C2        1.0  0.67021  0.24948000000000012  0.72401  1.0000
  C   C3        1.0  0.6146  0.19674  0.6385  1.0000
  C   C4        1.0  0.53491  0.26456  0.61676  1.0000
  C   C5        1.0  0.51487  0.38303000000000004  0.67824  1.0000
  C   C6        1.0  0.5809  0.44124  0.7646  1.0000
  C   C7        1.0  0.65656  0.37105  0.78644  1.0000
  C   C8        1.0  0.65109  0.63624  0.91289  1.0000
  C   C9        1.0  0.57187  0.56543  0.95781  1.0000
  C   C10       1.0  0.68858  0.57127  0.01694  1.0000
  C   C11       1.0  0.38255000000000006  0.49313000000000007  0.94114  1.0000
  C   C12       1.0  0.47236000000000006  0.20865000000000009  0.52649  1.0000
  C   C13       1.0  0.5683  0.82486  0.74803  1.0000
  C   C14       1.0  0.42399000000000014  0.7493700000000003  0.7746700000000002  1.0000
  C   C15       1.0  0.4218200000000001  0.8019100000000002  0.8602600000000002  1.0000
  C   C16       1.0  0.27365  0.73411  0.88264  1.0000
  C   C17       1.0  0.13368  0.61516  0.82149  1.0000
  C   C18       1.0  0.14038999999999988  0.55726  0.73494  1.0000
  C   C19       1.0  0.28681  0.62786  0.71268  1.0000
  C   C20       1.0  0.012919999999999994  0.36306  0.58642  1.0000
  C   C21       1.0  0.005479999999999989  0.43446  0.54202  1.0000
  C   C22       1.0  0.11626999999999994  0.42877  0.48243  1.0000
  C   C23       1.0  0.8895800000000001  0.5068100000000001  0.5593400000000001  1.0000
  C   C24       1.0  0.26807000000000003  0.7907300000000002  0.97319  1.0000
  C   C25       1.0  0.26265000000000005  0.8263800000000002  0.24984  1.0000
  C   C26       1.0  0.3297900000000001  0.7505200000000001  0.27599  1.0000
  C   C27       1.0  0.3854000000000001  0.8032600000000001  0.3615100000000001  1.0000
  C   C28       1.0  0.46509  0.73544  0.38325  1.0000
  C   C29       1.0  0.48513  0.61697  0.32176  1.0000
  C   C30       1.0  0.41910000000000003  0.5587600000000001  0.23540000000000005  1.0000
  C   C31       1.0  0.34344  0.62895  0.21356  1.0000
  C   C32       1.0  0.34891  0.36376  0.08711  1.0000
  C   C33       1.0  0.42814  0.43457  0.04219  1.0000
  C   C34       1.0  0.3114200000000002  0.4287300000000002  0.98306  1.0000
  C   C35       1.0  0.6174600000000001  0.5068700000000003  0.05886  1.0000
  C   C36       1.0  0.52764  0.7913500000000001  0.47351  1.0000
  C   C37       1.0  0.43171  0.17514  0.25197  1.0000
  C   C38       1.0  0.57601  0.2506300000000001  0.22533000000000006  1.0000
  C   C39       1.0  0.57819  0.19809000000000004  0.13974000000000006  1.0000
  C   C40       1.0  0.72635  0.26589  0.11736  1.0000
  C   C41       1.0  0.86632  0.38484000000000007  0.17851  1.0000
  C   C42       1.0  0.85962  0.44274  0.26507  1.0000
  C   C43       1.0  0.71319  0.37214000000000014  0.28732  1.0000
  C   C44       1.0  0.98708  0.6369399999999998  0.41358  1.0000
  C   C45       1.0  0.99452  0.56554  0.45799  1.0000
  C   C46       1.0  0.88373  0.57123  0.51758  1.0000
  C   C47       1.0  0.11043000000000003  0.4931900000000001  0.44066  1.0000
  C   C48       1.0  0.73194  0.20927  0.02681  1.0000
  N   N1        1.0  0.5669500000000001  0.5602600000000003  0.8240800000000003  1.0000
  N   N2        1.0  0.005960000000000008  0.43826  0.67553  1.0000
  N   N3        1.0  0.43306000000000006  0.43974000000000013  0.17593  1.0000
  N   N4        1.0  0.99404  0.56174  0.32447  1.0000
  O   O1        1.0  0.75637  0.2174700000000001  0.82906  1.0000
  O   O2        1.0  0.77515  0.07281000000000003  0.69593  1.0000
  O   O3        1.0  0.54571  0.1337800000000001  0.47071  1.0000
  O   O4        1.0  0.34297000000000005  0.2345200000000001  0.50349  1.0000
  O   O5        1.0  0.5477499999999997  0.77812  0.66876  1.0000
  O   O6        1.0  0.7053300000000001  0.9288200000000001  0.80214  1.0000
  O   O7        1.0  0.41708000000000006  0.8681300000000001  0.02869  1.0000
  O   O8        1.0  0.11318  0.76305  0.9969  1.0000
  O   O9        1.0  0.24364000000000005  0.7825200000000001  0.17094  1.0000
  O   O10       1.0  0.22485  0.92718  0.30407  1.0000
  O   O11       1.0  0.45429000000000014  0.8662100000000003  0.5293  1.0000
  O   O12       1.0  0.6570299999999998  0.7654800000000002  0.49651  1.0000
  O   O13       1.0  0.45226  0.22188000000000016  0.3312400000000001  1.0000
  O   O14       1.0  0.29468  0.07118000000000003  0.19786  1.0000
  O   O15       1.0  0.58292  0.13187  0.97131  1.0000
  O   O16       1.0  0.88683  0.23695  0.0031  1.0000
