data_image0
_chemical_formula_structural       Mn4H32C52N4O20
_chemical_formula_sum              "Mn4 H32 C52 N4 O20"
_cell_length_a       12.64813
_cell_length_b       12.64797
_cell_length_c       13.4663
_cell_angle_alpha    63.34909999999999
_cell_angle_beta     63.33501999999999
_cell_angle_gamma    88.43264

_symmetry_space_group_name_H-M    'P 1'
_symmetry_Int_Tables_number       1

loop_
  _symmetry_equiv_pos_as_xyz
  'x,y,z'

loop_
  _atom_site_type_symbol
  _atom_site_label
  _atom_site_symmetry_multiplicity
  _atom_site_fract_x
  _atom_site_fract_y
  _atom_site_fract_z
  _atom_site_occupancy
  Mn  Mn1       1.0  0.49999999999999994  0.9996399999999999  0.99947  1.0000
  Mn  Mn2       1.0  0.99964  0.49999999999999994  0.49946999999999997  1.0000
  Mn  Mn3       1.0  0.30557  0.69415  0.25039  1.0000
  Mn  Mn4       1.0  0.6941599999999999  0.30558  0.75038  1.0000
  H   H1        1.0  0.7499700000000001  0.8535899999999998  0.7611099999999998  1.0000
  H   H2        1.0  0.86668  0.7340099999999999  0.65846  1.0000
  H   H3        1.0  0.64518  0.40321999999999997  0.00023  1.0000
  H   H4        1.0  0.53424  0.52221  0.10657  1.0000
  H   H5        1.0  0.24733999999999998  0.7901599999999998  0.011389999999999997  1.0000
  H   H6        1.0  0.08643000000000006  0.8475499999999997  0.9513199999999999  1.0000
  H   H7        1.0  0.046979999999999994  0.10419999999999999  0.09124  1.0000
  H   H8        1.0  0.21296999999999996  0.03696000000000001  0.14077  1.0000
  H   H9        1.0  0.14620000000000008  0.25029999999999997  0.7385899999999999  1.0000
  H   H10       1.0  0.2655400000000001  0.13338000000000008  0.8411299999999998  1.0000
  H   H11       1.0  0.5966799999999998  0.35454999999999975  0.49982  1.0000
  H   H12       1.0  0.47806999999999994  0.4659400000000001  0.39336  1.0000
  H   H13       1.0  0.20963999999999997  0.7527699999999998  0.48843  1.0000
  H   H14       1.0  0.15213000000000004  0.9133899999999999  0.5490599999999999  1.0000
  H   H15       1.0  0.89559  0.9533099999999998  0.40892  1.0000
  H   H16       1.0  0.96258  0.78705  0.35969  1.0000
  H   H17       1.0  0.2503000000000001  0.14622  0.23856999999999995  1.0000
  H   H18       1.0  0.13336  0.26555  0.34115  1.0000
  H   H19       1.0  0.35455000000000003  0.5966599999999999  0.9998299999999999  1.0000
  H   H20       1.0  0.46595000000000003  0.47806  0.8933399999999999  1.0000
  H   H21       1.0  0.7527699999999999  0.20964999999999992  0.98843  1.0000
  H   H22       1.0  0.9133799999999999  0.15214  0.04906  1.0000
  H   H23       1.0  0.95331  0.8955799999999997  0.90892  1.0000
  H   H24       1.0  0.7870600000000001  0.9625700000000003  0.8596899999999998  1.0000
  H   H25       1.0  0.8536100000000001  0.74998  0.26109  1.0000
  H   H26       1.0  0.7340199999999999  0.8666599999999998  0.15848  1.0000
  H   H27       1.0  0.40319  0.6451699999999999  0.50024  1.0000
  H   H28       1.0  0.5221999999999999  0.53426  0.60655  1.0000
  H   H29       1.0  0.79017  0.24734000000000003  0.5114  1.0000
  H   H30       1.0  0.8475599999999998  0.08641999999999998  0.45132  1.0000
  H   H31       1.0  0.10419000000000007  0.046980000000000015  0.5912299999999999  1.0000
  H   H32       1.0  0.036950000000000024  0.21298000000000006  0.6407699999999998  1.0000
  C   C1        1.0  0.55996  0.76317  0.00267  1.0000
  C   C2        1.0  0.6355100000000001  0.69472  0.9405999999999999  1.0000
  C   C3        1.0  0.73002  0.7550099999999997  0.8139099999999999  1.0000
  C   C4        1.0  0.7942299999999997  0.68878  0.75643  1.0000
  C   C5        1.0  0.7637600000000001  0.5615399999999998  0.8229099999999999  1.0000
  C   C6        1.0  0.67017  0.5016199999999997  0.94992  1.0000
  C   C7        1.0  0.60784  0.5674799999999999  0.00873  1.0000
  C   C8        1.0  0.8253800000000001  0.4908399999999998  0.7571499999999999  1.0000
  C   C9        1.0  0.19867  0.8586499999999999  0.02497  1.0000
  C   C10       1.0  0.10814000000000003  0.8920599999999999  0.99467  1.0000
  C   C11       1.0  0.047240000000000004  0.98102  0.01737  1.0000
  C   C12       1.0  0.08565999999999999  0.03291999999999999  0.07279  1.0000
  C   C13       1.0  0.17621999999999996  0.99771  0.10271  1.0000
  C   C14       1.0  0.23713000000000006  0.44079  0.49681999999999993  1.0000
  C   C15       1.0  0.30532  0.36447  0.55885  1.0000
  C   C16       1.0  0.24475  0.26997  0.6855099999999998  1.0000
  C   C17       1.0  0.31077000000000005  0.2054700000000001  0.7430399999999999  1.0000
  C   C18       1.0  0.4380100000000002  0.23565000000000003  0.6767599999999998  1.0000
  C   C19       1.0  0.49828  0.32935999999999993  0.5499  1.0000
  C   C20       1.0  0.43258000000000013  0.39202999999999977  0.49102  1.0000
  C   C21       1.0  0.50746  0.17470000000000008  0.7441899999999999  1.0000
  C   C22       1.0  0.1408800000000001  0.8012999999999998  0.47525999999999996  1.0000
  C   C23       1.0  0.10752999999999997  0.8917299999999998  0.50574  1.0000
  C   C24       1.0  0.018690000000000036  0.9528399999999997  0.4829399999999999  1.0000
  C   C25       1.0  0.9666700000000001  0.9144300000000001  0.42764999999999986  1.0000
  C   C26       1.0  0.0016500000000000145  0.8237399999999998  0.39794  1.0000
  C   C27       1.0  0.44079000000000007  0.23713  0.9968099999999999  1.0000
  C   C28       1.0  0.36448  0.30532  0.058839999999999996  1.0000
  C   C29       1.0  0.26997000000000004  0.24475999999999998  0.1855  1.0000
  C   C30       1.0  0.20546  0.31078  0.24305  1.0000
  C   C31       1.0  0.23564  0.438  0.17677999999999996  1.0000
  C   C32       1.0  0.32935999999999993  0.49827  0.0499  1.0000
  C   C33       1.0  0.39204000000000006  0.43256999999999984  0.99101  1.0000
  C   C34       1.0  0.17469  0.50747  0.2442  1.0000
  C   C35       1.0  0.8013000000000001  0.14089  0.97526  1.0000
  C   C36       1.0  0.89172  0.10754  0.00574  1.0000
  C   C37       1.0  0.9528400000000002  0.018690000000000102  0.9829399999999998  1.0000
  C   C38       1.0  0.9144300000000001  0.9666600000000001  0.92765  1.0000
  C   C39       1.0  0.82375  0.0016400000000000292  0.89794  1.0000
  C   C40       1.0  0.76317  0.5599699999999997  0.50267  1.0000
  C   C41       1.0  0.6947200000000001  0.6355199999999999  0.44058  1.0000
  C   C42       1.0  0.75502  0.7300199999999999  0.3139  1.0000
  C   C43       1.0  0.68879  0.79422  0.25644  1.0000
  C   C44       1.0  0.56153  0.7637499999999998  0.32292999999999994  1.0000
  C   C45       1.0  0.5016099999999998  0.6701700000000002  0.44992  1.0000
  C   C46       1.0  0.56747  0.6078499999999998  0.50872  1.0000
  C   C47       1.0  0.49084000000000005  0.82538  0.25716  1.0000
  C   C48       1.0  0.85866  0.1986699999999999  0.52497  1.0000
  C   C49       1.0  0.8920699999999999  0.10814000000000001  0.49467  1.0000
  C   C50       1.0  0.98102  0.04723999999999998  0.51737  1.0000
  C   C51       1.0  0.032920000000000005  0.08565999999999999  0.57279  1.0000
  C   C52       1.0  0.9977099999999998  0.17623  0.60271  1.0000
  N   N1        1.0  0.23101999999999998  0.9103199999999998  0.07999999999999999  1.0000
  N   N2        1.0  0.08916  0.76914  0.42024999999999996  1.0000
  N   N3        1.0  0.7691400000000002  0.08916000000000004  0.9202499999999999  1.0000
  N   N4        1.0  0.91032  0.2310299999999999  0.58001  1.0000
  O   O1        1.0  0.47781  0.70026  0.11841999999999997  1.0000
  O   O2        1.0  0.5827400000000001  0.8786899999999996  0.93528  1.0000
  O   O3        1.0  0.77827  0.37715999999999983  0.81552  1.0000
  O   O4        1.0  0.919  0.54665  0.64747  1.0000
  O   O5        1.0  0.31705000000000005  0.8758899999999997  0.11133  1.0000
  O   O6        1.0  0.30071000000000003  0.52295  0.38098999999999994  1.0000
  O   O7        1.0  0.12187000000000003  0.41894  0.56422  1.0000
  O   O8        1.0  0.62109  0.22109  0.68659  1.0000
  O   O9        1.0  0.44961  0.08333999999999994  0.85536  1.0000
  O   O10       1.0  0.12287999999999996  0.6828999999999997  0.38909  1.0000
  O   O11       1.0  0.52297  0.3007000000000001  0.8809699999999999  1.0000
  O   O12       1.0  0.41895  0.12188999999999997  0.0642  1.0000
  O   O13       1.0  0.22107999999999994  0.6210799999999999  0.18658999999999998  1.0000
  O   O14       1.0  0.08332000000000002  0.44960999999999984  0.35538999999999993  1.0000
  O   O15       1.0  0.68291  0.12287999999999998  0.8891  1.0000
  O   O16       1.0  0.70025  0.47783  0.6184  1.0000
  O   O17       1.0  0.87871  0.58275  0.43527  1.0000
  O   O18       1.0  0.37715  0.7782599999999997  0.31552  1.0000
  O   O19       1.0  0.5466500000000001  0.9189799999999998  0.14749999999999996  1.0000
  O   O20       1.0  0.8758900000000002  0.31706  0.6113399999999999  1.0000
