data_image0
_chemical_formula_structural       Ni4H48C68O26
_chemical_formula_sum              "Ni4 H48 C68 O26"
_cell_length_a       10.8591
_cell_length_b       16.78946
_cell_length_c       16.85255
_cell_angle_alpha    68.39311
_cell_angle_beta     89.55478
_cell_angle_gamma    89.55993

_space_group_name_H-M_alt    "P 1"
_space_group_IT_number       1

loop_
  _space_group_symop_operation_xyz
  'x, y, z'

loop_
  _atom_site_type_symbol
  _atom_site_label
  _atom_site_symmetry_multiplicity
  _atom_site_fract_x
  _atom_site_fract_y
  _atom_site_fract_z
  _atom_site_occupancy
  Ni  Ni1       1.0  0.64503  0.009920000000000052  0.48615999999999987  1.0000
  Ni  Ni2       1.0  0.49617  0.8225599999999998  0.51266  1.0000
  Ni  Ni3       1.0  0.35569999999999996  0.98973  0.51374  1.0000
  Ni  Ni4       1.0  0.50383  0.17722000000000004  0.4864699999999999  1.0000
  H   H1        1.0  0.19789  0.6892700000000002  0.4857199999999999  1.0000
  H   H2        1.0  0.45110999999999996  0.66885  0.77481  1.0000
  H   H3        1.0  0.06272  0.29929000000000006  0.6585899999999998  1.0000
  H   H4        1.0  0.0812  0.60159  0.64099  1.0000
  H   H5        1.0  0.33256  0.9140500000000001  0.7753699999999998  1.0000
  H   H6        1.0  0.38558  0.7019900000000001  0.012929999999999997  1.0000
  H   H7        1.0  0.7775799999999999  0.38487  0.02216  1.0000
  H   H8        1.0  0.6365  0.6752000000000001  0.83816  1.0000
  H   H9        1.0  0.8816799999999999  0.7255000000000001  0.68673  1.0000
  H   H10       1.0  0.79018  0.7565099999999999  0.75993  1.0000
  H   H11       1.0  0.72742  0.6863900000000001  0.7120899999999998  1.0000
  H   H12       1.0  0.26433  0.9748899999999999  0.94144  1.0000
  H   H13       1.0  0.22836  0.6048299999999999  0.73479  1.0000
  H   H14       1.0  0.20753  0.56043  0.8486099999999998  1.0000
  H   H15       1.0  0.07574  0.5962000000000001  0.78089  1.0000
  H   H16       1.0  0.08148  0.39215  0.94799  1.0000
  H   H17       1.0  0.93132  0.34849000000000013  0.9470699999999997  1.0000
  H   H18       1.0  0.97203  0.38604  0.030789999999999994  1.0000
  H   H19       1.0  0.18199  0.21601000000000006  0.77283  1.0000
  H   H20       1.0  0.02219  0.22350999999999996  0.79812  1.0000
  H   H21       1.0  0.13609  0.19855000000000014  0.8805799999999998  1.0000
  H   H22       1.0  0.8019499999999999  0.68508  0.4994099999999999  1.0000
  H   H23       1.0  0.99819  0.91291  0.4823499999999999  1.0000
  H   H24       1.0  0.49100999999999995  0.9666999999999999  0.39563  1.0000
  H   H25       1.0  0.8016  0.31055999999999995  0.5143699999999998  1.0000
  H   H26       1.0  0.54873  0.3308900000000001  0.22541999999999995  1.0000
  H   H27       1.0  0.93729  0.70074  0.3413499999999999  1.0000
  H   H28       1.0  0.91883  0.3984  0.3590299999999999  1.0000
  H   H29       1.0  0.66717  0.08616  0.22488  1.0000
  H   H30       1.0  0.61462  0.29794  0.98693  1.0000
  H   H31       1.0  0.22259  0.6149500000000002  0.9779599999999998  1.0000
  H   H32       1.0  0.36323  0.3246200000000001  0.16209999999999994  1.0000
  H   H33       1.0  0.11823000000000002  0.2743299999999999  0.3134499999999999  1.0000
  H   H34       1.0  0.20974  0.24339999999999998  0.24015999999999996  1.0000
  H   H35       1.0  0.2724400000000001  0.31359  0.28793999999999986  1.0000
  H   H36       1.0  0.7357699999999998  0.025120000000000003  0.058419999999999986  1.0000
  H   H37       1.0  0.77164  0.3951299999999999  0.26517  1.0000
  H   H38       1.0  0.79247  0.43955  0.15134  1.0000
  H   H39       1.0  0.9242499999999999  0.40376  0.21906  1.0000
  H   H40       1.0  0.9186099999999999  0.60784  0.05198999999999999  1.0000
  H   H41       1.0  0.06878  0.65143  0.052959999999999986  1.0000
  H   H42       1.0  0.028079999999999994  0.61391  0.9692299999999998  1.0000
  H   H43       1.0  0.81801  0.78388  0.22723999999999994  1.0000
  H   H44       1.0  0.9777999999999999  0.7764  0.20194999999999994  1.0000
  H   H45       1.0  0.86392  0.80139  0.11946999999999998  1.0000
  H   H46       1.0  0.1977  0.31528  0.50048  1.0000
  H   H47       1.0  0.00166  0.08723999999999998  0.51757  1.0000
  H   H48       1.0  0.50875  0.032940000000000046  0.6026199999999998  1.0000
  C   C1        1.0  0.11022  0.72051  0.4868599999999999  1.0000
  C   C2        1.0  0.038759999999999996  0.51936  0.57145  1.0000
  C   C3        1.0  0.000810000000000001  0.5861399999999999  0.4958399999999999  1.0000
  C   C4        1.0  0.03649  0.4319100000000002  0.5757999999999998  1.0000
  C   C5        1.0  0.40931  0.83492  0.6709199999999998  1.0000
  C   C6        1.0  0.39559999999999995  0.7956699999999999  0.76565  1.0000
  C   C7        1.0  0.5807  0.55678  0.9379699999999997  1.0000
  C   C8        1.0  0.42459  0.70908  0.8101299999999998  1.0000
  C   C9        1.0  0.46020999999999995  0.58432  0.94879  1.0000
  C   C10       1.0  0.99998  0.67621  0.49181999999999987  1.0000
  C   C11       1.0  0.06889000000000002  0.3651500000000001  0.6544399999999998  1.0000
  C   C12       1.0  0.07884999999999999  0.5358300000000003  0.6444799999999998  1.0000
  C   C13       1.0  0.62114  0.47176000000000007  0.9903899999999998  1.0000
  C   C14       1.0  0.42176  0.6739800000000001  0.8997399999999998  1.0000
  C   C15       1.0  0.35731000000000007  0.8474900000000001  0.8101499999999998  1.0000
  C   C16       1.0  0.11423000000000001  0.47045999999999993  0.71835  1.0000
  C   C17       1.0  0.38637  0.7272200000000001  0.9435299999999998  1.0000
  C   C18       1.0  0.10526999999999999  0.38295  0.72412  1.0000
  C   C19       1.0  0.74514  0.44750000000000006  0.9809399999999998  1.0000
  C   C20       1.0  0.66553  0.6109300000000001  0.8771899999999998  1.0000
  C   C21       1.0  0.3138  0.86445  0.9503899999999997  1.0000
  C   C22       1.0  0.7820999999999999  0.5840300000000002  0.8661399999999998  1.0000
  C   C23       1.0  0.8248099999999998  0.5008900000000001  0.9213599999999997  1.0000
  C   C24       1.0  0.81155  0.70439  0.7371899999999998  1.0000
  C   C25       1.0  0.16746  0.5664700000000001  0.7871799999999998  1.0000
  C   C26       1.0  0.98398  0.39633000000000007  0.96287  1.0000
  C   C27       1.0  0.3525  0.8128900000000001  0.8994399999999998  1.0000
  C   C28       1.0  0.1172  0.23530000000000006  0.8131099999999998  1.0000
  C   C29       1.0  0.88884  0.71841  0.49397999999999986  1.0000
  C   C30       1.0  0.8873600000000001  0.8034999999999999  0.48975999999999986  1.0000
  C   C31       1.0  0.9984  0.84724  0.48468  1.0000
  C   C32       1.0  0.10999  0.8050700000000001  0.4839699999999999  1.0000
  C   C33       1.0  0.76732  0.8468799999999999  0.4923499999999999  1.0000
  C   C34       1.0  0.22973  0.8485900000000001  0.4830899999999999  1.0000
  C   C35       1.0  0.88933  0.2793000000000001  0.5133199999999998  1.0000
  C   C36       1.0  0.9610400000000001  0.48062  0.42853999999999987  1.0000
  C   C37       1.0  0.99888  0.41379000000000005  0.50417  1.0000
  C   C38       1.0  0.96328  0.56808  0.42418  1.0000
  C   C39       1.0  0.59084  0.16556999999999994  0.32862  1.0000
  C   C40       1.0  0.60484  0.20462  0.23398999999999995  1.0000
  C   C41       1.0  0.41933999999999994  0.44328  0.062219999999999984  1.0000
  C   C42       1.0  0.57556  0.29113  0.18966999999999998  1.0000
  C   C43       1.0  0.53972  0.41576  0.05115999999999998  1.0000
  C   C44       1.0  0.99968  0.3236399999999999  0.50823  1.0000
  C   C45       1.0  0.9310399999999999  0.6348700000000002  0.3455099999999999  1.0000
  C   C46       1.0  0.9211099999999999  0.46417  0.3554899999999999  1.0000
  C   C47       1.0  0.37895  0.52832  0.00977  1.0000
  C   C48       1.0  0.57823  0.32617  0.10009  1.0000
  C   C49       1.0  0.64275  0.15266  0.18965999999999994  1.0000
  C   C50       1.0  0.88577  0.5295100000000001  0.2815999999999999  1.0000
  C   C51       1.0  0.61365  0.27286999999999995  0.05634  1.0000
  C   C52       1.0  0.89473  0.61702  0.27583  1.0000
  C   C53       1.0  0.25492  0.55237  0.019269999999999992  1.0000
  C   C54       1.0  0.33452  0.3889799999999999  0.12301999999999998  1.0000
  C   C55       1.0  0.68621  0.13566  0.04947999999999999  1.0000
  C   C56       1.0  0.21785  0.41579  0.13401  1.0000
  C   C57       1.0  0.17519  0.49892999999999993  0.07877  1.0000
  C   C58       1.0  0.18830999999999998  0.2954899999999999  0.2629399999999999  1.0000
  C   C59       1.0  0.8325300000000001  0.4334899999999998  0.21277  1.0000
  C   C60       1.0  0.016120000000000002  0.60358  0.037159999999999985  1.0000
  C   C61       1.0  0.64741  0.18717000000000003  0.10040999999999997  1.0000
  C   C62       1.0  0.8828000000000001  0.76463  0.18692  1.0000
  C   C63       1.0  0.11106000000000008  0.28158  0.5059899999999998  1.0000
  C   C64       1.0  0.11279  0.19642  0.51027  1.0000
  C   C65       1.0  0.0015999999999999994  0.15278000000000003  0.51548  1.0000
  C   C66       1.0  0.88979  0.19460000000000002  0.51642  1.0000
  C   C67       1.0  0.23285999999999998  0.15291999999999997  0.50736  1.0000
  C   C68       1.0  0.77035  0.15038999999999997  0.51763  1.0000
  O   O1        1.0  0.36432  0.91  0.63513  1.0000
  O   O2        1.0  0.8629999999999999  0.63132  0.8044399999999998  1.0000
  O   O3        1.0  0.15804  0.48019  0.78965  1.0000
  O   O4        1.0  0.94405  0.4813299999999999  0.9100299999999998  1.0000
  O   O5        1.0  0.32764  0.8034400000000002  0.48753  1.0000
  O   O6        1.0  0.13364000000000004  0.32320999999999994  0.8024999999999998  1.0000
  O   O7        1.0  0.29048  0.9487200000000002  0.9009099999999998  1.0000
  O   O8        1.0  0.30244  0.83729  0.028059999999999995  1.0000
  O   O9        1.0  0.46818  0.79149  0.63437  1.0000
  O   O10       1.0  0.49699  0.9475  0.45750999999999986  1.0000
  O   O11       1.0  0.22438000000000002  0.92572  0.47931  1.0000
  O   O12       1.0  0.7718299999999999  0.92678  0.4779099999999999  1.0000
  O   O13       1.0  0.67087  0.79913  0.5101  1.0000
  O   O14       1.0  0.63511  0.09036000000000004  0.3649399999999999  1.0000
  O   O15       1.0  0.13683  0.36853  0.19566999999999996  1.0000
  O   O16       1.0  0.84197  0.5197699999999996  0.21031  1.0000
  O   O17       1.0  0.05594  0.51854  0.08999  1.0000
  O   O18       1.0  0.67236  0.1957200000000001  0.5117899999999997  1.0000
  O   O19       1.0  0.86636  0.67674  0.19744999999999993  1.0000
  O   O20       1.0  0.70944  0.05133999999999998  0.09889  1.0000
  O   O21       1.0  0.6978  0.16300000000000006  0.9718099999999997  1.0000
  O   O22       1.0  0.53244  0.20974000000000004  0.36466  1.0000
  O   O23       1.0  0.50344  0.052370000000000076  0.5406999999999997  1.0000
  O   O24       1.0  0.7756  0.07256999999999997  0.52333  1.0000
  O   O25       1.0  0.22876999999999997  0.07302  0.52191  1.0000
  O   O26       1.0  0.32926  0.20075000000000004  0.48931999999999987  1.0000
