data_image0
_chemical_formula_structural       In6H24C72O48
_chemical_formula_sum              "In6 H24 C72 O48"
_cell_length_a       17.93889
_cell_length_b       17.9388
_cell_length_c       17.93869
_cell_angle_alpha    109.47952
_cell_angle_beta     109.48484
_cell_angle_gamma    109.48471

_symmetry_space_group_name_H-M    'P 1'
_symmetry_Int_Tables_number       1

loop_
  _symmetry_equiv_pos_as_xyz
  'x,y,z'

loop_
  _atom_site_type_symbol
  _atom_site_label
  _atom_site_symmetry_multiplicity
  _atom_site_fract_x
  _atom_site_fract_y
  _atom_site_fract_z
  _atom_site_occupancy
  In  In1       1.0  0.12494999999999983  0.2499599999999998  0.8749799999999998  1.0000
  In  In2       1.0  0.3749899999999998  0.7499599999999998  0.6249599999999997  1.0000
  In  In3       1.0  0.24997  0.12495  0.37498  1.0000
  In  In4       1.0  0.74997  0.37498  0.12494999999999998  1.0000
  In  In5       1.0  0.87499  0.62495  0.74997  1.0000
  In  In6       1.0  0.6249500000000001  0.8749799999999999  0.24996999999999994  1.0000
  H   H1        1.0  0.9794899999999995  0.43430999999999986  0.8148199999999998  1.0000
  H   H2        1.0  0.5204799999999999  0.8352699999999997  0.9547699999999998  1.0000
  H   H3        1.0  0.88049  0.06568000000000006  0.54517  1.0000
  H   H4        1.0  0.6195699999999998  0.66475  0.6852399999999998  1.0000
  H   H5        1.0  0.16476000000000002  0.18523000000000006  0.61957  1.0000
  H   H6        1.0  0.56568  0.04517  0.88049  1.0000
  H   H7        1.0  0.33526999999999985  0.45475999999999983  0.5204699999999998  1.0000
  H   H8        1.0  0.9343100000000001  0.31482  0.9795  1.0000
  H   H9        1.0  0.54517  0.38049  0.56568  1.0000
  H   H10       1.0  0.68523  0.11956000000000001  0.16474999999999995  1.0000
  H   H11       1.0  0.8148199999999998  0.47948999999999986  0.9343099999999998  1.0000
  H   H12       1.0  0.95477  0.020469999999999943  0.3352699999999999  1.0000
  H   H13       1.0  0.4794899999999999  0.8148199999999999  0.43430999999999986  1.0000
  H   H14       1.0  0.02047999999999993  0.9547699999999999  0.8352699999999997  1.0000
  H   H15       1.0  0.38049  0.54517  0.06568  1.0000
  H   H16       1.0  0.11956999999999994  0.68523  0.6647599999999998  1.0000
  H   H17       1.0  0.6647600000000001  0.61956  0.18524  1.0000
  H   H18       1.0  0.06568000000000004  0.8804800000000002  0.04517  1.0000
  H   H19       1.0  0.83527  0.5204699999999999  0.4547699999999999  1.0000
  H   H20       1.0  0.43431  0.97949  0.3148199999999999  1.0000
  H   H21       1.0  0.04516999999999999  0.56568  0.38049  1.0000
  H   H22       1.0  0.18523  0.16475  0.11955999999999999  1.0000
  H   H23       1.0  0.3148199999999998  0.9342999999999999  0.4794899999999999  1.0000
  H   H24       1.0  0.45477  0.33527  0.02047  1.0000
  C   C1        1.0  0.020390000000000023  0.32977  0.8817  1.0000
  C   C2        1.0  0.96258  0.37018  0.89546  1.0000
  C   C3        1.0  0.9489500000000001  0.4235699999999999  0.8561999999999997  1.0000
  C   C4        1.0  0.47959  0.86126  0.80934  1.0000
  C   C5        1.0  0.5374100000000002  0.9328500000000001  0.90759  1.0000
  C   C6        1.0  0.5510399999999999  0.9072099999999998  0.97461  1.0000
  C   C7        1.0  0.051959999999999916  0.17025  0.6906599999999998  1.0000
  C   C8        1.0  0.025309999999999944  0.12983999999999996  0.5924299999999999  1.0000
  C   C9        1.0  0.9326100000000002  0.07642000000000002  0.5253699999999999  1.0000
  C   C10       1.0  0.44807999999999987  0.6387099999999999  0.6183199999999999  1.0000
  C   C11       1.0  0.47473000000000004  0.56714  0.60456  1.0000
  C   C12       1.0  0.56742  0.5928  0.64384  1.0000
  C   C13       1.0  0.13871999999999995  0.11831999999999995  0.4480899999999999  1.0000
  C   C14       1.0  0.06713999999999994  0.10455999999999994  0.4747299999999999  1.0000
  C   C15       1.0  0.09279999999999995  0.14383999999999994  0.5674199999999999  1.0000
  C   C16       1.0  0.67026  0.19066  0.051949999999999996  1.0000
  C   C17       1.0  0.62984  0.09243  0.025309999999999992  1.0000
  C   C18       1.0  0.57642  0.025369999999999997  0.93261  1.0000
  C   C19       1.0  0.36125999999999997  0.30933  0.47959  1.0000
  C   C20       1.0  0.43285  0.40758000000000005  0.53741  1.0000
  C   C21       1.0  0.40721  0.4746  0.5510399999999998  1.0000
  C   C22       1.0  0.82977  0.38169  0.02039  1.0000
  C   C23       1.0  0.8701800000000001  0.39545999999999987  0.9625799999999998  1.0000
  C   C24       1.0  0.92358  0.35619  0.94896  1.0000
  C   C25       1.0  0.69066  0.55196  0.67026  1.0000
  C   C26       1.0  0.59243  0.52531  0.62984  1.0000
  C   C27       1.0  0.5253699999999999  0.43260999999999994  0.5764199999999999  1.0000
  C   C28       1.0  0.61832  0.9480800000000001  0.13870999999999994  1.0000
  C   C29       1.0  0.60456  0.97473  0.06714  1.0000
  C   C30       1.0  0.6438400000000001  0.06742  0.0928  1.0000
  C   C31       1.0  0.8817000000000002  0.52039  0.82977  1.0000
  C   C32       1.0  0.8954599999999999  0.4625799999999999  0.8701799999999997  1.0000
  C   C33       1.0  0.8562  0.4489500000000001  0.92358  1.0000
  C   C34       1.0  0.80934  0.97958  0.36126  1.0000
  C   C35       1.0  0.90758  0.03741000000000002  0.43285  1.0000
  C   C36       1.0  0.9746000000000001  0.051030000000000006  0.40722  1.0000
  C   C37       1.0  0.52039  0.88169  0.3297699999999999  1.0000
  C   C38       1.0  0.46258000000000005  0.8954600000000003  0.3701799999999999  1.0000
  C   C39       1.0  0.44894999999999985  0.8561899999999999  0.4235799999999999  1.0000
  C   C40       1.0  0.9795900000000001  0.8093299999999999  0.8612699999999998  1.0000
  C   C41       1.0  0.03740999999999997  0.90758  0.9328599999999998  1.0000
  C   C42       1.0  0.051039999999999926  0.9745999999999999  0.9072199999999998  1.0000
  C   C43       1.0  0.55196  0.69065  0.17026  1.0000
  C   C44       1.0  0.52531  0.5924200000000001  0.12984  1.0000
  C   C45       1.0  0.43261  0.52537  0.07642  1.0000
  C   C46       1.0  0.9480799999999996  0.61831  0.63871  1.0000
  C   C47       1.0  0.9747300000000001  0.60455  0.56714  1.0000
  C   C48       1.0  0.06742000000000002  0.64383  0.5928  1.0000
  C   C49       1.0  0.63872  0.4480799999999999  0.11831999999999997  1.0000
  C   C50       1.0  0.56714  0.47473  0.10455999999999997  1.0000
  C   C51       1.0  0.5928000000000001  0.56742  0.14384  1.0000
  C   C52       1.0  0.17025  0.05195  0.19066  1.0000
  C   C53       1.0  0.12984  0.025299999999999986  0.09242999999999997  1.0000
  C   C54       1.0  0.07642000000000009  0.9326  0.025369999999999993  1.0000
  C   C55       1.0  0.8612600000000002  0.47959  0.30934  1.0000
  C   C56       1.0  0.9328499999999998  0.53741  0.4075799999999999  1.0000
  C   C57       1.0  0.9072099999999998  0.55103  0.4745999999999999  1.0000
  C   C58       1.0  0.32977  0.020389999999999946  0.38168999999999986  1.0000
  C   C59       1.0  0.37018000000000006  0.96258  0.39545999999999987  1.0000
  C   C60       1.0  0.42357  0.94895  0.35619  1.0000
  C   C61       1.0  0.19066000000000005  0.67025  0.5519599999999999  1.0000
  C   C62       1.0  0.09242999999999992  0.6298399999999998  0.5253099999999998  1.0000
  C   C63       1.0  0.02536999999999999  0.57642  0.43261  1.0000
  C   C64       1.0  0.11831999999999984  0.13870999999999983  0.9480799999999998  1.0000
  C   C65       1.0  0.10456000000000003  0.06713999999999999  0.97473  1.0000
  C   C66       1.0  0.14384000000000002  0.0928  0.06742  1.0000
  C   C67       1.0  0.38169000000000014  0.82976  0.52039  1.0000
  C   C68       1.0  0.39546000000000003  0.87018  0.46258  1.0000
  C   C69       1.0  0.35619999999999996  0.92357  0.44894999999999996  1.0000
  C   C70       1.0  0.30933999999999995  0.36125999999999997  0.9795899999999998  1.0000
  C   C71       1.0  0.40757999999999994  0.43285  0.03741  1.0000
  C   C72       1.0  0.4746  0.40721000000000007  0.051029999999999985  1.0000
  O   O1        1.0  0.028079999999999987  0.27659999999999996  0.91414  1.0000
  O   O2        1.0  0.06277000000000012  0.3481500000000001  0.84054  1.0000
  O   O3        1.0  0.47193  0.88605  0.74851  1.0000
  O   O4        1.0  0.43718  0.77769  0.78531  1.0000
  O   O5        1.0  0.1376  0.22345  0.75155  1.0000
  O   O6        1.0  0.99239  0.15185  0.71463  1.0000
  O   O7        1.0  0.3624399999999999  0.6139099999999998  0.5858399999999998  1.0000
  O   O8        1.0  0.50765  0.72229  0.6595  1.0000
  O   O9        1.0  0.11390999999999997  0.08583999999999994  0.3624399999999999  1.0000
  O   O10       1.0  0.2223  0.15949  0.50765  1.0000
  O   O11       1.0  0.72345  0.25155  0.13759999999999994  1.0000
  O   O12       1.0  0.65185  0.21463000000000002  0.99239  1.0000
  O   O13       1.0  0.3860499999999999  0.2485099999999999  0.4719299999999999  1.0000
  O   O14       1.0  0.2776899999999999  0.2853  0.43718  1.0000
  O   O15       1.0  0.7766100000000002  0.4141300000000001  0.02807  1.0000
  O   O16       1.0  0.84815  0.34053  0.06278  1.0000
  O   O17       1.0  0.7515499999999999  0.6375999999999998  0.7234499999999998  1.0000
  O   O18       1.0  0.7146400000000002  0.49239000000000005  0.65185  1.0000
  O   O19       1.0  0.58584  0.86244  0.11391  1.0000
  O   O20       1.0  0.65949  0.007649999999999967  0.22229999999999994  1.0000
  O   O21       1.0  0.9141300000000001  0.5280799999999999  0.7765999999999997  1.0000
  O   O22       1.0  0.8405399999999998  0.5627699999999999  0.8481499999999997  1.0000
  O   O23       1.0  0.74851  0.9719200000000001  0.38605  1.0000
  O   O24       1.0  0.7853  0.9371699999999998  0.2776899999999999  1.0000
  O   O25       1.0  0.52808  0.91413  0.2766  1.0000
  O   O26       1.0  0.5627700000000001  0.84053  0.34815  1.0000
  O   O27       1.0  0.9719300000000001  0.74851  0.88605  1.0000
  O   O28       1.0  0.9371800000000001  0.7853  0.7776899999999998  1.0000
  O   O29       1.0  0.6375999999999998  0.75155  0.22345  1.0000
  O   O30       1.0  0.49239  0.7146299999999999  0.15184999999999996  1.0000
  O   O31       1.0  0.8624400000000002  0.58584  0.61391  1.0000
  O   O32       1.0  0.0076499999999999945  0.65949  0.7223  1.0000
  O   O33       1.0  0.61391  0.36244000000000004  0.08584  1.0000
  O   O34       1.0  0.7222999999999998  0.50765  0.15948999999999994  1.0000
  O   O35       1.0  0.22345  0.1376  0.25155  1.0000
  O   O36       1.0  0.15185000000000004  0.9923799999999999  0.21464  1.0000
  O   O37       1.0  0.8860499999999999  0.47191999999999995  0.24850999999999995  1.0000
  O   O38       1.0  0.77769  0.43716999999999995  0.2852999999999999  1.0000
  O   O39       1.0  0.27660999999999997  0.028069999999999935  0.4141299999999999  1.0000
  O   O40       1.0  0.34815  0.06277999999999997  0.34053  1.0000
  O   O41       1.0  0.25154999999999994  0.72345  0.6376  1.0000
  O   O42       1.0  0.21462999999999996  0.65185  0.4923899999999999  1.0000
  O   O43       1.0  0.08583999999999999  0.11390999999999997  0.86244  1.0000
  O   O44       1.0  0.15949  0.22229  0.007649999999999998  1.0000
  O   O45       1.0  0.41412999999999994  0.7765999999999998  0.52808  1.0000
  O   O46       1.0  0.34054  0.84814  0.56277  1.0000
  O   O47       1.0  0.24850999999999993  0.3860399999999999  0.97193  1.0000
  O   O48       1.0  0.2853  0.27769  0.93718  1.0000
