data_image0
_chemical_formula_structural       Cu6H36C78O24
_chemical_formula_sum              "Cu6 H36 C78 O24"
_cell_length_a       17.21464
_cell_length_b       17.21486
_cell_length_c       17.21488
_cell_angle_alpha    65.29064
_cell_angle_beta     65.28897
_cell_angle_gamma    65.28894

_space_group_name_H-M_alt    "P 1"
_space_group_IT_number       1

loop_
  _space_group_symop_operation_xyz
  'x, y, z'

loop_
  _atom_site_type_symbol
  _atom_site_label
  _atom_site_symmetry_multiplicity
  _atom_site_fract_x
  _atom_site_fract_y
  _atom_site_fract_z
  _atom_site_occupancy
  Cu  Cu1       1.0  0.06955999999999991  0.5019400000000003  0.50194  1.0000
  Cu  Cu2       1.0  0.50194  0.06957000000000006  0.50192  1.0000
  Cu  Cu3       1.0  0.50194  0.50192  0.06957000000000002  1.0000
  Cu  Cu4       1.0  0.49804999999999994  0.49808000000000024  0.93043  1.0000
  Cu  Cu5       1.0  0.49805000000000005  0.93043  0.49808  1.0000
  Cu  Cu6       1.0  0.93043  0.4980600000000002  0.49806  1.0000
  H   H1        1.0  0.01829000000000005  0.78594  0.45133  1.0000
  H   H2        1.0  0.45132  0.018310000000000017  0.78592  1.0000
  H   H3        1.0  0.78593  0.4513300000000001  0.0183  1.0000
  H   H4        1.0  0.54867  0.21408000000000008  0.98169  1.0000
  H   H5        1.0  0.21405999999999983  0.9817100000000003  0.54867  1.0000
  H   H6        1.0  0.9816999999999998  0.5486700000000002  0.21406  1.0000
  H   H7        1.0  0.9817  0.21407000000000012  0.54867  1.0000
  H   H8        1.0  0.54867  0.9817000000000004  0.21408  1.0000
  H   H9        1.0  0.2140599999999999  0.5486700000000001  0.9817  1.0000
  H   H10       1.0  0.45131999999999983  0.7859200000000002  0.0183  1.0000
  H   H11       1.0  0.7859300000000004  0.018299999999999993  0.45133  1.0000
  H   H12       1.0  0.018289999999999973  0.4513300000000002  0.78594  1.0000
  H   H13       1.0  0.00011999999999998359  0.00011999999999999004  0.29069000000000006  1.0000
  H   H14       1.0  0.09314000000000001  0.09314  0.26296  1.0000
  H   H15       1.0  0.76664  0.7666500000000003  0.47791  1.0000
  H   H16       1.0  0.8898299999999999  0.8898400000000003  0.6096  1.0000
  H   H17       1.0  0.2906900000000001  0.00012000000000000006  0.00012  1.0000
  H   H18       1.0  0.26297999999999994  0.09312000000000002  0.09312  1.0000
  H   H19       1.0  0.4779  0.76666  0.7666500000000003  1.0000
  H   H20       1.0  0.60958  0.8898500000000004  0.88985  1.0000
  H   H21       1.0  0.00011999999999997333  0.2906900000000001  0.00012  1.0000
  H   H22       1.0  0.09313999999999997  0.26296  0.09314  1.0000
  H   H23       1.0  0.76664  0.47791000000000006  0.7666400000000002  1.0000
  H   H24       1.0  0.8898299999999999  0.6096100000000002  0.88983  1.0000
  H   H25       1.0  0.7093000000000002  0.99988  0.99988  1.0000
  H   H26       1.0  0.7370199999999999  0.9068800000000002  0.9068700000000002  1.0000
  H   H27       1.0  0.5220900000000002  0.23334  0.23334  1.0000
  H   H28       1.0  0.3904199999999999  0.11015000000000001  0.11015  1.0000
  H   H29       1.0  0.99987  0.99988  0.70931  1.0000
  H   H30       1.0  0.90685  0.9068600000000003  0.73704  1.0000
  H   H31       1.0  0.23335000000000006  0.23336000000000004  0.52209  1.0000
  H   H32       1.0  0.11016000000000005  0.11017000000000002  0.39039  1.0000
  H   H33       1.0  0.99987  0.7093100000000002  0.99988  1.0000
  H   H34       1.0  0.9068500000000002  0.73704  0.9068600000000002  1.0000
  H   H35       1.0  0.23334999999999992  0.5220900000000003  0.23335  1.0000
  H   H36       1.0  0.11015999999999998  0.39040000000000014  0.11016  1.0000
  C   C1        1.0  0.9480099999999999  0.8178400000000001  0.45440000000000014  1.0000
  C   C2        1.0  0.89671  0.7664900000000002  0.46543  1.0000
  C   C3        1.0  0.9367899999999996  0.6686300000000002  0.47565  1.0000
  C   C4        1.0  0.45438  0.9480300000000002  0.81784  1.0000
  C   C5        1.0  0.4654199999999999  0.8967300000000001  0.7664900000000001  1.0000
  C   C6        1.0  0.47564999999999996  0.93681  0.66863  1.0000
  C   C7        1.0  0.81783  0.4544  0.94801  1.0000
  C   C8        1.0  0.7664900000000001  0.46543  0.89671  1.0000
  C   C9        1.0  0.66862  0.47566000000000025  0.93679  1.0000
  C   C10       1.0  0.54561  0.18216  0.05198  1.0000
  C   C11       1.0  0.53457  0.23351  0.10328  1.0000
  C   C12       1.0  0.52434  0.33137  0.06319  1.0000
  C   C13       1.0  0.18216  0.051990000000000036  0.5456  1.0000
  C   C14       1.0  0.23351000000000008  0.10329  0.53457  1.0000
  C   C15       1.0  0.33137000000000016  0.06321  0.52434  1.0000
  C   C16       1.0  0.05198999999999991  0.5456000000000002  0.18216  1.0000
  C   C17       1.0  0.10328000000000001  0.53457  0.23351000000000005  1.0000
  C   C18       1.0  0.06319999999999984  0.5243500000000002  0.3313700000000001  1.0000
  C   C19       1.0  0.05198000000000003  0.18216  0.5456  1.0000
  C   C20       1.0  0.10328  0.23351  0.53457  1.0000
  C   C21       1.0  0.06319999999999999  0.33137000000000005  0.52435  1.0000
  C   C22       1.0  0.5456099999999999  0.051980000000000005  0.18216  1.0000
  C   C23       1.0  0.53457  0.10328  0.23350000000000007  1.0000
  C   C24       1.0  0.5243399999999999  0.06318999999999995  0.3313700000000001  1.0000
  C   C25       1.0  0.18215999999999988  0.5456000000000002  0.05199  1.0000
  C   C26       1.0  0.23351000000000002  0.53457  0.10329  1.0000
  C   C27       1.0  0.33137000000000005  0.52434  0.06321  1.0000
  C   C28       1.0  0.45438  0.81785  0.94802  1.0000
  C   C29       1.0  0.4654199999999998  0.7665000000000001  0.89672  1.0000
  C   C30       1.0  0.47564999999999985  0.6686300000000003  0.93681  1.0000
  C   C31       1.0  0.8178299999999995  0.9480200000000002  0.45440000000000014  1.0000
  C   C32       1.0  0.7664900000000001  0.8967199999999999  0.46543  1.0000
  C   C33       1.0  0.66862  0.9368000000000001  0.47566  1.0000
  C   C34       1.0  0.9480100000000001  0.4544  0.81784  1.0000
  C   C35       1.0  0.89671  0.46543000000000007  0.7664900000000001  1.0000
  C   C36       1.0  0.93679  0.4756500000000001  0.66863  1.0000
  C   C37       1.0  0.9731200000000001  0.9731300000000005  0.50806  1.0000
  C   C38       1.0  0.96437  0.9643800000000003  0.43323  1.0000
  C   C39       1.0  0.007359999999999993  0.00736  0.34695  1.0000
  C   C40       1.0  0.060049999999999965  0.06004999999999997  0.3313800000000001  1.0000
  C   C41       1.0  0.8062699999999999  0.8062800000000002  0.46966  1.0000
  C   C42       1.0  0.9303199999999999  0.9303300000000004  0.59776  1.0000
  C   C43       1.0  0.90922  0.90922  0.44746  1.0000
  C   C44       1.0  0.50805  0.9731300000000004  0.97313  1.0000
  C   C45       1.0  0.43321999999999994  0.9643700000000003  0.96437  1.0000
  C   C46       1.0  0.34695  0.00735  0.0073500000000000015  1.0000
  C   C47       1.0  0.33139000000000013  0.06004000000000002  0.06004000000000001  1.0000
  C   C48       1.0  0.46964999999999985  0.8062900000000004  0.80629  1.0000
  C   C49       1.0  0.5977400000000002  0.9303400000000004  0.93034  1.0000
  C   C50       1.0  0.44744  0.9092300000000001  0.9092200000000003  1.0000
  C   C51       1.0  0.9731200000000001  0.5080700000000002  0.97312  1.0000
  C   C52       1.0  0.96437  0.43323000000000006  0.96437  1.0000
  C   C53       1.0  0.00735999999999999  0.34695  0.00736  1.0000
  C   C54       1.0  0.06004999999999996  0.3313800000000001  0.06005000000000001  1.0000
  C   C55       1.0  0.80627  0.46966  0.80628  1.0000
  C   C56       1.0  0.9303199999999999  0.5977600000000004  0.93033  1.0000
  C   C57       1.0  0.90922  0.4474600000000001  0.9092200000000003  1.0000
  C   C58       1.0  0.49194000000000004  0.02687  0.02687  1.0000
  C   C59       1.0  0.56677  0.035630000000000016  0.03563000000000001  1.0000
  C   C60       1.0  0.6530399999999998  0.9926500000000004  0.9926400000000002  1.0000
  C   C61       1.0  0.6685999999999998  0.9399700000000004  0.93996  1.0000
  C   C62       1.0  0.5303399999999999  0.19371000000000005  0.19371  1.0000
  C   C63       1.0  0.40225  0.06966000000000003  0.06966  1.0000
  C   C64       1.0  0.55255  0.09078  0.09078000000000003  1.0000
  C   C65       1.0  0.02687  0.026879999999999987  0.49193  1.0000
  C   C66       1.0  0.03561999999999999  0.035630000000000016  0.56677  1.0000
  C   C67       1.0  0.9926299999999998  0.9926400000000003  0.65305  1.0000
  C   C68       1.0  0.9399399999999998  0.9399500000000003  0.66862  1.0000
  C   C69       1.0  0.19371999999999998  0.19372  0.53034  1.0000
  C   C70       1.0  0.06967000000000001  0.06967000000000001  0.40224  1.0000
  C   C71       1.0  0.09078  0.09078  0.55254  1.0000
  C   C72       1.0  0.02686999999999995  0.4919400000000001  0.02687  1.0000
  C   C73       1.0  0.035620000000000006  0.56677  0.03562  1.0000
  C   C74       1.0  0.99263  0.6530600000000001  0.9926400000000002  1.0000
  C   C75       1.0  0.93994  0.66862  0.93995  1.0000
  C   C76       1.0  0.19372  0.53034  0.19372  1.0000
  C   C77       1.0  0.06966999999999993  0.4022400000000001  0.06967  1.0000
  C   C78       1.0  0.09077999999999993  0.5525400000000003  0.09078000000000003  1.0000
  O   O1        1.0  0.016549999999999895  0.6325800000000001  0.48205  1.0000
  O   O2        1.0  0.88728  0.6283500000000004  0.47843  1.0000
  O   O3        1.0  0.48207000000000005  0.016569999999999984  0.63256  1.0000
  O   O4        1.0  0.4784399999999999  0.8872900000000004  0.62835  1.0000
  O   O5        1.0  0.63257  0.4820700000000001  0.01655  1.0000
  O   O6        1.0  0.6283300000000002  0.47845000000000004  0.88728  1.0000
  O   O7        1.0  0.5179299999999999  0.36744000000000004  0.9834400000000002  1.0000
  O   O8        1.0  0.5215499999999998  0.37165000000000015  0.11271  1.0000
  O   O9        1.0  0.36741999999999986  0.9834500000000005  0.51794  1.0000
  O   O10       1.0  0.37166000000000016  0.11272  0.52155  1.0000
  O   O11       1.0  0.9834400000000001  0.51795  0.3674300000000001  1.0000
  O   O12       1.0  0.11270999999999991  0.5215700000000002  0.37166  1.0000
  O   O13       1.0  0.9834400000000001  0.36743000000000003  0.51794  1.0000
  O   O14       1.0  0.11271000000000005  0.37166000000000005  0.52157  1.0000
  O   O15       1.0  0.51793  0.9834400000000003  0.36744000000000004  1.0000
  O   O16       1.0  0.52155  0.11271  0.37165  1.0000
  O   O17       1.0  0.36741999999999986  0.5179400000000002  0.9834500000000003  1.0000
  O   O18       1.0  0.3716599999999999  0.5215500000000002  0.11272  1.0000
  O   O19       1.0  0.48207000000000005  0.63256  0.01656  1.0000
  O   O20       1.0  0.47844000000000003  0.62835  0.88729  1.0000
  O   O21       1.0  0.63257  0.01655000000000005  0.48206  1.0000
  O   O22       1.0  0.6283300000000002  0.8872800000000001  0.47845  1.0000
  O   O23       1.0  0.01654999999999997  0.48206  0.63257  1.0000
  O   O24       1.0  0.8872800000000002  0.47844000000000014  0.62834  1.0000
