data_image0
_chemical_formula_structural       Ba4Cu4H16C48S8O32
_chemical_formula_sum              "Ba4 Cu4 H16 C48 S8 O32"
_cell_length_a       12.59042
_cell_length_b       13.89135
_cell_length_c       15.1401
_cell_angle_alpha    90.0
_cell_angle_beta     90.07132
_cell_angle_gamma    90.0

_space_group_name_H-M_alt    "P 1"
_space_group_IT_number       1

loop_
  _space_group_symop_operation_xyz
  'x, y, z'

loop_
  _atom_site_type_symbol
  _atom_site_label
  _atom_site_symmetry_multiplicity
  _atom_site_fract_x
  _atom_site_fract_y
  _atom_site_fract_z
  _atom_site_occupancy
  Ba  Ba1       1.0  0.28652  0.20969000000000002  0.4263  1.0000
  Ba  Ba2       1.0  0.21429  0.79093  0.92516  1.0000
  Ba  Ba3       1.0  0.71348  0.7096900000000003  0.07369  1.0000
  Ba  Ba4       1.0  0.78572  0.29093000000000013  0.57483  1.0000
  Cu  Cu1       1.0  0.49974  0.36119  0.48672  1.0000
  Cu  Cu2       1.0  0.99967  0.63887  0.9871000000000002  1.0000
  Cu  Cu3       1.0  0.50026  0.8611900000000001  0.01328  1.0000
  Cu  Cu4       1.0  0.00033999999999999997  0.13887  0.51289  1.0000
  H   H1        1.0  0.7648899999999997  0.55986  0.7082  1.0000
  H   H2        1.0  0.72183  0.68099  0.8385700000000003  1.0000
  H   H3        1.0  0.79138  0.11243000000000003  0.36506  1.0000
  H   H4        1.0  0.7891799999999999  0.9762300000000002  0.24197  1.0000
  H   H5        1.0  0.7345  0.4392  0.20948000000000006  1.0000
  H   H6        1.0  0.77962  0.31792000000000004  0.3394600000000001  1.0000
  H   H7        1.0  0.70995  0.88724  0.8653700000000002  1.0000
  H   H8        1.0  0.7106099999999997  0.02312  0.74217  1.0000
  H   H9        1.0  0.23512  0.05986  0.7918000000000002  1.0000
  H   H10       1.0  0.27817  0.18099000000000007  0.66142  1.0000
  H   H11       1.0  0.20862999999999998  0.61242  0.13494  1.0000
  H   H12       1.0  0.21083  0.47623  0.25803  1.0000
  H   H13       1.0  0.2655  0.9392  0.29052  1.0000
  H   H14       1.0  0.22039  0.81791  0.16054  1.0000
  H   H15       1.0  0.29006  0.3872400000000001  0.63463  1.0000
  H   H16       1.0  0.2894  0.52311  0.7578300000000002  1.0000
  C   C1        1.0  0.5915  0.48772  0.60485  1.0000
  C   C2        1.0  0.59584  0.55793  0.6782700000000003  1.0000
  C   C3        1.0  0.68604  0.5858800000000002  0.7247400000000003  1.0000
  C   C4        1.0  0.6630899999999997  0.6499500000000001  0.7943  1.0000
  C   C5        1.0  0.55535  0.67096  0.80027  1.0000
  C   C6        1.0  0.5014  0.7336000000000003  0.86492  1.0000
  C   C7        1.0  0.59881  0.21834  0.3925500000000001  1.0000
  C   C8        1.0  0.62499  0.13932  0.3325000000000001  1.0000
  C   C9        1.0  0.72278  0.09340000000000002  0.32497  1.0000
  C   C10       1.0  0.72184  0.02108  0.25978  1.0000
  C   C11       1.0  0.62404  0.01275  0.21794  1.0000
  C   C12       1.0  0.59692  0.9475  0.14448  1.0000
  C   C13       1.0  0.9064299999999997  0.51228  0.10518000000000002  1.0000
  C   C14       1.0  0.90314  0.44205  0.17868  1.0000
  C   C15       1.0  0.81363  0.4134900000000001  0.22554000000000005  1.0000
  C   C16       1.0  0.83762  0.3493600000000001  0.29485  1.0000
  C   C17       1.0  0.94548  0.3289  0.30022  1.0000
  C   C18       1.0  0.00019000000000000004  0.26668  0.36478  1.0000
  C   C19       1.0  0.9031599999999997  0.78183  0.8923000000000001  1.0000
  C   C20       1.0  0.8762699999999998  0.86074  0.83231  1.0000
  C   C21       1.0  0.77823  0.90636  0.82507  1.0000
  C   C22       1.0  0.77832  0.97859  0.75984  1.0000
  C   C23       1.0  0.87566  0.9872600000000002  0.7175700000000003  1.0000
  C   C24       1.0  0.9014199999999998  0.05254000000000001  0.6438700000000003  1.0000
  C   C25       1.0  0.40851  0.9877100000000002  0.8951500000000002  1.0000
  C   C26       1.0  0.40416999999999986  0.057930000000000016  0.82172  1.0000
  C   C27       1.0  0.31396999999999997  0.08589  0.77525  1.0000
  C   C28       1.0  0.33692  0.14996  0.7057  1.0000
  C   C29       1.0  0.44464999999999993  0.17096000000000006  0.69973  1.0000
  C   C30       1.0  0.49861  0.2336  0.6350800000000002  1.0000
  C   C31       1.0  0.4011899999999999  0.7183300000000002  0.10745  1.0000
  C   C32       1.0  0.37502  0.6393200000000002  0.1675  1.0000
  C   C33       1.0  0.27723  0.59339  0.17503  1.0000
  C   C34       1.0  0.27817  0.52107  0.24022  1.0000
  C   C35       1.0  0.37596  0.5127400000000001  0.28206  1.0000
  C   C36       1.0  0.40308999999999995  0.4475  0.3555200000000001  1.0000
  C   C37       1.0  0.09356999999999999  0.012280000000000001  0.3948200000000001  1.0000
  C   C38       1.0  0.09687  0.94204  0.3213100000000001  1.0000
  C   C39       1.0  0.18637  0.9134900000000002  0.27446  1.0000
  C   C40       1.0  0.16239  0.8493600000000002  0.20515  1.0000
  C   C41       1.0  0.05452  0.8289000000000001  0.19977  1.0000
  C   C42       1.0  0.9998099999999999  0.76668  0.13522000000000006  1.0000
  C   C43       1.0  0.09684999999999999  0.28183  0.6077  1.0000
  C   C44       1.0  0.12373999999999998  0.36075  0.6676900000000002  1.0000
  C   C45       1.0  0.22177999999999998  0.4063600000000001  0.6749200000000002  1.0000
  C   C46       1.0  0.22168999999999997  0.4785900000000001  0.74016  1.0000
  C   C47       1.0  0.12434999999999999  0.48726  0.7824200000000001  1.0000
  C   C48       1.0  0.09858999999999997  0.55254  0.85612  1.0000
  S   S1        1.0  0.48278  0.61208  0.7195400000000002  1.0000
  S   S2        1.0  0.5326399999999999  0.09403  0.25871  1.0000
  S   S3        1.0  0.01693  0.3882600000000001  0.21927  1.0000
  S   S4        1.0  0.96778  0.90628  0.75804  1.0000
  S   S5        1.0  0.51722  0.11208  0.78046  1.0000
  S   S6        1.0  0.46736  0.5940300000000002  0.24129  1.0000
  S   S7        1.0  0.98307  0.8882500000000002  0.28073000000000004  1.0000
  S   S8        1.0  0.03223  0.40628  0.74195  1.0000
  O   O1        1.0  0.49836999999999987  0.4653900000000001  0.57582  1.0000
  O   O2        1.0  0.67787  0.4528000000000001  0.5762  1.0000
  O   O3        1.0  0.40378  0.75153  0.85638  1.0000
  O   O4        1.0  0.56079  0.7663  0.92875  1.0000
  O   O5        1.0  0.5013  0.24730000000000005  0.39724  1.0000
  O   O6        1.0  0.6719599999999998  0.25739  0.4373200000000001  1.0000
  O   O7        1.0  0.50197  0.95295  0.11309000000000002  1.0000
  O   O8        1.0  0.66781  0.89069  0.11564000000000003  1.0000
  O   O9        1.0  0.9993599999999999  0.5348100000000001  0.07599000000000003  1.0000
  O   O10       1.0  0.81981  0.5469600000000001  0.07653000000000003  1.0000
  O   O11       1.0  0.09785  0.24917000000000006  0.35623  1.0000
  O   O12       1.0  0.9413099999999999  0.23383  0.4287  1.0000
  O   O13       1.0  0.0006699999999999999  0.75278  0.8968  1.0000
  O   O14       1.0  0.8305099999999999  0.7426300000000002  0.9374400000000003  1.0000
  O   O15       1.0  0.99599  0.04690000000000001  0.6118700000000002  1.0000
  O   O16       1.0  0.8300799999999999  0.10937000000000001  0.61575  1.0000
  O   O17       1.0  0.50164  0.9653900000000002  0.9241800000000002  1.0000
  O   O18       1.0  0.3221399999999999  0.9528  0.92379  1.0000
  O   O19       1.0  0.59623  0.25153  0.64361  1.0000
  O   O20       1.0  0.43922  0.2663  0.57125  1.0000
  O   O21       1.0  0.4986999999999999  0.7473000000000001  0.10276  1.0000
  O   O22       1.0  0.32804  0.75738  0.06268  1.0000
  O   O23       1.0  0.49803  0.45295  0.38691  1.0000
  O   O24       1.0  0.33219  0.39069  0.3843600000000001  1.0000
  O   O25       1.0  0.0006400000000000002  0.03481000000000001  0.4240100000000001  1.0000
  O   O26       1.0  0.18019  0.04697  0.42346  1.0000
  O   O27       1.0  0.9021499999999998  0.74917  0.14377  1.0000
  O   O28       1.0  0.05869  0.7338200000000002  0.0713  1.0000
  O   O29       1.0  0.99934  0.25279  0.60319  1.0000
  O   O30       1.0  0.16949  0.24264000000000005  0.56256  1.0000
  O   O31       1.0  0.0040100000000000005  0.5469  0.88813  1.0000
  O   O32       1.0  0.16993  0.60937  0.88424  1.0000
