data_image0
_chemical_formula_structural       Ag2H48C48N8
_chemical_formula_sum              "Ag2 H48 C48 N8"
_cell_length_a       6.18899
_cell_length_b       13.482480000000002
_cell_length_c       15.5032
_cell_angle_alpha    90.0
_cell_angle_beta     90.0
_cell_angle_gamma    90.00135

_symmetry_space_group_name_H-M    'P 1'
_symmetry_Int_Tables_number       1

loop_
  _symmetry_equiv_pos_as_xyz
  'x,y,z'

loop_
  _atom_site_type_symbol
  _atom_site_label
  _atom_site_symmetry_multiplicity
  _atom_site_fract_x
  _atom_site_fract_y
  _atom_site_fract_z
  _atom_site_occupancy
  Ag  Ag1       1.0  0.25  0.7500000000000001  0.7499700000000002  1.0000
  Ag  Ag2       1.0  0.75  0.25  0.25003  1.0000
  H   H1        1.0  0.46612999999999993  0.53282  0.7500000000000002  1.0000
  H   H2        1.0  0.72022  0.42938999999999994  0.6630800000000002  1.0000
  H   H3        1.0  0.6981399999999999  0.65592  0.46700000000000014  1.0000
  H   H4        1.0  0.45212  0.75192  0.5625100000000002  1.0000
  H   H5        1.0  0.8973299999999997  0.39897  0.52257  1.0000
  H   H6        1.0  0.82288  0.47297  0.4341500000000001  1.0000
  H   H7        1.0  0.03387  0.96718  0.7500000000000002  1.0000
  H   H8        1.0  0.77978  0.07061  0.6630800000000002  1.0000
  H   H9        1.0  0.80186  0.84407  0.46700000000000014  1.0000
  H   H10       1.0  0.04788  0.7480700000000001  0.5625100000000002  1.0000
  H   H11       1.0  0.60268  0.10102999999999998  0.52257  1.0000
  H   H12       1.0  0.6771199999999999  0.02703  0.4341500000000001  1.0000
  H   H13       1.0  0.03397  0.53281  0.7500000000000002  1.0000
  H   H14       1.0  0.77987  0.42938999999999994  0.8369100000000003  1.0000
  H   H15       1.0  0.80193  0.65593  0.03298  1.0000
  H   H16       1.0  0.04796  0.75192  0.9374800000000002  1.0000
  H   H17       1.0  0.60269  0.39897  0.97742  1.0000
  H   H18       1.0  0.67714  0.47297  0.06584000000000002  1.0000
  H   H19       1.0  0.46603  0.96719  0.75001  1.0000
  H   H20       1.0  0.72013  0.07061  0.83692  1.0000
  H   H21       1.0  0.69807  0.84406  0.03298  1.0000
  H   H22       1.0  0.45203999999999994  0.74808  0.93749  1.0000
  H   H23       1.0  0.89731  0.10102999999999998  0.97742  1.0000
  H   H24       1.0  0.8228699999999999  0.02703  0.06584000000000002  1.0000
  H   H25       1.0  0.53387  0.46718  0.25  1.0000
  H   H26       1.0  0.27978  0.57061  0.33692  1.0000
  H   H27       1.0  0.30187  0.34408  0.5330000000000003  1.0000
  H   H28       1.0  0.54788  0.24807999999999997  0.4374900000000001  1.0000
  H   H29       1.0  0.10268  0.6010299999999998  0.47743  1.0000
  H   H30       1.0  0.17712  0.52703  0.56585  1.0000
  H   H31       1.0  0.96613  0.03282  0.25  1.0000
  H   H32       1.0  0.22022999999999998  0.92939  0.33692  1.0000
  H   H33       1.0  0.19813999999999998  0.15593  0.5330000000000003  1.0000
  H   H34       1.0  0.95213  0.25193  0.4374900000000001  1.0000
  H   H35       1.0  0.39733  0.8989700000000002  0.47743  1.0000
  H   H36       1.0  0.32288  0.97296  0.56585  1.0000
  H   H37       1.0  0.9660299999999998  0.46719  0.25  1.0000
  H   H38       1.0  0.22014  0.57061  0.16309000000000007  1.0000
  H   H39       1.0  0.19807999999999998  0.34407  0.9670100000000003  1.0000
  H   H40       1.0  0.9520399999999998  0.24807999999999997  0.06252  1.0000
  H   H41       1.0  0.39731  0.6010299999999998  0.02258  1.0000
  H   H42       1.0  0.32287  0.52703  0.9341500000000003  1.0000
  H   H43       1.0  0.53398  0.03281  0.24999  1.0000
  H   H44       1.0  0.27987  0.92939  0.16308  1.0000
  H   H45       1.0  0.30193  0.15593  0.9670100000000003  1.0000
  H   H46       1.0  0.54797  0.25192  0.06251  1.0000
  H   H47       1.0  0.10268999999999999  0.8989700000000002  0.02257  1.0000
  H   H48       1.0  0.17713  0.97297  0.9341500000000003  1.0000
  C   C1        1.0  0.52167  0.55725  0.68677  1.0000
  C   C2        1.0  0.66371  0.50024  0.6379600000000002  1.0000
  C   C3        1.0  0.7314699999999998  0.53301  0.5564600000000002  1.0000
  C   C4        1.0  0.65203  0.6261  0.52952  1.0000
  C   C5        1.0  0.51236  0.67929  0.5819200000000002  1.0000
  C   C6        1.0  0.8852899999999999  0.47634  0.50057  1.0000
  C   C7        1.0  0.9783299999999998  0.94275  0.6867600000000003  1.0000
  C   C8        1.0  0.8362999999999999  0.99976  0.6379600000000002  1.0000
  C   C9        1.0  0.76854  0.9669899999999999  0.5564600000000002  1.0000
  C   C10       1.0  0.84798  0.87389  0.52952  1.0000
  C   C11       1.0  0.9876299999999999  0.8207199999999999  0.5819200000000002  1.0000
  C   C12       1.0  0.61471  0.02366  0.50057  1.0000
  C   C13       1.0  0.97837  0.55725  0.8132300000000002  1.0000
  C   C14       1.0  0.83632  0.50025  0.8620300000000002  1.0000
  C   C15       1.0  0.76854  0.53302  0.9435300000000002  1.0000
  C   C16       1.0  0.848  0.62612  0.9704600000000002  1.0000
  C   C17       1.0  0.98768  0.67929  0.91806  1.0000
  C   C18       1.0  0.61472  0.47635  0.9994200000000001  1.0000
  C   C19       1.0  0.52162  0.94275  0.8132300000000002  1.0000
  C   C20       1.0  0.66368  0.99975  0.8620300000000002  1.0000
  C   C21       1.0  0.7314599999999998  0.96697  0.9435300000000002  1.0000
  C   C22       1.0  0.65201  0.87388  0.9704600000000002  1.0000
  C   C23       1.0  0.51231  0.8207  0.91806  1.0000
  C   C24       1.0  0.8852799999999998  0.02365  0.9994200000000001  1.0000
  C   C25       1.0  0.47834  0.44275  0.31323  1.0000
  C   C26       1.0  0.3363  0.49976  0.3620400000000001  1.0000
  C   C27       1.0  0.26854  0.46699  0.44354  1.0000
  C   C28       1.0  0.34797  0.37389999999999995  0.4704800000000001  1.0000
  C   C29       1.0  0.48764  0.32071  0.4180800000000001  1.0000
  C   C30       1.0  0.11471  0.52366  0.4994300000000001  1.0000
  C   C31       1.0  0.021669999999999995  0.05725  0.31323  1.0000
  C   C32       1.0  0.1637  0.00024  0.3620400000000001  1.0000
  C   C33       1.0  0.23146999999999998  0.03301  0.44354  1.0000
  C   C34       1.0  0.15203  0.12611  0.4704800000000001  1.0000
  C   C35       1.0  0.01237  0.17928  0.4180800000000001  1.0000
  C   C36       1.0  0.38529  0.9763400000000001  0.4994300000000001  1.0000
  C   C37       1.0  0.02163  0.44275  0.18677  1.0000
  C   C38       1.0  0.16367999999999994  0.49974  0.13797  1.0000
  C   C39       1.0  0.23146  0.46698  0.05647000000000001  1.0000
  C   C40       1.0  0.152  0.37388  0.02954  1.0000
  C   C41       1.0  0.01232  0.3207  0.08194  1.0000
  C   C42       1.0  0.38528  0.52365  0.00058  1.0000
  C   C43       1.0  0.47837999999999997  0.05725  0.18677  1.0000
  C   C44       1.0  0.33631999999999995  0.00025  0.13797  1.0000
  C   C45       1.0  0.26854  0.03302  0.05647000000000001  1.0000
  C   C46       1.0  0.3479999999999999  0.12611  0.02953  1.0000
  C   C47       1.0  0.48769  0.1793  0.08194  1.0000
  C   C48       1.0  0.11472  0.97635  0.00058  1.0000
  N   N1        1.0  0.44228  0.6459199999999999  0.6594300000000002  1.0000
  N   N2        1.0  0.05773  0.85408  0.6594300000000002  1.0000
  N   N3        1.0  0.057749999999999996  0.64593  0.8405400000000002  1.0000
  N   N4        1.0  0.44225  0.85407  0.8405400000000002  1.0000
  N   N5        1.0  0.55773  0.35408  0.34057000000000004  1.0000
  N   N6        1.0  0.94228  0.14592  0.34057000000000004  1.0000
  N   N7        1.0  0.94226  0.35407  0.15946000000000005  1.0000
  N   N8        1.0  0.55775  0.14593  0.15946000000000005  1.0000
