data_image0
_chemical_formula_structural       In6Ag2H18C42N6O26
_chemical_formula_sum              "In6 Ag2 H18 C42 N6 O26"
_cell_length_a       14.37534
_cell_length_b       14.37653
_cell_length_c       15.29895
_cell_angle_alpha    90.75189
_cell_angle_beta     89.24863
_cell_angle_gamma    129.01133

_symmetry_space_group_name_H-M    'P 1'
_symmetry_Int_Tables_number       1

loop_
  _symmetry_equiv_pos_as_xyz
  'x,y,z'

loop_
  _atom_site_type_symbol
  _atom_site_label
  _atom_site_symmetry_multiplicity
  _atom_site_fract_x
  _atom_site_fract_y
  _atom_site_fract_z
  _atom_site_occupancy
  In  In1       1.0  0.38108000000000003  0.58961  0.25114  1.0000
  In  In2       1.0  0.2012599999999999  0.6731  0.24854000000000007  1.0000
  In  In3       1.0  0.5331699999999999  0.91096  0.25613  1.0000
  In  In4       1.0  0.9109700000000002  0.53314  0.7439500000000002  1.0000
  In  In5       1.0  0.5896  0.38103  0.74888  1.0000
  In  In6       1.0  0.6731100000000001  0.20124  0.7514900000000002  1.0000
  Ag  Ag1       1.0  0.03891  0.03896  0.50002  1.0000
  Ag  Ag2       1.0  0.03811  0.03813  6e-05  1.0000
  H   H1        1.0  0.1418  0.2721  0.40091  1.0000
  H   H2        1.0  0.09076000000000002  0.8736  0.40866  1.0000
  H   H3        1.0  0.7827299999999999  0.9003799999999998  0.4089  1.0000
  H   H4        1.0  0.13678  0.26774  0.10038  1.0000
  H   H5        1.0  0.09093999999999998  0.87554  0.09324  1.0000
  H   H6        1.0  0.78951  0.88966  0.10768  1.0000
  H   H7        1.0  0.9004  0.78271  0.59123  1.0000
  H   H8        1.0  0.27208  0.14184  0.59905  1.0000
  H   H9        1.0  0.87357  0.09082  0.59136  1.0000
  H   H10       1.0  0.8896900000000001  0.78954  0.89231  1.0000
  H   H11       1.0  0.2677  0.13675  0.89972  1.0000
  H   H12       1.0  0.8755500000000002  0.09093  0.90685  1.0000
  H   H13       1.0  0.97356  0.4203299999999999  0.48828  1.0000
  H   H14       1.0  0.42032  0.9736  0.51177  1.0000
  H   H15       1.0  0.53709  0.53707  0.50004  1.0000
  H   H16       1.0  0.9738  0.41937  0.01656  1.0000
  H   H17       1.0  0.4193900000000001  0.9738100000000001  0.9834800000000002  1.0000
  H   H18       1.0  0.53539  0.53539  2e-05  1.0000
  C   C1        1.0  0.06513  0.35702  0.43462  1.0000
  C   C2        1.0  0.14643000000000003  0.4588900000000001  0.37195  1.0000
  C   C3        1.0  0.07599999999999997  0.26719  0.44116  1.0000
  C   C4        1.0  0.25489  0.9136  0.4527200000000001  1.0000
  C   C5        1.0  0.2554000000000001  0.83368  0.38827  1.0000
  C   C6        1.0  0.16701  0.92747  0.45234  1.0000
  C   C7        1.0  0.64937  0.71555  0.44591  1.0000
  C   C8        1.0  0.55792  0.69656  0.38491  1.0000
  C   C9        1.0  0.7627  0.82783  0.44923000000000013  1.0000
  C   C10       1.0  0.06031000000000001  0.35255  0.06944  1.0000
  C   C11       1.0  0.13746  0.45191  0.13487  1.0000
  C   C12       1.0  0.07197999999999997  0.26337  0.06063000000000002  1.0000
  C   C13       1.0  0.25503  0.91523  0.04641  1.0000
  C   C14       1.0  0.2610399999999999  0.8424799999999999  0.11284  1.0000
  C   C15       1.0  0.16634  0.9279  0.04813  1.0000
  C   C16       1.0  0.6534400000000001  0.70821  0.06385  1.0000
  C   C17       1.0  0.5692600000000001  0.68259  0.13585  1.0000
  C   C18       1.0  0.7662299999999999  0.8210399999999999  0.06016000000000001  1.0000
  C   C19       1.0  0.71559  0.64936  0.55416  1.0000
  C   C20       1.0  0.6965900000000002  0.55789  0.6151200000000002  1.0000
  C   C21       1.0  0.82786  0.76269  0.55088  1.0000
  C   C22       1.0  0.35698  0.06514  0.5653600000000002  1.0000
  C   C23       1.0  0.45885  0.14643  0.6280400000000003  1.0000
  C   C24       1.0  0.26716  0.07603  0.5588100000000003  1.0000
  C   C25       1.0  0.9135799999999998  0.25491  0.54726  1.0000
  C   C26       1.0  0.83365  0.25541  0.61171  1.0000
  C   C27       1.0  0.9274400000000002  0.16704  0.54764  1.0000
  C   C28       1.0  0.70824  0.65342  0.9361400000000002  1.0000
  C   C29       1.0  0.68262  0.56921  0.86415  1.0000
  C   C30       1.0  0.82105  0.76624  0.93982  1.0000
  C   C31       1.0  0.35256  0.06032  0.9306100000000003  1.0000
  C   C32       1.0  0.45187999999999995  0.13748  0.8651500000000002  1.0000
  C   C33       1.0  0.26336  0.07198  0.93946  1.0000
  C   C34       1.0  0.91526  0.25502  0.95363  1.0000
  C   C35       1.0  0.84252  0.261  0.8872  1.0000
  C   C36       1.0  0.9279  0.16633  0.95195  1.0000
  C   C37       1.0  0.9828200000000002  0.35078  0.4890400000000001  1.0000
  C   C38       1.0  0.3507599999999999  0.98285  0.51095  1.0000
  C   C39       1.0  0.62502  0.62499  0.50003  1.0000
  C   C40       1.0  0.98167  0.34887  0.01434  1.0000
  C   C41       1.0  0.34888  0.9816800000000001  0.9857000000000002  1.0000
  C   C42       1.0  0.62326  0.62324  0.0  1.0000
  N   N1        1.0  0.008589999999999988  0.17337  0.49593000000000004  1.0000
  N   N2        1.0  0.17332  0.00859  0.50406  1.0000
  N   N3        1.0  0.8511699999999999  0.8511799999999999  0.50008  1.0000
  N   N4        1.0  0.0067800000000000004  0.17115  0.0037400000000000007  1.0000
  N   N5        1.0  0.17114999999999997  0.006769999999999999  0.99636  1.0000
  N   N6        1.0  0.84959  0.8496099999999999  0.99998  1.0000
  O   O1        1.0  0.11720000000000005  0.52264  0.35064  1.0000
  O   O2        1.0  0.23770999999999998  0.4691699999999999  0.3478  1.0000
  O   O3        1.0  0.3514699999999999  0.8507499999999999  0.37752  1.0000
  O   O4        1.0  0.15673  0.75436  0.34649  1.0000
  O   O5        1.0  0.49087  0.59167  0.34719  1.0000
  O   O6        1.0  0.55288  0.77912  0.37392  1.0000
  O   O7        1.0  0.10956999999999999  0.51874  0.15244  1.0000
  O   O8        1.0  0.22295  0.45778  0.16483  1.0000
  O   O9        1.0  0.36122  0.87015  0.12527  1.0000
  O   O10       1.0  0.16199  0.75869  0.15315000000000006  1.0000
  O   O11       1.0  0.4711100000000001  0.57323  0.14221  1.0000
  O   O12       1.0  0.5969800000000001  0.76594  0.18655  1.0000
  O   O13       1.0  0.5917  0.49084000000000005  0.65285  1.0000
  O   O14       1.0  0.77917  0.55285  0.6261000000000002  1.0000
  O   O15       1.0  0.52262  0.11721  0.64936  1.0000
  O   O16       1.0  0.46913  0.23769  0.6522200000000002  1.0000
  O   O17       1.0  0.85072  0.35144  0.6225100000000002  1.0000
  O   O18       1.0  0.75436  0.15673  0.65353  1.0000
  O   O19       1.0  0.57323  0.4711  0.85778  1.0000
  O   O20       1.0  0.76599  0.59687  0.81349  1.0000
  O   O21       1.0  0.51871  0.10957  0.84754  1.0000
  O   O22       1.0  0.45771  0.22293  0.83521  1.0000
  O   O23       1.0  0.87048  0.36122999999999994  0.8746100000000002  1.0000
  O   O24       1.0  0.75833  0.16179  0.84723  1.0000
  O   O25       1.0  0.36718000000000006  0.71992  0.23555000000000004  1.0000
  O   O26       1.0  0.7199100000000002  0.36713  0.76462  1.0000
