data_image0
_chemical_formula_structural       Eu4H24C48O24
_chemical_formula_sum              "Eu4 H24 C48 O24"
_cell_length_a       12.28788
_cell_length_b       14.1515
_cell_length_c       13.515190000000002
_cell_angle_alpha    90.06264999999999
_cell_angle_beta     98.74039
_cell_angle_gamma    90.0099

_space_group_name_H-M_alt    "P 1"
_space_group_IT_number       1

loop_
  _space_group_symop_operation_xyz
  'x, y, z'

loop_
  _atom_site_type_symbol
  _atom_site_label
  _atom_site_symmetry_multiplicity
  _atom_site_fract_x
  _atom_site_fract_y
  _atom_site_fract_z
  _atom_site_occupancy
  Eu  Eu1       1.0  0.5996  0.02456  0.91156  1.0000
  Eu  Eu2       1.0  0.90003  0.52619  0.58867  1.0000
  Eu  Eu3       1.0  0.40148  0.9728299999999998  0.08876  1.0000
  Eu  Eu4       1.0  0.09971  0.47366999999999987  0.41144000000000003  1.0000
  H   H1        1.0  0.85567  0.77079  0.04849  1.0000
  H   H2        1.0  0.9439600000000001  0.6618399999999998  0.18378000000000005  1.0000
  H   H3        1.0  0.6720600000000001  0.7046699999999999  0.34504000000000007  1.0000
  H   H4        1.0  0.58334  0.8122299999999998  0.21016  1.0000
  H   H5        1.0  0.43063  0.13322  0.59393  1.0000
  H   H6        1.0  0.65772  0.90385  0.58411  1.0000
  H   H7        1.0  0.64493  0.27222  0.45175  1.0000
  H   H8        1.0  0.55824  0.16128  0.31739  1.0000
  H   H9        1.0  0.8294800000000001  0.20476  0.15588  1.0000
  H   H10       1.0  0.91727  0.31387999999999994  0.28991  1.0000
  H   H11       1.0  0.06764000000000002  0.63264  0.9049600000000002  1.0000
  H   H12       1.0  0.8421800000000002  0.4026099999999999  0.91922  1.0000
  H   H13       1.0  0.14624  0.22637  0.95118  1.0000
  H   H14       1.0  0.05724000000000002  0.3363799999999999  0.8174000000000001  1.0000
  H   H15       1.0  0.32826999999999995  0.29635  0.65472  1.0000
  H   H16       1.0  0.41812  0.18771  0.7881400000000001  1.0000
  H   H17       1.0  0.5709  0.8670799999999997  0.40716  1.0000
  H   H18       1.0  0.3427200000000001  0.09599  0.41746  1.0000
  H   H19       1.0  0.35455  0.7279  0.54778  1.0000
  H   H20       1.0  0.44234  0.83731  0.68308  1.0000
  H   H21       1.0  0.17023  0.79493  0.84376  1.0000
  H   H22       1.0  0.08152000000000004  0.6866599999999999  0.7090200000000002  1.0000
  H   H23       1.0  0.93227  0.3673299999999999  0.09503000000000003  1.0000
  H   H24       1.0  0.15773  0.59731  0.08073000000000001  1.0000
  C   C1        1.0  0.66826  0.86776  0.04446  1.0000
  C   C2        1.0  0.71489  0.79839  0.12168  1.0000
  C   C3        1.0  0.8162600000000001  0.75545  0.11346  1.0000
  C   C4        1.0  0.8652400000000001  0.69526  0.18852000000000005  1.0000
  C   C5        1.0  0.8138900000000001  0.67827  0.27293  1.0000
  C   C6        1.0  0.7114600000000001  0.71941  0.2798900000000001  1.0000
  C   C7        1.0  0.6618299999999999  0.77904  0.20432000000000003  1.0000
  C   C8        1.0  0.87046  0.6172399999999998  0.35516  1.0000
  C   C9        1.0  0.5986200000000002  0.039069999999999994  0.7037200000000002  1.0000
  C   C10       1.0  0.54952  0.020859999999999993  0.59794  1.0000
  C   C11       1.0  0.46085  0.07567  0.55205  1.0000
  C   C12       1.0  0.58922  0.94528  0.54635  1.0000
  C   C13       1.0  0.83277  0.3691099999999999  0.45662000000000014  1.0000
  C   C14       1.0  0.78573  0.30013  0.37864  1.0000
  C   C15       1.0  0.68462  0.25671  0.38688  1.0000
  C   C16       1.0  0.63642  0.19548  0.31225  1.0000
  C   C17       1.0  0.68787  0.1777  0.228  1.0000
  C   C18       1.0  0.78962  0.21998  0.22068000000000004  1.0000
  C   C19       1.0  0.83873  0.2806  0.29586  1.0000
  C   C20       1.0  0.63196  0.11427  0.14729  1.0000
  C   C21       1.0  0.8985100000000001  0.53774  0.79733  1.0000
  C   C22       1.0  0.94943  0.5199  0.90256  1.0000
  C   C23       1.0  0.0384  0.57516  0.94737  1.0000
  C   C24       1.0  0.9111400000000001  0.44456  0.9554100000000001  1.0000
  C   C25       1.0  0.33496000000000004  0.12927  0.95322  1.0000
  C   C26       1.0  0.28670000000000007  0.19944  0.8771100000000002  1.0000
  C   C27       1.0  0.18542  0.24225999999999995  0.8862  1.0000
  C   C28       1.0  0.136  0.30328  0.812  1.0000
  C   C29       1.0  0.18672000000000002  0.32142  0.72739  1.0000
  C   C30       1.0  0.28925  0.28072  0.71987  1.0000
  C   C31       1.0  0.33937000000000006  0.22034  0.7945200000000002  1.0000
  C   C32       1.0  0.12965  0.38261  0.6453200000000001  1.0000
  C   C33       1.0  0.4037  0.9596  0.29784  1.0000
  C   C34       1.0  0.45178  0.9792999999999997  0.40303  1.0000
  C   C35       1.0  0.5406  0.92463  0.44893  1.0000
  C   C36       1.0  0.41179000000000004  0.05483  0.4546400000000001  1.0000
  C   C37       1.0  0.16676  0.63106  0.54289  1.0000
  C   C38       1.0  0.21359  0.70016  0.62065  1.0000
  C   C39       1.0  0.31499  0.74323  0.61277  1.0000
  C   C40       1.0  0.36376  0.80366  0.6879400000000002  1.0000
  C   C41       1.0  0.31209  0.82092  0.77217  1.0000
  C   C42       1.0  0.20977  0.7795199999999998  0.7788300000000001  1.0000
  C   C43       1.0  0.16033000000000006  0.71954  0.7032900000000002  1.0000
  C   C44       1.0  0.36783  0.88229  0.85495  1.0000
  C   C45       1.0  0.10081  0.46188  0.20274  1.0000
  C   C46       1.0  0.05043  0.48  0.09739  1.0000
  C   C47       1.0  0.96147  0.42477  0.05256000000000001  1.0000
  C   C48       1.0  0.08877  0.55534  0.04455  1.0000
  O   O1        1.0  0.72484  0.89535  0.9789700000000001  1.0000
  O   O2        1.0  0.5701  0.90202  0.04513  1.0000
  O   O3        1.0  0.95845  0.57594  0.33948000000000006  1.0000
  O   O4        1.0  0.83007  0.60959  0.43651  1.0000
  O   O5        1.0  0.56664  0.11068999999999998  0.7506  1.0000
  O   O6        1.0  0.66707  0.9809199999999999  0.75054  1.0000
  O   O7        1.0  0.77748  0.39523999999999987  0.52386  1.0000
  O   O8        1.0  0.93015  0.40456  0.45486  1.0000
  O   O9        1.0  0.54527  0.07179999999999999  0.16486  1.0000
  O   O10       1.0  0.67134  0.10519  0.06548  1.0000
  O   O11       1.0  0.92718  0.61032  0.74944  1.0000
  O   O12       1.0  0.83062  0.4794  0.75011  1.0000
  O   O13       1.0  0.27997  0.10108  0.019860000000000006  1.0000
  O   O14       1.0  0.43273  0.09567  0.95007  1.0000
  O   O15       1.0  0.041680000000000036  0.42397  0.6610100000000002  1.0000
  O   O16       1.0  0.16975  0.39025  0.56379  1.0000
  O   O17       1.0  0.43882  0.88991  0.25011  1.0000
  O   O18       1.0  0.33158  0.014149999999999996  0.24946000000000002  1.0000
  O   O19       1.0  0.22218  0.6047399999999998  0.47579000000000005  1.0000
  O   O20       1.0  0.06957000000000003  0.5954099999999998  0.54504  1.0000
  O   O21       1.0  0.45603000000000005  0.92371  0.83956  1.0000
  O   O22       1.0  0.32709  0.89025  0.9358400000000002  1.0000
  O   O23       1.0  0.07033  0.38981999999999994  0.2504  1.0000
  O   O24       1.0  0.16952  0.51955  0.25  1.0000
