data_image0
_chemical_formula_structural       Cd4H40C40N24O8
_chemical_formula_sum              "Cd4 H40 C40 N24 O8"
_cell_length_a       7.7617
_cell_length_b       12.02228
_cell_length_c       18.5441
_cell_angle_alpha    77.79202
_cell_angle_beta     77.94309
_cell_angle_gamma    71.02055

_symmetry_space_group_name_H-M    'P 1'
_symmetry_Int_Tables_number       1

loop_
  _symmetry_equiv_pos_as_xyz
  'x,y,z'

loop_
  _atom_site_type_symbol
  _atom_site_label
  _atom_site_symmetry_multiplicity
  _atom_site_fract_x
  _atom_site_fract_y
  _atom_site_fract_z
  _atom_site_occupancy
  Cd  Cd1       1.0  0.9510000000000001  0.77916  0.72578  1.0000
  Cd  Cd2       1.0  0.4555499999999999  0.7207  0.77526  1.0000
  Cd  Cd3       1.0  0.049000000000000016  0.22083999999999998  0.27422  1.0000
  Cd  Cd4       1.0  0.54445  0.2793  0.22473999999999997  1.0000
  H   H1        1.0  0.8684900000000003  0.6180699999999998  0.8866  1.0000
  H   H2        1.0  0.3236400000000001  0.4806399999999999  0.01231  1.0000
  H   H3        1.0  0.1393500000000001  0.7083199999999997  0.54762  1.0000
  H   H4        1.0  0.67669  0.58255  0.61044  1.0000
  H   H5        1.0  0.6481900000000002  0.5645999999999999  0.46879  1.0000
  H   H6        1.0  0.42294000000000004  0.6123999999999999  0.44491  1.0000
  H   H7        1.0  0.8832200000000003  0.08871  0.6862  1.0000
  H   H8        1.0  0.409  0.030519999999999995  0.74694  1.0000
  H   H9        1.0  0.9793799999999999  0.27956000000000003  0.67823  1.0000
  H   H10       1.0  0.21321000000000004  0.26373999999999986  0.68121  1.0000
  H   H11       1.0  0.37407999999999997  0.88233  0.61347  1.0000
  H   H12       1.0  0.81618  0.019859999999999996  0.48788  1.0000
  H   H13       1.0  0.39813000000000004  0.79052  0.9541499999999999  1.0000
  H   H14       1.0  0.8713  0.9163699999999998  0.88927  1.0000
  H   H15       1.0  0.6813600000000001  0.93613  0.0319  1.0000
  H   H16       1.0  0.48072000000000004  0.8880899999999999  0.05537  1.0000
  H   H17       1.0  0.6560799999999999  0.4132799999999999  0.81365  1.0000
  H   H18       1.0  0.18683000000000033  0.4670799999999998  0.75392  1.0000
  H   H19       1.0  0.9374500000000001  0.22000000000000003  0.82186  1.0000
  H   H20       1.0  0.15809  0.23614999999999994  0.81898  1.0000
  H   H21       1.0  0.1315100000000001  0.3819299999999999  0.11339999999999999  1.0000
  H   H22       1.0  0.6763600000000001  0.51936  0.9876899999999998  1.0000
  H   H23       1.0  0.8606499999999999  0.29168  0.45238000000000006  1.0000
  H   H24       1.0  0.32331  0.41743999999999987  0.38956  1.0000
  H   H25       1.0  0.35180999999999996  0.4354  0.53122  1.0000
  H   H26       1.0  0.57706  0.38759999999999994  0.55509  1.0000
  H   H27       1.0  0.11677000000000001  0.91129  0.3138  1.0000
  H   H28       1.0  0.5909999999999999  0.96948  0.25306  1.0000
  H   H29       1.0  0.02062000000000018  0.72044  0.32178  1.0000
  H   H30       1.0  0.7867899999999999  0.73626  0.31879  1.0000
  H   H31       1.0  0.62592  0.11766999999999998  0.38653  1.0000
  H   H32       1.0  0.18382  0.98014  0.51212  1.0000
  H   H33       1.0  0.6018700000000002  0.20946999999999996  0.04585  1.0000
  H   H34       1.0  0.1287  0.08363  0.11073  1.0000
  H   H35       1.0  0.3186400000000001  0.06386  0.9680999999999998  1.0000
  H   H36       1.0  0.51928  0.11191  0.94463  1.0000
  H   H37       1.0  0.34392000000000006  0.58672  0.18635  1.0000
  H   H38       1.0  0.8131700000000004  0.53291  0.24608  1.0000
  H   H39       1.0  0.06255000000000004  0.7799899999999999  0.17814  1.0000
  H   H40       1.0  0.8419100000000002  0.7638499999999999  0.18103  1.0000
  C   C1        1.0  0.22328999999999996  0.61389  0.88303  1.0000
  C   C2        1.0  0.10958000000000007  0.5560699999999998  0.94208  1.0000
  C   C3        1.0  0.9247400000000001  0.5665699999999998  0.93639  1.0000
  C   C4        1.0  0.18245000000000006  0.48831999999999987  0.0074  1.0000
  C   C5        1.0  0.25159000000000015  0.67844  0.58001  1.0000
  C   C6        1.0  0.5285300000000002  0.6125899999999997  0.61289  1.0000
  C   C7        1.0  0.5047900000000002  0.5651099999999999  0.48982999999999993  1.0000
  C   C8        1.0  0.00887999999999997  0.048440000000000004  0.71031  1.0000
  C   C9        1.0  0.28062  0.018729999999999983  0.74117  1.0000
  C   C10       1.0  0.09377  0.23351000000000002  0.7101  1.0000
  C   C11       1.0  0.71878  0.88603  0.61769  1.0000
  C   C12       1.0  0.6073200000000002  0.9443399999999997  0.55817  1.0000
  C   C13       1.0  0.4276899999999999  0.9337899999999999  0.56355  1.0000
  C   C14       1.0  0.67798  0.01188999999999999  0.49294  1.0000
  C   C15       1.0  0.5118300000000001  0.8206599999999998  0.92119  1.0000
  C   C16       1.0  0.7547300000000002  0.8870399999999998  0.88737  1.0000
  C   C17       1.0  0.5603300000000001  0.93504  0.01052  1.0000
  C   C18       1.0  0.76668  0.45227999999999996  0.78962  1.0000
  C   C19       1.0  0.04045000000000012  0.48032999999999987  0.75948  1.0000
  C   C20       1.0  0.037140000000000055  0.26622  0.79005  1.0000
  C   C21       1.0  0.7767  0.38610999999999995  0.11697  1.0000
  C   C22       1.0  0.89042  0.4439299999999999  0.05792  1.0000
  C   C23       1.0  0.07526000000000002  0.43343  0.06361  1.0000
  C   C24       1.0  0.8175500000000001  0.5116799999999999  0.9926000000000001  1.0000
  C   C25       1.0  0.74841  0.32156  0.41999  1.0000
  C   C26       1.0  0.47147  0.3874  0.38711  1.0000
  C   C27       1.0  0.49521000000000015  0.43487999999999993  0.51017  1.0000
  C   C28       1.0  0.9911100000000002  0.9515599999999997  0.2897  1.0000
  C   C29       1.0  0.7193800000000002  0.9812699999999999  0.25883  1.0000
  C   C30       1.0  0.90623  0.76649  0.2899  1.0000
  C   C31       1.0  0.2812200000000001  0.11396999999999999  0.38231  1.0000
  C   C32       1.0  0.39267  0.05565999999999999  0.44183  1.0000
  C   C33       1.0  0.57231  0.06621  0.43646  1.0000
  C   C34       1.0  0.32202000000000014  0.98811  0.50707  1.0000
  C   C35       1.0  0.48817  0.17932999999999993  0.07881  1.0000
  C   C36       1.0  0.24527000000000002  0.11296  0.11262999999999998  1.0000
  C   C37       1.0  0.4396700000000001  0.06496000000000003  0.9894799999999999  1.0000
  C   C38       1.0  0.23332  0.54772  0.21038  1.0000
  C   C39       1.0  0.9595500000000002  0.5196699999999999  0.24052  1.0000
  C   C40       1.0  0.9628599999999999  0.7337799999999999  0.20995  1.0000
  N   N1        1.0  0.23634999999999998  0.69348  0.65036  1.0000
  N   N2        1.0  0.40738000000000013  0.6529299999999998  0.67074  1.0000
  N   N3        1.0  0.4363599999999999  0.62762  0.55301  1.0000
  N   N4        1.0  0.07583999999999988  0.9332700000000002  0.73552  1.0000
  N   N5        1.0  0.24464000000000005  0.9149000000000002  0.75442  1.0000
  N   N6        1.0  0.13547000000000003  0.10703999999999993  0.71174  1.0000
  N   N7        1.0  0.5802300000000005  0.80601  0.85066  1.0000
  N   N8        1.0  0.7304900000000001  0.84678  0.82974  1.0000
  N   N9        1.0  0.61912  0.87158  0.9477399999999999  1.0000
  N   N10       1.0  0.7446  0.56739  0.76489  1.0000
  N   N11       1.0  0.9143600000000001  0.5848  0.7464  1.0000
  N   N12       1.0  0.95335  0.39266999999999996  0.7885  1.0000
  N   N13       1.0  0.7636500000000002  0.30650999999999995  0.34964  1.0000
  N   N14       1.0  0.5926200000000001  0.34706999999999993  0.32926  1.0000
  N   N15       1.0  0.56364  0.37238  0.44699  1.0000
  N   N16       1.0  0.92416  0.06673  0.26448  1.0000
  N   N17       1.0  0.75536  0.0851  0.24559  1.0000
  N   N18       1.0  0.86453  0.89296  0.28826  1.0000
  N   N19       1.0  0.4197700000000002  0.19398999999999994  0.14935  1.0000
  N   N20       1.0  0.26951  0.15322  0.17026  1.0000
  N   N21       1.0  0.38088  0.12842  0.05226  1.0000
  N   N22       1.0  0.2554000000000001  0.4326099999999999  0.23510999999999999  1.0000
  N   N23       1.0  0.08563  0.4152  0.2536  1.0000
  N   N24       1.0  0.046650000000000066  0.6073299999999999  0.2115  1.0000
  O   O1        1.0  0.1571500000000003  0.6790999999999999  0.82385  1.0000
  O   O2        1.0  0.39184  0.60046  0.88974  1.0000
  O   O3        1.0  0.6584500000000001  0.8203299999999999  0.67634  1.0000
  O   O4        1.0  0.8801500000000004  0.8996699999999994  0.6116  1.0000
  O   O5        1.0  0.8428499999999999  0.32089999999999996  0.17615  1.0000
  O   O6        1.0  0.6081600000000003  0.3995399999999999  0.11026  1.0000
  O   O7        1.0  0.34153999999999984  0.17967  0.32366  1.0000
  O   O8        1.0  0.11985000000000004  0.10032999999999993  0.3884  1.0000
