data_image0
_chemical_formula_structural       Zn3Cr3H30C54N6O25
_chemical_formula_sum              "Zn3 Cr3 H30 C54 N6 O25"
_cell_length_a       13.9488
_cell_length_b       17.45097
_cell_length_c       17.45117
_cell_angle_alpha    119.86650999999999
_cell_angle_beta     90.0
_cell_angle_gamma    90.0

_symmetry_space_group_name_H-M    'P 1'
_symmetry_Int_Tables_number       1

loop_
  _symmetry_equiv_pos_as_xyz
  'x,y,z'

loop_
  _atom_site_type_symbol
  _atom_site_label
  _atom_site_symmetry_multiplicity
  _atom_site_fract_x
  _atom_site_fract_y
  _atom_site_fract_z
  _atom_site_occupancy
  Zn  Zn1       1.0  0.0  0.63678  0.6367800000000001  1.0000
  Zn  Zn2       1.0  0.0  9.000000000001483e-05  0.36341  1.0000
  Zn  Zn3       1.0  0.0  0.36342  9e-05  1.0000
  Cr  Cr1       1.0  0.4999999999999999  0.00019000000000012464  0.8978700000000002  1.0000
  Cr  Cr2       1.0  0.4999999999999999  0.89787  0.00019000000000000006  1.0000
  Cr  Cr3       1.0  0.4999999999999999  0.10216  0.10215  1.0000
  H   H1        1.0  0.72749  0.8658300000000001  0.7229  1.0000
  H   H2        1.0  0.8768499999999999  0.7813200000000001  0.6443900000000002  1.0000
  H   H3        1.0  0.72782  0.85729  0.13445  1.0000
  H   H4        1.0  0.87731  0.86343  0.21916  1.0000
  H   H5        1.0  0.7274299999999998  0.27693  0.14265  1.0000
  H   H6        1.0  0.8769599999999997  0.35564  0.13675000000000007  1.0000
  H   H7        1.0  0.27251  0.8658300000000001  0.7229  1.0000
  H   H8        1.0  0.12316  0.7813200000000001  0.6443900000000002  1.0000
  H   H9        1.0  0.27218  0.85729  0.13445  1.0000
  H   H10       1.0  0.12269999999999999  0.86343  0.21916  1.0000
  H   H11       1.0  0.2725699999999999  0.27693  0.14265  1.0000
  H   H12       1.0  0.12305  0.35564  0.13675000000000007  1.0000
  H   H13       1.0  0.27218  0.13445000000000004  0.8572800000000002  1.0000
  H   H14       1.0  0.12269999999999999  0.21916000000000008  0.86343  1.0000
  H   H15       1.0  0.2725699999999999  0.14265  0.27693  1.0000
  H   H16       1.0  0.12305  0.13675  0.35564  1.0000
  H   H17       1.0  0.27251  0.72291  0.8658300000000002  1.0000
  H   H18       1.0  0.12316  0.64439  0.78132  1.0000
  H   H19       1.0  0.72782  0.13445000000000004  0.8572800000000002  1.0000
  H   H20       1.0  0.87731  0.21916000000000008  0.86343  1.0000
  H   H21       1.0  0.7274299999999998  0.14265  0.27693  1.0000
  H   H22       1.0  0.8769599999999997  0.13675  0.35564  1.0000
  H   H23       1.0  0.72749  0.72291  0.8658300000000002  1.0000
  H   H24       1.0  0.8768499999999999  0.64439  0.78132  1.0000
  H   H25       1.0  0.0  0.53289  0.34954  1.0000
  H   H26       1.0  0.0  0.81605  0.46665  1.0000
  H   H27       1.0  0.0  0.6506  0.18343000000000007  1.0000
  H   H28       1.0  0.0  0.46666  0.8160400000000002  1.0000
  H   H29       1.0  0.0  0.18343  0.6506  1.0000
  H   H30       1.0  0.0  0.34954000000000024  0.5328900000000002  1.0000
  C   C1        1.0  0.7577399999999999  0.81678  0.7369800000000002  1.0000
  C   C2        1.0  0.83947  0.76999  0.69277  1.0000
  C   C3        1.0  0.7579999999999999  0.9203200000000001  0.18349000000000001  1.0000
  C   C4        1.0  0.83973  0.9229699999999998  0.23033  1.0000
  C   C5        1.0  0.7578  0.26305  0.07967  1.0000
  C   C6        1.0  0.83954  0.30732  0.07715  1.0000
  C   C7        1.0  0.24225999999999995  0.81678  0.7369800000000002  1.0000
  C   C8        1.0  0.16053999999999996  0.76999  0.69277  1.0000
  C   C9        1.0  0.24199999999999997  0.9203200000000001  0.18349000000000001  1.0000
  C   C10       1.0  0.16027999999999998  0.9229699999999998  0.23033  1.0000
  C   C11       1.0  0.24221  0.26305  0.07967  1.0000
  C   C12       1.0  0.16047  0.30732  0.07715  1.0000
  C   C13       1.0  0.24199999999999997  0.18348999999999996  0.92032  1.0000
  C   C14       1.0  0.16027  0.23033000000000012  0.9229700000000001  1.0000
  C   C15       1.0  0.24221  0.07967000000000003  0.26305000000000006  1.0000
  C   C16       1.0  0.16047  0.07716000000000006  0.30732000000000004  1.0000
  C   C17       1.0  0.24225999999999995  0.73699  0.8167800000000002  1.0000
  C   C18       1.0  0.16053  0.69277  0.7699800000000002  1.0000
  C   C19       1.0  0.7579999999999999  0.18348999999999996  0.92032  1.0000
  C   C20       1.0  0.83973  0.23033000000000012  0.9229700000000001  1.0000
  C   C21       1.0  0.7578  0.07967000000000003  0.26305000000000006  1.0000
  C   C22       1.0  0.8395299999999998  0.07716000000000006  0.30732000000000004  1.0000
  C   C23       1.0  0.7577399999999999  0.73699  0.8167800000000002  1.0000
  C   C24       1.0  0.83947  0.69277  0.7699800000000002  1.0000
  C   C25       1.0  0.0  0.6881200000000001  0.50931  1.0000
  C   C26       1.0  0.0  0.6758400000000001  0.4179  1.0000
  C   C27       1.0  0.0  0.59155  0.34275  1.0000
  C   C28       1.0  0.0  0.82096  0.31137  1.0000
  C   C29       1.0  0.0  0.7418000000000001  0.32367  1.0000
  C   C30       1.0  0.0  0.75082  0.4080100000000001  1.0000
  C   C31       1.0  0.0  0.49038  0.17898  1.0000
  C   C32       1.0  0.0  0.58179  0.25793  1.0000
  C   C33       1.0  0.0  0.65709  0.24873000000000006  1.0000
  C   C34       1.0  0.0  0.3113700000000001  0.8209500000000002  1.0000
  C   C35       1.0  0.0  0.32367000000000007  0.7417900000000001  1.0000
  C   C36       1.0  0.0  0.40802  0.75082  1.0000
  C   C37       1.0  0.0  0.17898000000000003  0.4903800000000001  1.0000
  C   C38       1.0  0.0  0.2579300000000001  0.5817800000000002  1.0000
  C   C39       1.0  0.0  0.24874  0.65708  1.0000
  C   C40       1.0  0.0  0.5093100000000003  0.6881100000000002  1.0000
  C   C41       1.0  0.0  0.4179  0.67583  1.0000
  C   C42       1.0  0.0  0.34276  0.59155  1.0000
  C   C43       1.0  0.6321799999999997  0.85275  0.85275  1.0000
  C   C44       1.0  0.71602  0.8007200000000002  0.8007100000000003  1.0000
  C   C45       1.0  0.63219  0.99992  0.14748  1.0000
  C   C46       1.0  0.71614  0.9999600000000001  0.19946000000000005  1.0000
  C   C47       1.0  0.63219  0.14748000000000003  0.99992  1.0000
  C   C48       1.0  0.71614  0.19946  0.99996  1.0000
  C   C49       1.0  0.36783  0.85275  0.85275  1.0000
  C   C50       1.0  0.28397999999999995  0.8007200000000002  0.8007100000000003  1.0000
  C   C51       1.0  0.36781  0.99992  0.14748  1.0000
  C   C52       1.0  0.2838599999999999  0.9999600000000001  0.19946000000000005  1.0000
  C   C53       1.0  0.36781  0.14748000000000003  0.99992  1.0000
  C   C54       1.0  0.2838599999999999  0.19946  0.99996  1.0000
  N   N1        1.0  0.87991  0.7089100000000003  0.7089000000000002  1.0000
  N   N2        1.0  0.8800399999999998  7.999999999999623e-05  0.29132  1.0000
  N   N3        1.0  0.8800399999999998  0.29132  8e-05  1.0000
  N   N4        1.0  0.1201  0.7089100000000003  0.7089000000000002  1.0000
  N   N5        1.0  0.11995999999999997  7.999999999999623e-05  0.29132  1.0000
  N   N6        1.0  0.11995999999999997  0.29132  8e-05  1.0000
  O   O1        1.0  0.599  0.9123  0.83711  1.0000
  O   O2        1.0  0.5991299999999998  0.9249000000000002  0.08796  1.0000
  O   O3        1.0  0.59878  0.16308  0.07496  1.0000
  O   O4        1.0  0.4009999999999999  0.9123  0.83711  1.0000
  O   O5        1.0  0.4008799999999999  0.9249000000000002  0.08796  1.0000
  O   O6        1.0  0.40122  0.16308  0.07496  1.0000
  O   O7        1.0  0.4008799999999999  0.08796  0.92489  1.0000
  O   O8        1.0  0.40122  0.07496  0.16308  1.0000
  O   O9        1.0  0.4009999999999999  0.83711  0.9123  1.0000
  O   O10       1.0  0.5991299999999998  0.08796  0.92489  1.0000
  O   O11       1.0  0.59878  0.07496  0.16308  1.0000
  O   O12       1.0  0.599  0.83711  0.9123  1.0000
  O   O13       1.0  0.4999999999999999  8e-05  8e-05  1.0000
  O   O14       1.0  0.0  0.76502  0.57517  1.0000
  O   O15       1.0  0.0  0.61659  0.515  1.0000
  O   O16       1.0  0.0  0.81004  0.23445000000000005  1.0000
  O   O17       1.0  0.0  0.89799  0.38288  1.0000
  O   O18       1.0  0.0  0.42442000000000013  0.19007000000000004  1.0000
  O   O19       1.0  0.0  0.48487  0.10182  1.0000
  O   O20       1.0  0.0  0.23445000000000005  0.81003  1.0000
  O   O21       1.0  0.0  0.38289000000000006  0.89798  1.0000
  O   O22       1.0  0.0  0.19007000000000004  0.42442000000000013  1.0000
  O   O23       1.0  0.0  0.10182  0.48487  1.0000
  O   O24       1.0  0.0  0.57517  0.7650100000000002  1.0000
  O   O25       1.0  0.0  0.515  0.61659  1.0000
