data_image0
_chemical_formula_structural       Cu4H24C72N24
_chemical_formula_sum              "Cu4 H24 C72 N24"
_cell_length_a       7.28597
_cell_length_b       14.015580000000002
_cell_length_c       26.202030000000004
_cell_angle_alpha    89.99534
_cell_angle_beta     90.00091999999998
_cell_angle_gamma    105.35126

_space_group_name_H-M_alt    "P 1"
_space_group_IT_number       1

loop_
  _space_group_symop_operation_xyz
  'x, y, z'

loop_
  _atom_site_type_symbol
  _atom_site_label
  _atom_site_symmetry_multiplicity
  _atom_site_fract_x
  _atom_site_fract_y
  _atom_site_fract_z
  _atom_site_occupancy
  Cu  Cu1       1.0  0.5  0.5  0.4999999999999999  1.0000
  Cu  Cu2       1.0  0.5  0.5  0.0  1.0000
  Cu  Cu3       1.0  0.0  0.5  0.0  1.0000
  Cu  Cu4       1.0  0.0  0.5  0.4999999999999999  1.0000
  H   H1        1.0  0.05716999999999999  0.6009  0.7029399999999998  1.0000
  H   H2        1.0  0.47374  0.60061  0.7028  1.0000
  H   H3        1.0  0.28942  0.09149  0.45927  1.0000
  H   H4        1.0  0.9428100000000001  0.39913  0.20288999999999996  1.0000
  H   H5        1.0  0.5262700000000001  0.39943  0.20275  1.0000
  H   H6        1.0  0.7106000000000002  0.90855  0.9592499999999999  1.0000
  H   H7        1.0  0.45468000000000003  0.40085  0.79716  1.0000
  H   H8        1.0  0.8713100000000001  0.40085  0.7972399999999997  1.0000
  H   H9        1.0  0.1979600000000001  0.9070000000000001  0.040949999999999986  1.0000
  H   H10       1.0  0.54533  0.59912  0.29711  1.0000
  H   H11       1.0  0.12864999999999993  0.59912  0.29719  1.0000
  H   H12       1.0  0.8019800000000002  0.09297  0.5409899999999999  1.0000
  H   H13       1.0  0.9428200000000002  0.3991  0.29706  1.0000
  H   H14       1.0  0.52625  0.39938000000000007  0.29719999999999996  1.0000
  H   H15       1.0  0.71058  0.90851  0.5407299999999999  1.0000
  H   H16       1.0  0.05718000000000004  0.6008700000000001  0.7971099999999998  1.0000
  H   H17       1.0  0.4737200000000001  0.60057  0.79725  1.0000
  H   H18       1.0  0.2894000000000001  0.09145000000000003  0.04074999999999999  1.0000
  H   H19       1.0  0.54532  0.59914  0.20283  1.0000
  H   H20       1.0  0.12869000000000008  0.59915  0.20276  1.0000
  H   H21       1.0  0.80204  0.093  0.9590399999999998  1.0000
  H   H22       1.0  0.45467  0.40088  0.7028799999999997  1.0000
  H   H23       1.0  0.87135  0.40088  0.7028099999999998  1.0000
  H   H24       1.0  0.19801  0.90703  0.45900999999999986  1.0000
  C   C1        1.0  0.5702900000000002  0.51732  0.6115  1.0000
  C   C2        1.0  0.7313100000000002  0.52969  0.6457699999999997  1.0000
  C   C3        1.0  0.88494  0.5221  0.61137  1.0000
  C   C4        1.0  0.74985  0.56987  0.6966699999999999  1.0000
  C   C5        1.0  0.92499  0.59258  0.72364  1.0000
  C   C6        1.0  0.59701  0.5918999999999999  0.72364  1.0000
  C   C7        1.0  0.50558  0.28338  0.4989  1.0000
  C   C8        1.0  0.3805100000000001  0.051070000000000004  0.47727999999999987  1.0000
  C   C9        1.0  0.42973  0.48271  0.11144  1.0000
  C   C10       1.0  0.26866  0.4703  0.1457  1.0000
  C   C11       1.0  0.11509  0.47798  0.1113  1.0000
  C   C12       1.0  0.25013  0.43014  0.19661  1.0000
  C   C13       1.0  0.075  0.40743  0.22359  1.0000
  C   C14       1.0  0.40298000000000017  0.4081200000000001  0.22357999999999995  1.0000
  C   C15       1.0  0.49444  0.71665  0.9989699999999999  1.0000
  C   C16       1.0  0.61951  0.94895  0.9772799999999999  1.0000
  C   C17       1.0  0.053100000000000015  0.4839  0.8886599999999998  1.0000
  C   C18       1.0  0.20145  0.47185  0.8542499999999997  1.0000
  C   C19       1.0  0.36309000000000013  0.47939  0.88855  1.0000
  C   C20       1.0  0.17879  0.4316  0.8033799999999998  1.0000
  C   C21       1.0  0.3308000000000001  0.40888  0.7764099999999999  1.0000
  C   C22       1.0  0.0034300000000000047  0.4095500000000001  0.7764299999999997  1.0000
  C   C23       1.0  0.22287  0.71607  0.0012999999999999995  1.0000
  C   C24       1.0  0.32940000000000014  0.9480800000000001  0.02284  1.0000
  C   C25       1.0  0.9468300000000002  0.51599  0.3886099999999999  1.0000
  C   C26       1.0  0.79852  0.52807  0.35419999999999996  1.0000
  C   C27       1.0  0.63688  0.52058  0.38847999999999994  1.0000
  C   C28       1.0  0.82119  0.56835  0.30333  1.0000
  C   C29       1.0  0.6692  0.59109  0.27635  1.0000
  C   C30       1.0  0.9965400000000001  0.59042  0.27637  1.0000
  C   C31       1.0  0.77708  0.28398  0.50157  1.0000
  C   C32       1.0  0.6705800000000002  0.051910000000000005  0.52285  1.0000
  C   C33       1.0  0.42971000000000004  0.48267  0.3884999999999999  1.0000
  C   C34       1.0  0.26868  0.47031  0.35423  1.0000
  C   C35       1.0  0.11506000000000008  0.4779000000000001  0.38862999999999986  1.0000
  C   C36       1.0  0.2501400000000001  0.43013  0.30333  1.0000
  C   C37       1.0  0.07501  0.40741  0.27635  1.0000
  C   C38       1.0  0.4029800000000002  0.40810000000000013  0.27636  1.0000
  C   C39       1.0  0.4944100000000001  0.71662  0.5011  1.0000
  C   C40       1.0  0.6194800000000004  0.9489200000000001  0.52271  1.0000
  C   C41       1.0  0.57027  0.51728  0.8885599999999998  1.0000
  C   C42       1.0  0.7313400000000001  0.52969  0.8543  1.0000
  C   C43       1.0  0.8849000000000002  0.52201  0.8887  1.0000
  C   C44       1.0  0.74987  0.56986  0.80339  1.0000
  C   C45       1.0  0.9249900000000002  0.5925600000000001  0.7764099999999999  1.0000
  C   C46       1.0  0.59701  0.5918699999999999  0.7764199999999998  1.0000
  C   C47       1.0  0.50555  0.28335  0.00103  1.0000
  C   C48       1.0  0.3804800000000001  0.05105  0.02271  1.0000
  C   C49       1.0  0.94689  0.51609  0.11134  1.0000
  C   C50       1.0  0.7985500000000002  0.52815  0.14575  1.0000
  C   C51       1.0  0.6369000000000002  0.5206  0.11144999999999997  1.0000
  C   C52       1.0  0.8212100000000002  0.5684  0.19662  1.0000
  C   C53       1.0  0.6692  0.59111  0.22359  1.0000
  C   C54       1.0  0.99656  0.59044  0.22356999999999996  1.0000
  C   C55       1.0  0.77712  0.28393  0.9987  1.0000
  C   C56       1.0  0.67059  0.05192  0.9771599999999998  1.0000
  C   C57       1.0  0.05317  0.48401000000000005  0.6113899999999999  1.0000
  C   C58       1.0  0.20147000000000007  0.47192  0.6457999999999998  1.0000
  C   C59       1.0  0.3631200000000001  0.47942  0.61151  1.0000
  C   C60       1.0  0.17881  0.43165  0.6966699999999999  1.0000
  C   C61       1.0  0.3308000000000001  0.4089  0.72364  1.0000
  C   C62       1.0  0.0034500000000000455  0.40957000000000005  0.7236199999999999  1.0000
  C   C63       1.0  0.22291000000000005  0.71602  0.4984299999999999  1.0000
  C   C64       1.0  0.32942  0.94809  0.4771499999999999  1.0000
  C   C65       1.0  0.6051300000000002  0.21146  0.50018  1.0000
  C   C66       1.0  0.5516500000000002  0.10414  0.50011  1.0000
  C   C67       1.0  0.3948700000000002  0.7885600000000003  0.00014  1.0000
  C   C68       1.0  0.44838  0.89587  0.00010999999999999999  1.0000
  C   C69       1.0  0.39486  0.78853  0.4998199999999999  1.0000
  C   C70       1.0  0.4483400000000001  0.89586  0.49988  1.0000
  C   C71       1.0  0.6051300000000002  0.21144  0.9998599999999999  1.0000
  C   C72       1.0  0.5516300000000001  0.10413  0.99989  1.0000
  N   N1        1.0  0.6485400000000002  0.54048  0.56361  1.0000
  N   N2        1.0  0.8318700000000002  0.54195  0.56349  1.0000
  N   N3        1.0  0.59746  0.38063000000000013  0.50003  1.0000
  N   N4        1.0  0.3515  0.45968  0.06354  1.0000
  N   N5        1.0  0.16824000000000006  0.45825  0.06342  1.0000
  N   N6        1.0  0.4024900000000003  0.6194000000000001  0.99995  1.0000
  N   N7        1.0  0.10815  0.46051  0.93644  1.0000
  N   N8        1.0  0.29008000000000006  0.4593500000000001  0.9364299999999998  1.0000
  N   N9        1.0  0.21771000000000007  0.6191  0.00024999999999999995  1.0000
  N   N10       1.0  0.89175  0.53933  0.4363999999999999  1.0000
  N   N11       1.0  0.70987  0.54059  0.43636999999999987  1.0000
  N   N12       1.0  0.78225  0.38095  0.5006199999999998  1.0000
  N   N13       1.0  0.35145  0.45952  0.43639  1.0000
  N   N14       1.0  0.16812999999999997  0.45805  0.4365  1.0000
  N   N15       1.0  0.4025400000000002  0.61937  0.49997  1.0000
  N   N16       1.0  0.6485000000000002  0.54032  0.9364599999999997  1.0000
  N   N17       1.0  0.8317500000000002  0.54174  0.9365799999999999  1.0000
  N   N18       1.0  0.5975100000000002  0.3806  3.999999999999999e-05  1.0000
  N   N19       1.0  0.89184  0.53948  0.06355  1.0000
  N   N20       1.0  0.7099200000000002  0.54064  0.06357  1.0000
  N   N21       1.0  0.7822800000000002  0.3809  0.99975  1.0000
  N   N22       1.0  0.10825  0.46067  0.5636  1.0000
  N   N23       1.0  0.29013000000000017  0.45941000000000004  0.56363  1.0000
  N   N24       1.0  0.21774000000000004  0.61905  0.4993699999999999  1.0000
