data_image0
_chemical_formula_structural       Eu2H36C30S6N24O12
_chemical_formula_sum              "Eu2 H36 C30 S6 N24 O12"
_cell_length_a       8.4901
_cell_length_b       11.58579
_cell_length_c       14.560140000000002
_cell_angle_alpha    67.66267
_cell_angle_beta     79.03564
_cell_angle_gamma    77.78712

_symmetry_space_group_name_H-M    'P 1'
_symmetry_Int_Tables_number       1

loop_
  _symmetry_equiv_pos_as_xyz
  'x,y,z'

loop_
  _atom_site_type_symbol
  _atom_site_label
  _atom_site_symmetry_multiplicity
  _atom_site_fract_x
  _atom_site_fract_y
  _atom_site_fract_z
  _atom_site_occupancy
  Eu  Eu1       1.0  0.7662800000000001  0.9713699999999998  0.01187  1.0000
  Eu  Eu2       1.0  0.23591999999999996  0.03184999999999995  0.9863700000000002  1.0000
  H   H1        1.0  0.8464099999999999  0.39736  0.83311  1.0000
  H   H2        1.0  0.98127  0.3847199999999999  0.7243700000000001  1.0000
  H   H3        1.0  0.39031000000000005  0.37676999999999994  0.87175  1.0000
  H   H4        1.0  0.32885  0.50862  0.77624  1.0000
  H   H5        1.0  0.8423700000000002  0.9525299999999999  0.56113  1.0000
  H   H6        1.0  0.85107  0.09368000000000001  0.45591  1.0000
  H   H7        1.0  0.219  0.20721999999999988  0.47144000000000014  1.0000
  H   H8        1.0  0.3155  0.31160999999999994  0.37155  1.0000
  H   H9        1.0  0.8173500000000001  0.09894999999999997  0.30596  1.0000
  H   H10       1.0  0.76489  0.24812999999999996  0.21089  1.0000
  H   H11       1.0  0.16102  0.51093  0.4295900000000001  1.0000
  H   H12       1.0  0.12012000000000002  0.37785  0.53623  1.0000
  H   H13       1.0  0.61376  0.09640000000000001  0.60573  1.0000
  H   H14       1.0  0.5966900000000002  0.08391999999999997  0.72572  1.0000
  H   H15       1.0  0.4360100000000002  0.86507  0.80742  1.0000
  H   H16       1.0  0.6428400000000002  0.8778099999999998  0.75523  1.0000
  H   H17       1.0  0.05542000000000001  0.47974999999999995  0.89871  1.0000
  H   H18       1.0  0.10605  0.36909  0.014610000000000001  1.0000
  H   H19       1.0  0.15686999999999993  0.60283  0.16636  1.0000
  H   H20       1.0  0.01800000000000004  0.61901  0.27309  1.0000
  H   H21       1.0  0.61255  0.62431  0.12796  1.0000
  H   H22       1.0  0.67276  0.4918  0.22327  1.0000
  H   H23       1.0  0.15686999999999998  0.048550000000000024  0.43829  1.0000
  H   H24       1.0  0.14817000000000005  0.9073799999999996  0.5435  1.0000
  H   H25       1.0  0.7811900000000004  0.79349  0.52825  1.0000
  H   H26       1.0  0.6851200000000001  0.6895999999999998  0.62842  1.0000
  H   H27       1.0  0.18281999999999998  0.9032  0.6922  1.0000
  H   H28       1.0  0.23641000000000006  0.7548799999999997  0.7883400000000002  1.0000
  H   H29       1.0  0.8391700000000001  0.49016999999999994  0.57005  1.0000
  H   H30       1.0  0.8793700000000001  0.62294  0.46333  1.0000
  H   H31       1.0  0.38589999999999997  0.90514  0.39378  1.0000
  H   H32       1.0  0.40321000000000007  0.91706  0.27379  1.0000
  H   H33       1.0  0.5655  0.13732999999999995  0.19143  1.0000
  H   H34       1.0  0.35939000000000004  0.12418999999999997  0.24518  1.0000
  H   H35       1.0  0.94603  0.5212399999999998  0.10082  1.0000
  H   H36       1.0  0.89589  0.63236  0.9851500000000001  1.0000
  C   C1        1.0  0.90755  0.10002  0.15741  1.0000
  C   C2        1.0  0.86394  0.20486  0.68572  1.0000
  C   C3        1.0  0.01241000000000001  0.22747999999999996  0.86169  1.0000
  C   C4        1.0  0.9059600000000001  0.3344699999999999  0.7918100000000001  1.0000
  C   C5        1.0  0.91554  0.028380000000000013  0.51943  1.0000
  C   C6        1.0  0.97472  0.30983999999999995  0.3166  1.0000
  C   C7        1.0  0.86055  0.16704  0.2339  1.0000
  C   C8        1.0  0.9287600000000003  0.09646999999999997  0.58523  1.0000
  C   C9        1.0  0.9893999999999998  0.4112799999999999  0.41531  1.0000
  C   C10       1.0  0.06280000000000001  0.45825999999999995  0.47672  1.0000
  C   C11       1.0  0.56326  0.8310399999999998  0.82218  1.0000
  C   C12       1.0  0.5871099999999999  0.86943  0.90743  1.0000
  C   C13       1.0  0.4382600000000001  0.61714  0.91073  1.0000
  C   C14       1.0  0.2134300000000001  0.5358  0.96397  1.0000
  C   C15       1.0  0.07622000000000002  0.4712299999999998  0.9734300000000002  1.0000
  C   C16       1.0  0.09278000000000008  0.9022699999999996  0.84115  1.0000
  C   C17       1.0  0.13639999999999997  0.79594  0.31382  1.0000
  C   C18       1.0  0.99374  0.7742899999999998  0.13433  1.0000
  C   C19       1.0  0.09652000000000004  0.6670099999999999  0.2064  1.0000
  C   C20       1.0  0.0836800000000002  0.9727199999999995  0.47997  1.0000
  C   C21       1.0  0.02652999999999998  0.6910599999999999  0.6826800000000001  1.0000
  C   C22       1.0  0.14026000000000008  0.8353599999999997  0.76462  1.0000
  C   C23       1.0  0.07074000000000001  0.9047099999999999  0.4140400000000001  1.0000
  C   C24       1.0  0.011119999999999993  0.58979  0.58401  1.0000
  C   C25       1.0  0.9373000000000001  0.5428  0.52274  1.0000
  C   C26       1.0  0.43781  0.17093000000000003  0.17761  1.0000
  C   C27       1.0  0.41287000000000007  0.13117  0.09343  1.0000
  C   C28       1.0  0.56263  0.385  0.0882  1.0000
  C   C29       1.0  0.7878100000000001  0.46596999999999994  0.03506  1.0000
  C   C30       1.0  0.9253099999999999  0.53009  0.025990000000000003  1.0000
  S   S1        1.0  0.045010000000000015  0.21609999999999993  0.24317  1.0000
  S   S2        1.0  0.6134700000000001  0.6650999999999999  0.83639  1.0000
  S   S3        1.0  0.7423499999999998  0.28406999999999993  0.7604900000000001  1.0000
  S   S4        1.0  0.95655  0.78441  0.75638  1.0000
  S   S5        1.0  0.38762  0.33701  0.1629  1.0000
  S   S6        1.0  0.25899  0.7161199999999999  0.23981  1.0000
  N   N1        1.0  0.35350999999999994  0.53447  0.89946  1.0000
  N   N2        1.0  0.21471  0.61317  0.01246  1.0000
  N   N3        1.0  0.07800999999999998  0.32562  0.37251  1.0000
  N   N4        1.0  0.023719999999999995  0.19594999999999999  0.66049  1.0000
  N   N5        1.0  0.35523  0.66419  0.97963  1.0000
  N   N6        1.0  0.80004  0.14149999999999996  0.64196  1.0000
  N   N7        1.0  0.40422000000000013  0.4693699999999999  0.83232  1.0000
  N   N8        1.0  0.23039000000000004  0.2524199999999999  0.39438  1.0000
  N   N9        1.0  0.06341999999999998  0.12925  0.59566  1.0000
  N   N10       1.0  0.84182  0.4451499999999999  0.38804  1.0000
  N   N11       1.0  0.8324200000000002  0.38205  0.3245  1.0000
  N   N12       1.0  0.63287  0.13733999999999988  0.6526800000000001  1.0000
  N   N13       1.0  0.64784  0.4672299999999999  0.09966  1.0000
  N   N14       1.0  0.7859500000000003  0.3891199999999999  0.9862000000000001  1.0000
  N   N15       1.0  0.9228300000000002  0.6754099999999997  0.62692  1.0000
  N   N16       1.0  0.9765000000000001  0.805  0.33864  1.0000
  N   N17       1.0  0.64522  0.33829999999999993  0.019010000000000003  1.0000
  N   N18       1.0  0.19983  0.85956  0.35761  1.0000
  N   N19       1.0  0.59752  0.53187  0.16712  1.0000
  N   N20       1.0  0.7703499999999999  0.7487  0.60532  1.0000
  N   N21       1.0  0.9362699999999999  0.87191  0.40332  1.0000
  N   N22       1.0  0.15881999999999993  0.5557499999999999  0.6111400000000001  1.0000
  N   N23       1.0  0.16868999999999998  0.6187199999999999  0.6746600000000001  1.0000
  N   N24       1.0  0.36693  0.8639399999999999  0.34697  1.0000
  O   O1        1.0  0.79495  0.05791999999999999  0.13997  1.0000
  O   O2        1.0  0.952  0.13100999999999996  0.92453  1.0000
  O   O3        1.0  0.15856999999999996  0.23999999999999996  0.85729  1.0000
  O   O4        1.0  0.055890000000000016  0.0918  0.12087000000000002  1.0000
  O   O5        1.0  0.6513  0.7934399999999999  0.98283  1.0000
  O   O6        1.0  0.5398500000000002  0.9885099999999996  0.8930500000000001  1.0000
  O   O7        1.0  0.20554000000000003  0.9433699999999999  0.8591800000000002  1.0000
  O   O8        1.0  0.05502000000000004  0.87136  0.07398  1.0000
  O   O9        1.0  0.8490299999999998  0.76116  0.13524  1.0000
  O   O10       1.0  0.94428  0.91031  0.87766  1.0000
  O   O11       1.0  0.34845  0.20656999999999998  0.01772  1.0000
  O   O12       1.0  0.46013  0.012049999999999996  0.10875  1.0000
