data_image0
_chemical_formula_structural       Li14H36C48O34
_chemical_formula_sum              "Li14 H36 C48 O34"
_cell_length_a       9.55156
_cell_length_b       10.12715
_cell_length_c       17.40641
_cell_angle_alpha    90.0
_cell_angle_beta     90.0
_cell_angle_gamma    105.46540999999999

_symmetry_space_group_name_H-M    'P 1'
_symmetry_Int_Tables_number       1

loop_
  _symmetry_equiv_pos_as_xyz
  'x,y,z'

loop_
  _atom_site_type_symbol
  _atom_site_label
  _atom_site_symmetry_multiplicity
  _atom_site_fract_x
  _atom_site_fract_y
  _atom_site_fract_z
  _atom_site_occupancy
  Li  Li1       1.0  0.77714  0.9137799999999999  0.74152  1.0000
  Li  Li2       1.0  0.8723  0.79922  0.86196  1.0000
  Li  Li3       1.0  0.9745  0.55295  0.58647  1.0000
  Li  Li4       1.0  0.97557  0.05369999999999999  0.52733  1.0000
  Li  Li5       1.0  0.14033  0.33145  0.59541  1.0000
  Li  Li6       1.0  0.14061  0.83515  0.5188  1.0000
  Li  Li7       1.0  0.10786  0.64433  0.77088  1.0000
  Li  Li8       1.0  0.22286  0.08622  0.24152  1.0000
  Li  Li9       1.0  0.1277  0.20078  0.36196  1.0000
  Li  Li10      1.0  0.02548999999999998  0.44704999999999995  0.08647  1.0000
  Li  Li11      1.0  0.024430000000000014  0.9463  0.02733  1.0000
  Li  Li12      1.0  0.8596700000000002  0.66855  0.09541  1.0000
  Li  Li13      1.0  0.85939  0.16484999999999997  0.0188  1.0000
  Li  Li14      1.0  0.89213  0.35567  0.27088  1.0000
  H   H1        1.0  0.8276700000000002  0.56076  0.92855  1.0000
  H   H2        1.0  0.7345  0.65352  0.95728  1.0000
  H   H3        1.0  0.70077  0.48888000000000004  0.65482  1.0000
  H   H4        1.0  0.69199  0.58386  0.54029  1.0000
  H   H5        1.0  0.55765  0.76748  0.52215  1.0000
  H   H6        1.0  0.43133000000000005  0.51687  0.53682  1.0000
  H   H7        1.0  0.45262  0.41365  0.64855  1.0000
  H   H8        1.0  0.56508  0.55762  0.76675  1.0000
  H   H9        1.0  0.53973  0.79443  0.76732  1.0000
  H   H10       1.0  0.53614  0.9092600000000001  0.63652  1.0000
  H   H11       1.0  0.55005  0.08261  0.95445  1.0000
  H   H12       1.0  0.57917  0.99278  0.06723  1.0000
  H   H13       1.0  0.44296  0.7454  0.09212  1.0000
  H   H14       1.0  0.31004000000000004  0.9299  0.07153  1.0000
  H   H15       1.0  0.30436  0.01977  0.9554899999999998  1.0000
  H   H16       1.0  0.42407999999999996  0.93307  0.84201  1.0000
  H   H17       1.0  0.41579  0.68479  0.8484  1.0000
  H   H18       1.0  0.42663  0.58517  0.98186  1.0000
  H   H19       1.0  0.17233  0.43923999999999996  0.42855  1.0000
  H   H20       1.0  0.2655  0.34649  0.45728  1.0000
  H   H21       1.0  0.29923  0.51113  0.15482  1.0000
  H   H22       1.0  0.30801  0.41614  0.04029  1.0000
  H   H23       1.0  0.44234  0.23252  0.02215  1.0000
  H   H24       1.0  0.56867  0.48314  0.03682  1.0000
  H   H25       1.0  0.54738  0.58635  0.14855  1.0000
  H   H26       1.0  0.43491  0.44237999999999994  0.26675  1.0000
  H   H27       1.0  0.46026  0.20557  0.26732  1.0000
  H   H28       1.0  0.46386  0.09074  0.13652  1.0000
  H   H29       1.0  0.44995  0.91739  0.45444  1.0000
  H   H30       1.0  0.42083000000000004  0.0072299999999999994  0.56723  1.0000
  H   H31       1.0  0.55704  0.2546  0.59212  1.0000
  H   H32       1.0  0.68995  0.0701  0.57153  1.0000
  H   H33       1.0  0.6956400000000001  0.98023  0.45549  1.0000
  H   H34       1.0  0.5759200000000001  0.06693  0.34201  1.0000
  H   H35       1.0  0.5842000000000002  0.31521  0.3484  1.0000
  H   H36       1.0  0.57337  0.41483  0.48186  1.0000
  C   C1        1.0  0.70256  0.59636  0.6644  1.0000
  C   C2        1.0  0.69722  0.66416  0.58342  1.0000
  C   C3        1.0  0.55906  0.71623  0.57739  1.0000
  C   C4        1.0  0.42555000000000004  0.58905  0.58313  1.0000
  C   C5        1.0  0.43343  0.51348  0.66142  1.0000
  C   C6        1.0  0.5635  0.60145  0.7092  1.0000
  C   C7        1.0  0.84346  0.65813  0.70836  1.0000
  C   C8        1.0  0.83611  0.77554  0.56552  1.0000
  C   C9        1.0  0.28257  0.62755  0.56902  1.0000
  C   C10       1.0  0.29249  0.48664999999999997  0.70722  1.0000
  C   C11       1.0  0.5503200000000001  0.74609  0.7128  1.0000
  C   C12       1.0  0.55059  0.8072  0.64394  1.0000
  C   C13       1.0  0.56655  0.9811599999999999  0.9431199999999998  1.0000
  C   C14       1.0  0.57583  0.9128599999999999  0.02399  1.0000
  C   C15       1.0  0.43903  0.79213  0.03572  1.0000
  C   C16       1.0  0.30184  0.8462  0.03013  1.0000
  C   C17       1.0  0.2961500000000001  0.91041  0.94765  1.0000
  C   C18       1.0  0.42911  0.8934  0.90023  1.0000
  C   C19       1.0  0.7088100000000002  0.01136  0.89612  1.0000
  C   C20       1.0  0.7153800000000001  0.86939  0.0365  1.0000
  C   C21       1.0  0.16530000000000003  0.73414  0.05303  1.0000
  C   C22       1.0  0.15317  0.85033  0.90442  1.0000
  C   C23       1.0  0.42595000000000005  0.74526  0.90057  1.0000
  C   C24       1.0  0.43091  0.69181  0.9719000000000001  1.0000
  C   C25       1.0  0.29744  0.40364  0.1644  1.0000
  C   C26       1.0  0.30277  0.33584  0.08342  1.0000
  C   C27       1.0  0.44093  0.28377  0.07739  1.0000
  C   C28       1.0  0.57445  0.41095  0.08313  1.0000
  C   C29       1.0  0.56657  0.48651999999999995  0.16142  1.0000
  C   C30       1.0  0.4365  0.39856  0.2092  1.0000
  C   C31       1.0  0.15654  0.34187  0.20836  1.0000
  C   C32       1.0  0.16389  0.22445999999999997  0.06552  1.0000
  C   C33       1.0  0.71743  0.37245  0.06902  1.0000
  C   C34       1.0  0.7075100000000001  0.51335  0.20722  1.0000
  C   C35       1.0  0.44968  0.25392  0.2128  1.0000
  C   C36       1.0  0.44941  0.19281  0.14394  1.0000
  C   C37       1.0  0.43343999999999994  0.01884  0.44312  1.0000
  C   C38       1.0  0.42416  0.08713999999999998  0.52399  1.0000
  C   C39       1.0  0.56097  0.20786999999999997  0.53572  1.0000
  C   C40       1.0  0.69815  0.1538  0.53013  1.0000
  C   C41       1.0  0.70385  0.0896  0.44765  1.0000
  C   C42       1.0  0.57089  0.10661000000000001  0.40023  1.0000
  C   C43       1.0  0.29119  0.98864  0.39612  1.0000
  C   C44       1.0  0.28461  0.13061  0.5365  1.0000
  C   C45       1.0  0.83469  0.26586  0.55303  1.0000
  C   C46       1.0  0.84683  0.14967  0.40442  1.0000
  C   C47       1.0  0.5740499999999998  0.25474  0.40057  1.0000
  C   C48       1.0  0.56909  0.30819  0.47189999999999993  1.0000
  O   O1        1.0  0.8554800000000001  0.76513  0.74984  1.0000
  O   O2        1.0  0.94496  0.59953  0.70102  1.0000
  O   O3        1.0  0.94726  0.73294  0.54893  1.0000
  O   O4        1.0  0.83371  0.8998699999999998  0.56867  1.0000
  O   O5        1.0  0.16701  0.52666  0.56438  1.0000
  O   O6        1.0  0.28492  0.75165  0.56051  1.0000
  O   O7        1.0  0.27101  0.586  0.7462  1.0000
  O   O8        1.0  0.20204  0.36956  0.70388  1.0000
  O   O9        1.0  0.72807  0.9204100000000001  0.84822  1.0000
  O   O10       1.0  0.79843  0.12498999999999999  0.90859  1.0000
  O   O11       1.0  0.8321  0.9657299999999999  0.04209  1.0000
  O   O12       1.0  0.70936  0.74207  0.04192  1.0000
  O   O13       1.0  0.17369  0.61247  0.06046000000000001  1.0000
  O   O14       1.0  0.049950000000000015  0.77329  0.06524  1.0000
  O   O15       1.0  0.14527000000000007  0.75053  0.85944  1.0000
  O   O16       1.0  0.04865999999999997  0.9045899999999999  0.9168  1.0000
  O   O17       1.0  0.77066  0.62064  0.90955  1.0000
  O   O18       1.0  0.14452  0.23486999999999997  0.24984  1.0000
  O   O19       1.0  0.05504  0.40047  0.20102  1.0000
  O   O20       1.0  0.05274000000000001  0.26707  0.04893  1.0000
  O   O21       1.0  0.16629  0.10013  0.06867  1.0000
  O   O22       1.0  0.83298  0.47334000000000004  0.06438  1.0000
  O   O23       1.0  0.71508  0.24836  0.06051000000000001  1.0000
  O   O24       1.0  0.72899  0.414  0.2462  1.0000
  O   O25       1.0  0.79795  0.63044  0.20388  1.0000
  O   O26       1.0  0.27193  0.07959  0.34822  1.0000
  O   O27       1.0  0.20156  0.87501  0.40859  1.0000
  O   O28       1.0  0.1679  0.03427  0.54209  1.0000
  O   O29       1.0  0.29063  0.25793  0.54192  1.0000
  O   O30       1.0  0.8263100000000001  0.38753  0.56046  1.0000
  O   O31       1.0  0.95005  0.22671  0.56524  1.0000
  O   O32       1.0  0.85473  0.24946999999999997  0.35944  1.0000
  O   O33       1.0  0.9513400000000001  0.09541  0.4168  1.0000
  O   O34       1.0  0.22934  0.37937  0.40955  1.0000
