data_image0
_chemical_formula_structural       Eu2H54C60N6O12
_chemical_formula_sum              "Eu2 H54 C60 N6 O12"
_cell_length_a       9.62273
_cell_length_b       12.38706
_cell_length_c       19.06739
_cell_angle_alpha    106.26946
_cell_angle_beta     99.54115
_cell_angle_gamma    101.20923

_symmetry_space_group_name_H-M    'P 1'
_symmetry_Int_Tables_number       1

loop_
  _symmetry_equiv_pos_as_xyz
  'x,y,z'

loop_
  _atom_site_type_symbol
  _atom_site_label
  _atom_site_symmetry_multiplicity
  _atom_site_fract_x
  _atom_site_fract_y
  _atom_site_fract_z
  _atom_site_occupancy
  Eu  Eu1       1.0  0.21308000000000002  0.014800000000000004  0.00681  1.0000
  Eu  Eu2       1.0  0.78722  0.98451  0.9938700000000001  1.0000
  H   H1        1.0  0.33505  0.07829  0.18763  1.0000
  H   H2        1.0  0.7859999999999999  0.07251999999999999  0.2463  1.0000
  H   H3        1.0  0.78158  0.14495000000000005  0.3815400000000001  1.0000
  H   H4        1.0  0.13379  0.8065600000000002  0.83022  1.0000
  H   H5        1.0  0.7829000000000002  0.14784  0.66005  1.0000
  H   H6        1.0  0.34211  0.15200000000000002  0.32485  1.0000
  H   H7        1.0  0.7690600000000001  0.12721000000000002  0.7868000000000002  1.0000
  H   H8        1.0  0.66988  0.65387  0.75065  1.0000
  H   H9        1.0  0.22023000000000004  0.12033000000000008  0.82467  1.0000
  H   H10       1.0  0.15946000000000007  0.33674000000000015  0.6775900000000002  1.0000
  H   H11       1.0  0.10561000000000012  0.4672600000000002  0.7001100000000002  1.0000
  H   H12       1.0  0.2032  0.43692  0.62914  1.0000
  H   H13       1.0  0.11996  0.17457  0.59608  1.0000
  H   H14       1.0  0.96782  0.05413999999999998  0.5569  1.0000
  H   H15       1.0  0.16745000000000002  0.6827400000000001  0.70923  1.0000
  H   H16       1.0  0.08618000000000008  0.5581500000000001  0.5990200000000001  1.0000
  H   H17       1.0  0.9306  0.5814900000000001  0.55035  1.0000
  H   H18       1.0  0.71668  0.5335200000000001  0.6304700000000001  1.0000
  H   H19       1.0  0.22013  0.13110999999999998  0.69424  1.0000
  H   H20       1.0  0.5775500000000001  0.43513000000000013  0.49875  1.0000
  H   H21       1.0  0.64753  0.39616000000000007  0.41789  1.0000
  H   H22       1.0  0.74078  0.5234300000000001  0.49417000000000005  1.0000
  H   H23       1.0  0.48816000000000004  0.25153000000000003  0.4447400000000001  1.0000
  H   H24       1.0  0.49314  0.11364000000000005  0.45058000000000004  1.0000
  H   H25       1.0  0.77932  0.99505  0.45399  1.0000
  H   H26       1.0  0.60487  0.010120000000000016  0.46328  1.0000
  H   H27       1.0  0.72959  0.0032400000000000055  0.54042  1.0000
  H   H28       1.0  0.66773  0.9237000000000002  0.81159  1.0000
  H   H29       1.0  0.21558000000000008  0.9261200000000003  0.7534800000000001  1.0000
  H   H30       1.0  0.22035000000000007  0.85506  0.6177800000000001  1.0000
  H   H31       1.0  0.86631  0.19367  0.16943  1.0000
  H   H32       1.0  0.21729  0.8504000000000003  0.33775  1.0000
  H   H33       1.0  0.65946  0.85031  0.67405  1.0000
  H   H34       1.0  0.23066000000000006  0.8692900000000002  0.21057  1.0000
  H   H35       1.0  0.33079  0.3445600000000001  0.24976  1.0000
  H   H36       1.0  0.77874  0.87463  0.17227000000000003  1.0000
  H   H37       1.0  0.8414500000000001  0.6633400000000002  0.32073  1.0000
  H   H38       1.0  0.8949  0.53246  0.29913000000000006  1.0000
  H   H39       1.0  0.7966800000000002  0.5640300000000001  0.36966  1.0000
  H   H40       1.0  0.8808500000000001  0.8265500000000001  0.40245  1.0000
  H   H41       1.0  0.033510000000000095  0.9467  0.4406900000000001  1.0000
  H   H42       1.0  0.83231  0.31751000000000007  0.28996  1.0000
  H   H43       1.0  0.9138299999999999  0.44251  0.40035  1.0000
  H   H44       1.0  0.06915000000000003  0.41932000000000014  0.44933  1.0000
  H   H45       1.0  0.28413  0.46544  0.3693100000000001  1.0000
  H   H46       1.0  0.7798100000000001  0.8660900000000002  0.30317  1.0000
  H   H47       1.0  0.42372000000000004  0.56756  0.50217  1.0000
  H   H48       1.0  0.34945  0.60358  0.58176  1.0000
  H   H49       1.0  0.25992  0.47701  0.50419  1.0000
  H   H50       1.0  0.51215  0.74888  0.55401  1.0000
  H   H51       1.0  0.50753  0.8871500000000001  0.54857  1.0000
  H   H52       1.0  0.22121  0.006500000000000002  0.54364  1.0000
  H   H53       1.0  0.3957900000000001  0.9905700000000001  0.5354500000000001  1.0000
  H   H54       1.0  0.27255999999999997  0.99659  0.45748000000000005  1.0000
  C   C1        1.0  0.9174399999999999  0.21992000000000006  0.56989  1.0000
  C   C2        1.0  0.8736700000000001  0.8121000000000002  0.8712  1.0000
  C   C3        1.0  0.56067  0.06993999999999999  0.2055  1.0000
  C   C4        1.0  0.89949  0.41163  0.56541  1.0000
  C   C5        1.0  0.7016799999999999  0.24029000000000003  0.49279  1.0000
  C   C6        1.0  0.43416000000000005  0.09153  0.22937000000000002  1.0000
  C   C7        1.0  0.76317  0.36149000000000014  0.5137600000000001  1.0000
  C   C8        1.0  0.9755599999999998  0.34117  0.59499  1.0000
  C   C9        1.0  0.68661  0.08825  0.26223  1.0000
  C   C10       1.0  0.56368  0.03265  0.12429000000000001  1.0000
  C   C11       1.0  0.68625  0.12754999999999997  0.33689  1.0000
  C   C12       1.0  0.04006999999999998  0.74545  0.78773  1.0000
  C   C13       1.0  0.8982800000000002  0.7384000000000003  0.8005500000000001  1.0000
  C   C14       1.0  0.8741599999999999  0.13862000000000013  0.6977100000000002  1.0000
  C   C15       1.0  0.43575  0.13162  0.30432  1.0000
  C   C16       1.0  0.8694099999999999  0.12956000000000006  0.7673700000000001  1.0000
  C   C17       1.0  0.7798800000000002  0.6605900000000001  0.74205  1.0000
  C   C18       1.0  0.12333000000000009  0.12579000000000015  0.7884600000000002  1.0000
  C   C19       1.0  0.9951499999999999  0.12478000000000007  0.8157  1.0000
  C   C20       1.0  0.77909  0.16877  0.51958  1.0000
  C   C21       1.0  0.11805  0.39744000000000007  0.65305  1.0000
  C   C22       1.0  0.005160000000000043  0.14360000000000006  0.5961600000000001  1.0000
  C   C23       1.0  0.06084000000000012  0.6790900000000003  0.7215000000000001  1.0000
  C   C24       1.0  0.96791  0.54136  0.59207  1.0000
  C   C25       1.0  0.8031  0.59535  0.6761100000000001  1.0000
  C   C26       1.0  0.12511000000000005  0.13216000000000008  0.71796  1.0000
  C   C27       1.0  0.9937900000000001  0.11555000000000001  0.89217  1.0000
  C   C28       1.0  0.6790600000000001  0.43304000000000004  0.47954  1.0000
  C   C29       1.0  0.55457  0.18828999999999999  0.43844000000000005  1.0000
  C   C30       1.0  0.71962  0.03806000000000001  0.49329000000000006  1.0000
  C   C31       1.0  0.08282  0.78068  0.42896  1.0000
  C   C32       1.0  0.12592  0.18666  0.12889  1.0000
  C   C33       1.0  0.44109000000000004  0.92985  0.79392  1.0000
  C   C34       1.0  0.1003700000000001  0.5889600000000003  0.43381  1.0000
  C   C35       1.0  0.29867999999999995  0.76058  0.5063  1.0000
  C   C36       1.0  0.56789  0.9093800000000001  0.76999  1.0000
  C   C37       1.0  0.23682999999999996  0.6393099999999999  0.48553  1.0000
  C   C38       1.0  0.024620000000000013  0.65931  0.40399000000000007  1.0000
  C   C39       1.0  0.31493999999999994  0.91104  0.73727  1.0000
  C   C40       1.0  0.43699000000000005  0.9667900000000003  0.8754  1.0000
  C   C41       1.0  0.31532  0.8722700000000001  0.66253  1.0000
  C   C42       1.0  0.9600699999999999  0.25463  0.21190000000000003  1.0000
  C   C43       1.0  0.10198000000000002  0.26089000000000007  0.19910000000000005  1.0000
  C   C44       1.0  0.12598  0.8593000000000001  0.2999500000000001  1.0000
  C   C45       1.0  0.56577  0.8697  0.69483  1.0000
  C   C46       1.0  0.13034000000000004  0.86723  0.23001000000000002  1.0000
  C   C47       1.0  0.22053000000000003  0.33837000000000006  0.2579  1.0000
  C   C48       1.0  0.87606  0.8700100000000001  0.20859  1.0000
  C   C49       1.0  0.004380000000000032  0.8714  0.18146000000000007  1.0000
  C   C50       1.0  0.22141999999999998  0.8319300000000001  0.47930000000000006  1.0000
  C   C51       1.0  0.8823200000000001  0.60291  0.34576  1.0000
  C   C52       1.0  0.99566  0.85678  0.40209  1.0000
  C   C53       1.0  0.93904  0.3212100000000001  0.2778800000000001  1.0000
  C   C54       1.0  0.03213000000000005  0.45914000000000005  0.40727000000000013  1.0000
  C   C55       1.0  0.19746000000000002  0.40395000000000003  0.3236700000000001  1.0000
  C   C56       1.0  0.8747600000000001  0.86491  0.27941  1.0000
  C   C57       1.0  0.005770000000000061  0.8796000000000003  0.1048  1.0000
  C   C58       1.0  0.32064  0.56791  0.52003  1.0000
  C   C59       1.0  0.4460799999999999  0.81236  0.5605100000000002  1.0000
  C   C60       1.0  0.2813100000000001  0.9625600000000002  0.50501  1.0000
  N   N1        1.0  0.002120000000000012  0.14232  0.67277  1.0000
  N   N2        1.0  0.9435600000000001  0.6026200000000002  0.66504  1.0000
  N   N3        1.0  0.56249  0.15201000000000006  0.3591000000000001  1.0000
  N   N4        1.0  0.9983399999999999  0.85654  0.32515  1.0000
  N   N5        1.0  0.056550000000000045  0.39809000000000017  0.3345500000000001  1.0000
  N   N6        1.0  0.43908  0.84896  0.64025  1.0000
  O   O1        1.0  0.44398  0.005179999999999998  0.07623  1.0000
  O   O2        1.0  0.68899  0.03179000000000002  0.11015000000000003  1.0000
  O   O3        1.0  0.7429200000000002  0.80428  0.8781300000000002  1.0000
  O   O4        1.0  0.9853199999999999  0.88282  0.9204400000000001  1.0000
  O   O5        1.0  0.86887  0.08974000000000003  0.90633  1.0000
  O   O6        1.0  0.11790000000000009  0.1326500000000001  0.9346200000000001  1.0000
  O   O7        1.0  0.5564299999999999  0.9954499999999998  0.9235999999999999  1.0000
  O   O8        1.0  0.3112900000000001  0.9663800000000002  0.8890200000000003  1.0000
  O   O9        1.0  0.25657  0.19293  0.1217  1.0000
  O   O10       1.0  0.01407000000000001  0.1162  0.07931  1.0000
  O   O11       1.0  0.13067999999999994  0.90456  0.09043000000000002  1.0000
  O   O12       1.0  0.8818500000000001  0.8624500000000002  0.06206  1.0000
