data_image0
_chemical_formula_structural       Y8H24C72O48
_chemical_formula_sum              "Y8 H24 C72 O48"
_cell_length_a       11.52389
_cell_length_b       11.55876
_cell_length_c       17.89698
_cell_angle_alpha    113.68458
_cell_angle_beta     112.88607
_cell_angle_gamma    76.87116

_symmetry_space_group_name_H-M    'P 1'
_symmetry_Int_Tables_number       1

loop_
  _symmetry_equiv_pos_as_xyz
  'x,y,z'

loop_
  _atom_site_type_symbol
  _atom_site_label
  _atom_site_symmetry_multiplicity
  _atom_site_fract_x
  _atom_site_fract_y
  _atom_site_fract_z
  _atom_site_occupancy
  Y   Y1        1.0  0.8480200000000002  0.8511300000000003  0.19839000000000007  1.0000
  Y   Y2        1.0  0.35069  0.34808  0.19756  1.0000
  Y   Y3        1.0  0.10320000000000011  0.5964400000000001  0.6984800000000002  1.0000
  Y   Y4        1.0  0.5966200000000002  0.10296000000000008  0.6976500000000002  1.0000
  Y   Y5        1.0  0.009039999999999998  0.01328  0.02126  1.0000
  Y   Y6        1.0  0.26200000000000007  0.76089  0.5213  1.0000
  Y   Y7        1.0  0.76008  0.26452  0.52295  1.0000
  Y   Y8        1.0  0.5102799999999998  0.51324  0.02302  1.0000
  H   H1        1.0  0.9241900000000001  0.15533000000000002  0.21882000000000004  1.0000
  H   H2        1.0  0.18969000000000003  0.4413700000000001  0.35892000000000013  1.0000
  H   H3        1.0  0.039450000000000054  0.31688  0.4972300000000001  1.0000
  H   H4        1.0  0.8994599999999999  0.17964  0.72133  1.0000
  H   H5        1.0  0.19091999999999998  0.43905  0.8602  1.0000
  H   H6        1.0  0.06571000000000006  0.29040000000000005  0.9989100000000001  1.0000
  H   H7        1.0  0.2922  0.07351000000000003  0.22038  1.0000
  H   H8        1.0  0.17022000000000004  0.92144  0.35905  1.0000
  H   H9        1.0  0.46125  0.18087000000000003  0.49748  1.0000
  H   H10       1.0  0.8211  0.5455500000000002  0.7234600000000002  1.0000
  H   H11       1.0  0.6699500000000002  0.4219500000000002  0.8618800000000002  1.0000
  H   H12       1.0  0.93529  0.70813  0.0018400000000000005  1.0000
  H   H13       1.0  0.40247  0.6763400000000002  0.7199300000000001  1.0000
  H   H14       1.0  0.6871800000000001  0.9430900000000002  0.8594500000000003  1.0000
  H   H15       1.0  0.5694000000000001  0.7862700000000002  0.9973200000000002  1.0000
  H   H16       1.0  0.42688  0.6536300000000002  0.22160000000000005  1.0000
  H   H17       1.0  0.68743  0.94399  0.3595200000000001  1.0000
  H   H18       1.0  0.54483  0.8158000000000001  0.50012  1.0000
  H   H19       1.0  0.31798000000000004  0.045480000000000124  0.7201200000000002  1.0000
  H   H20       1.0  0.17223000000000008  0.9194500000000003  0.8601100000000003  1.0000
  H   H21       1.0  0.43171000000000004  0.21089000000000005  0.9983000000000001  1.0000
  H   H22       1.0  0.79099  0.57516  0.22302000000000005  1.0000
  H   H23       1.0  0.67182  0.4214800000000001  0.3619600000000001  1.0000
  H   H24       1.0  0.9606  0.68414  0.50025  1.0000
  C   C1        1.0  0.97244  0.2273  0.35807  1.0000
  C   C2        1.0  0.97994  0.22004000000000004  0.28003  1.0000
  C   C3        1.0  0.05988000000000006  0.29541000000000006  0.2803700000000001  1.0000
  C   C4        1.0  0.12910000000000002  0.38137  0.3587300000000001  1.0000
  C   C5        1.0  0.12060999999999998  0.39023000000000013  0.43679  1.0000
  C   C6        1.0  0.044010000000000014  0.31152000000000013  0.4363400000000001  1.0000
  C   C7        1.0  0.8885899999999995  0.14593  0.35822  1.0000
  C   C8        1.0  0.07829000000000004  0.27779  0.19806000000000007  1.0000
  C   C9        1.0  0.18564999999999998  0.48968  0.51964  1.0000
  C   C10       1.0  0.9735399999999998  0.22612000000000013  0.8600700000000002  1.0000
  C   C11       1.0  0.96581  0.23398000000000005  0.7821200000000003  1.0000
  C   C12       1.0  0.04268999999999993  0.31198  0.78206  1.0000
  C   C13       1.0  0.13007000000000007  0.37949000000000016  0.8601300000000002  1.0000
  C   C14       1.0  0.1393600000000001  0.3708600000000002  0.9381400000000002  1.0000
  C   C15       1.0  0.05989000000000006  0.29534000000000016  0.9380700000000002  1.0000
  C   C16       1.0  0.88928  0.1446100000000001  0.8598400000000003  1.0000
  C   C17       1.0  0.025390000000000117  0.33071000000000017  0.7001500000000003  1.0000
  C   C18       1.0  0.24003  0.43471  0.02015  1.0000
  C   C19       1.0  0.38576  0.13591  0.35891  1.0000
  C   C20       1.0  0.29863  0.06746  0.28102  1.0000
  C   C21       1.0  0.21946999999999997  0.9916500000000001  0.2810400000000001  1.0000
  C   C22       1.0  0.2305  0.9814300000000002  0.3589700000000001  1.0000
  C   C23       1.0  0.31847  0.04846  0.43681  1.0000
  C   C24       1.0  0.39460000000000006  0.12703000000000006  0.4367000000000001  1.0000
  C   C25       1.0  0.46910000000000013  0.21839000000000008  0.3594100000000001  1.0000
  C   C26       1.0  0.11754999999999999  0.92834  0.19953  1.0000
  C   C27       1.0  0.33756  0.029940000000000033  0.51904  1.0000
  C   C28       1.0  0.8876700000000001  0.6353000000000001  0.8626100000000002  1.0000
  C   C29       1.0  0.8161899999999999  0.5510300000000002  0.7843100000000002  1.0000
  C   C30       1.0  0.73897  0.4729100000000002  0.7838300000000002  1.0000
  C   C31       1.0  0.73064  0.48180000000000023  0.8620100000000003  1.0000
  C   C32       1.0  0.8001199999999999  0.5675500000000002  0.9404600000000002  1.0000
  C   C33       1.0  0.87995  0.6429500000000002  0.9406900000000002  1.0000
  C   C34       1.0  0.9714599999999999  0.71641  0.86211  1.0000
  C   C35       1.0  0.6731600000000001  0.37405  0.70081  1.0000
  C   C36       1.0  0.7817700000000001  0.58523  0.022880000000000008  1.0000
  C   C37       1.0  0.4767700000000002  0.72249  0.8586200000000003  1.0000
  C   C38       1.0  0.46765000000000007  0.7318100000000002  0.7808500000000003  1.0000
  C   C39       1.0  0.5418500000000002  0.81277  0.7811600000000001  1.0000
  C   C40       1.0  0.6284300000000002  0.8812600000000003  0.8592200000000002  1.0000
  C   C41       1.0  0.6398900000000001  0.8701900000000001  0.9369100000000002  1.0000
  C   C42       1.0  0.5623600000000003  0.7925100000000002  0.9366100000000003  1.0000
  C   C43       1.0  0.39574000000000004  0.6379900000000002  0.8584100000000002  1.0000
  C   C44       1.0  0.52235  0.8327700000000002  0.6993500000000002  1.0000
  C   C45       1.0  0.7406299999999999  0.93383  0.018850000000000002  1.0000
  C   C46       1.0  0.47735000000000005  0.72555  0.3608600000000001  1.0000
  C   C47       1.0  0.48254  0.7192100000000001  0.28235  1.0000
  C   C48       1.0  0.56007  0.79605  0.28184  1.0000
  C   C49       1.0  0.62865  0.88288  0.3599400000000001  1.0000
  C   C50       1.0  0.6221  0.8914800000000002  0.4385400000000001  1.0000
  C   C51       1.0  0.54796  0.8111300000000001  0.4389500000000001  1.0000
  C   C52       1.0  0.39643999999999996  0.6410200000000001  0.3608900000000001  1.0000
  C   C53       1.0  0.5778  0.77904  0.19943000000000005  1.0000
  C   C54       1.0  0.6866  0.99272  0.5205500000000002  1.0000
  C   C55       1.0  0.38378000000000007  0.1371400000000002  0.8592500000000002  1.0000
  C   C56       1.0  0.31393  0.05093999999999994  0.78121  1.0000
  C   C57       1.0  0.23962999999999998  0.9706  0.78151  1.0000
  C   C58       1.0  0.23130000000000014  0.9804500000000002  0.8598500000000002  1.0000
  C   C59       1.0  0.29892000000000013  0.06814000000000006  0.9378500000000002  1.0000
  C   C60       1.0  0.37697  0.14462  0.93754  1.0000
  C   C61       1.0  0.46575000000000005  0.22114000000000014  0.8598100000000002  1.0000
  C   C62       1.0  0.17640000000000006  0.8685000000000002  0.6996500000000002  1.0000
  C   C63       1.0  0.28065  0.08598  0.0202  1.0000
  C   C64       1.0  0.88466  0.6388400000000001  0.3616600000000001  1.0000
  C   C65       1.0  0.79814  0.56934  0.28388  1.0000
  C   C66       1.0  0.7202199999999997  0.4921600000000001  0.2838100000000001  1.0000
  C   C67       1.0  0.73133  0.48226000000000013  0.3618600000000001  1.0000
  C   C68       1.0  0.81872  0.5503900000000002  0.4397500000000001  1.0000
  C   C69       1.0  0.8941100000000001  0.62977  0.4395600000000001  1.0000
  C   C70       1.0  0.9666100000000002  0.72236  0.36161  1.0000
  C   C71       1.0  0.6197599999999998  0.42767  0.20158  1.0000
  C   C72       1.0  0.83825  0.5315300000000001  0.5219700000000003  1.0000
  O   O1        1.0  0.85699  0.1774700000000001  0.42487000000000014  1.0000
  O   O2        1.0  0.85213  0.04815000000000007  0.2917200000000001  1.0000
  O   O3        1.0  0.011959999999999997  0.20080000000000003  0.12765  1.0000
  O   O4        1.0  0.1618  0.33766000000000007  0.20208000000000007  1.0000
  O   O5        1.0  0.24040000000000009  0.5702100000000001  0.5159000000000002  1.0000
  O   O6        1.0  0.18066000000000015  0.4914800000000001  0.5899500000000002  1.0000
  O   O7        1.0  0.9206700000000001  0.10878000000000015  0.9241100000000002  1.0000
  O   O8        1.0  0.7889200000000003  0.11408000000000011  0.7952100000000002  1.0000
  O   O9        1.0  0.09027999999999992  0.41015999999999997  0.70443  1.0000
  O   O10       1.0  0.9442399999999999  0.26896000000000003  0.63029  1.0000
  O   O11       1.0  0.24634999999999996  0.42489  0.09003  1.0000
  O   O12       1.0  0.3171699999999999  0.4931200000000001  0.01579  1.0000
  O   O13       1.0  0.5675600000000001  0.25197000000000014  0.4251000000000001  1.0000
  O   O14       1.0  0.43847  0.25198  0.29426  1.0000
  O   O15       1.0  0.10995999999999996  0.9374600000000002  0.12916  1.0000
  O   O16       1.0  0.04075999999999996  0.8704100000000002  0.2046  1.0000
  O   O17       1.0  0.27907  0.94566  0.51529  1.0000
  O   O18       1.0  0.41414999999999996  0.09721000000000009  0.5889800000000001  1.0000
  O   O19       1.0  0.00552000000000005  0.8162800000000001  0.9274100000000002  1.0000
  O   O20       1.0  0.005410000000000097  0.6822800000000001  0.7961100000000002  1.0000
  O   O21       1.0  0.6157499999999999  0.2955799999999999  0.70443  1.0000
  O   O22       1.0  0.68014  0.37056  0.6306  1.0000
  O   O23       1.0  0.8478099999999998  0.6621  0.09350000000000003  1.0000
  O   O24       1.0  0.6982  0.52523  0.01864  1.0000
  O   O25       1.0  0.42770999999999987  0.6054000000000002  0.9241300000000001  1.0000
  O   O26       1.0  0.29786  0.6019600000000003  0.7926400000000001  1.0000
  O   O27       1.0  0.44609  0.7659100000000001  0.6290200000000002  1.0000
  O   O28       1.0  0.5805099999999997  0.9183000000000003  0.7041900000000002  1.0000
  O   O29       1.0  0.81641  0.99459  0.0152  1.0000
  O   O30       1.0  0.74821  0.9215300000000001  0.08817000000000003  1.0000
  O   O31       1.0  0.36569999999999997  0.66973  0.4275500000000001  1.0000
  O   O32       1.0  0.36096  0.5433600000000001  0.2940200000000001  1.0000
  O   O33       1.0  0.66037  0.8404700000000002  0.20394000000000007  1.0000
  O   O34       1.0  0.51238  0.70148  0.12891000000000005  1.0000
  O   O35       1.0  0.67921  0.9992500000000002  0.5913900000000002  1.0000
  O   O36       1.0  0.7432700000000002  0.07038000000000011  0.5154900000000002  1.0000
  O   O37       1.0  0.5029500000000001  0.3172700000000001  0.9275000000000002  1.0000
  O   O38       1.0  0.49549000000000004  0.19342000000000018  0.7928500000000003  1.0000
  O   O39       1.0  0.18274999999999994  0.86337  0.6289  1.0000
  O   O40       1.0  0.12159000000000002  0.78914  0.70462  1.0000
  O   O41       1.0  0.19501  0.02813  0.015540000000000003  1.0000
  O   O42       1.0  0.34877  0.16062000000000004  0.09098000000000003  1.0000
  O   O43       1.0  0.06785000000000008  0.75312  0.4254100000000001  1.0000
  O   O44       1.0  0.93174  0.7597  0.2977100000000001  1.0000
  O   O45       1.0  0.5445299999999998  0.36582  0.20482000000000006  1.0000
  O   O46       1.0  0.61178  0.44014000000000003  0.13218000000000005  1.0000
  O   O47       1.0  0.91919  0.5944200000000002  0.5913400000000002  1.0000
  O   O48       1.0  0.7756699999999999  0.45099  0.51873  1.0000
