data_image0
_chemical_formula_structural       Ca8H28C56S8O40
_chemical_formula_sum              "Ca8 H28 C56 S8 O40"
_cell_length_a       11.33747
_cell_length_b       13.0917
_cell_length_c       22.72614
_cell_angle_alpha    90.00896
_cell_angle_beta     89.99552000000001
_cell_angle_gamma    89.94360000000002

_symmetry_space_group_name_H-M    'P 1'
_symmetry_Int_Tables_number       1

loop_
  _symmetry_equiv_pos_as_xyz
  'x,y,z'

loop_
  _atom_site_type_symbol
  _atom_site_label
  _atom_site_symmetry_multiplicity
  _atom_site_fract_x
  _atom_site_fract_y
  _atom_site_fract_z
  _atom_site_occupancy
  Ca  Ca1       1.0  0.61596  0.06385  0.43916  1.0000
  Ca  Ca2       1.0  0.49396  0.30627  0.50725  1.0000
  Ca  Ca3       1.0  0.38499  0.564  0.56087  1.0000
  Ca  Ca4       1.0  0.50836  0.80598  0.49246  1.0000
  Ca  Ca5       1.0  0.385  0.06421999999999999  0.93904  1.0000
  Ca  Ca6       1.0  0.50622  0.30614  0.00771  1.0000
  Ca  Ca7       1.0  0.61555  0.5638899999999999  0.060809999999999996  1.0000
  Ca  Ca8       1.0  0.49382999999999994  0.8060899999999999  0.99207  1.0000
  H   H1        1.0  0.5029899999999999  0.12422  0.29472  1.0000
  H   H2        1.0  0.52075  0.17894  0.18146  1.0000
  H   H3        1.0  0.07147  0.4973299999999999  0.53438  1.0000
  H   H4        1.0  0.84461  0.45128  0.51475  1.0000
  H   H5        1.0  0.38754  0.06343  0.62158  1.0000
  H   H6        1.0  0.31363  0.96752  0.5785  1.0000
  H   H7        1.0  0.28315999999999997  0.10085999999999999  0.56745  1.0000
  H   H8        1.0  0.49659  0.62494  0.7055599999999999  1.0000
  H   H9        1.0  0.47938  0.6809399999999998  0.81877  1.0000
  H   H10       1.0  0.93105  0.99915  0.46535000000000004  1.0000
  H   H11       1.0  0.15774  0.95234  0.4855  1.0000
  H   H12       1.0  0.61399  0.56202  0.37810999999999995  1.0000
  H   H13       1.0  0.68655  0.46636999999999995  0.42201999999999995  1.0000
  H   H14       1.0  0.7179299999999998  0.59952  0.4324  1.0000
  H   H15       1.0  0.49745999999999996  0.12449999999999997  0.7947700000000001  1.0000
  H   H16       1.0  0.47990999999999995  0.17851999999999996  0.68145  1.0000
  H   H17       1.0  0.92776  0.4973399999999999  0.03426  1.0000
  H   H18       1.0  0.15486  0.45126  0.015189999999999999  1.0000
  H   H19       1.0  0.61205  0.06304  0.12173  1.0000
  H   H20       1.0  0.68625  0.9669199999999998  0.07885  1.0000
  H   H21       1.0  0.71657  0.10008999999999998  0.06769  1.0000
  H   H22       1.0  0.50321  0.6243799999999999  0.20512000000000002  1.0000
  H   H23       1.0  0.52068  0.6788799999999999  0.31843  1.0000
  H   H24       1.0  0.07093999999999999  0.9975099999999999  0.9649899999999999  1.0000
  H   H25       1.0  0.8443899999999999  0.95152  0.9855200000000001  1.0000
  H   H26       1.0  0.38795  0.56326  0.87828  1.0000
  H   H27       1.0  0.31381  0.4672199999999999  0.9211999999999999  1.0000
  H   H28       1.0  0.2836  0.60055  0.93244  1.0000
  C   C1        1.0  0.50309  0.20209  0.27788  1.0000
  C   C2        1.0  0.51387  0.23052999999999996  0.21876999999999996  1.0000
  C   C3        1.0  0.78991  0.24637999999999993  0.47999  1.0000
  C   C4        1.0  0.48508999999999997  0.288  0.38000999999999996  1.0000
  C   C5        1.0  0.4938699999999999  0.28704  0.31504  1.0000
  C   C6        1.0  0.90328  0.29679  0.4942599999999999  1.0000
  C   C7        1.0  0.5141399999999999  0.3368599999999999  0.21111000000000002  1.0000
  C   C8        1.0  0.11142  0.3384899999999999  0.51348  1.0000
  C   C9        1.0  0.52571  0.3896599999999999  0.15368  1.0000
  C   C10       1.0  0.03747  0.42276  0.52179  1.0000
  C   C11       1.0  0.24125999999999997  0.33301  0.51868  1.0000
  C   C12       1.0  0.9187899999999999  0.39898  0.511  1.0000
  C   C13       1.0  0.44604  0.05235  0.5321  1.0000
  C   C14       1.0  0.35168  0.04428  0.57818  1.0000
  C   C15       1.0  0.49651  0.7029399999999998  0.72223  1.0000
  C   C16       1.0  0.48618999999999996  0.73203  0.78127  1.0000
  C   C17       1.0  0.21127  0.7466199999999998  0.51988  1.0000
  C   C18       1.0  0.51495  0.78795  0.61987  1.0000
  C   C19       1.0  0.50578  0.7875  0.68483  1.0000
  C   C20       1.0  0.09849  0.79785  0.50547  1.0000
  C   C21       1.0  0.48644999999999994  0.83843  0.78871  1.0000
  C   C22       1.0  0.89078  0.8402899999999998  0.48616  1.0000
  C   C23       1.0  0.47653  0.8914899999999998  0.84618  1.0000
  C   C24       1.0  0.96474  0.92446  0.4780400000000001  1.0000
  C   C25       1.0  0.7611199999999999  0.8337  0.48112999999999995  1.0000
  C   C26       1.0  0.08337  0.9002699999999999  0.48895  1.0000
  C   C27       1.0  0.55419  0.55233  0.46770999999999996  1.0000
  C   C28       1.0  0.64896  0.54338  0.42177  1.0000
  C   C29       1.0  0.49735999999999997  0.20229  0.7778000000000002  1.0000
  C   C30       1.0  0.48675999999999997  0.23036999999999996  0.71863  1.0000
  C   C31       1.0  0.21018  0.24564  0.98121  1.0000
  C   C32       1.0  0.51512  0.28835999999999995  0.87991  1.0000
  C   C33       1.0  0.50644  0.28742  0.8148700000000001  1.0000
  C   C34       1.0  0.09674999999999997  0.29647999999999997  0.99494  1.0000
  C   C35       1.0  0.48640999999999995  0.33663  0.71074  1.0000
  C   C36       1.0  0.8884499999999999  0.33842  0.013439999999999999  1.0000
  C   C37       1.0  0.47445  0.38945999999999986  0.65333  1.0000
  C   C38       1.0  0.96211  0.42278  0.02175  1.0000
  C   C39       1.0  0.75871  0.3328899999999999  0.01864  1.0000
  C   C40       1.0  0.08092  0.3988699999999999  0.011340000000000001  1.0000
  C   C41       1.0  0.55393  0.051999999999999984  0.03222  1.0000
  C   C42       1.0  0.6480299999999999  0.043659999999999984  0.07841  1.0000
  C   C43       1.0  0.50315  0.7022199999999998  0.22201  1.0000
  C   C44       1.0  0.5138  0.73053  0.28117  1.0000
  C   C45       1.0  0.7898999999999998  0.7463099999999999  0.0198  1.0000
  C   C46       1.0  0.48508999999999997  0.7882  0.11987000000000002  1.0000
  C   C47       1.0  0.4938699999999999  0.7872499999999998  0.18489  1.0000
  C   C48       1.0  0.90322  0.79687  0.00546  1.0000
  C   C49       1.0  0.5141099999999998  0.83683  0.28894  1.0000
  C   C50       1.0  0.11128  0.83867  0.9857  1.0000
  C   C51       1.0  0.5257699999999998  0.88955  0.34642  1.0000
  C   C52       1.0  0.0372  0.9229499999999998  0.97775  1.0000
  C   C53       1.0  0.24108  0.8330999999999997  0.98011  1.0000
  C   C54       1.0  0.91861  0.8991499999999999  0.98889  1.0000
  C   C55       1.0  0.44624999999999987  0.55206  0.9677800000000001  1.0000
  C   C56       1.0  0.35204  0.54393  0.92162  1.0000
  S   S1        1.0  0.03478  0.23037999999999997  0.49236  1.0000
  S   S2        1.0  0.4977799999999999  0.40125999999999995  0.27686  1.0000
  S   S3        1.0  0.9671  0.7318499999999999  0.50722  1.0000
  S   S4        1.0  0.50221  0.90211  0.72275  1.0000
  S   S5        1.0  0.9653599999999999  0.23023  0.9926299999999999  1.0000
  S   S6        1.0  0.50253  0.4013899999999999  0.77643  1.0000
  S   S7        1.0  0.03482  0.73049  0.006949999999999999  1.0000
  S   S8        1.0  0.4977599999999999  0.9013599999999999  0.22320000000000004  1.0000
  O   O1        1.0  0.45279  0.9853599999999999  0.49108  1.0000
  O   O2        1.0  0.5168  0.20691999999999994  0.40771  1.0000
  O   O3        1.0  0.29122  0.24803999999999995  0.50859  1.0000
  O   O4        1.0  0.7915899999999998  0.15656  0.45796  1.0000
  O   O5        1.0  0.6971699999999998  0.29753  0.491  1.0000
  O   O6        1.0  0.5185  0.12745  0.53238  1.0000
  O   O7        1.0  0.44879  0.3680799999999999  0.40514  1.0000
  O   O8        1.0  0.29741  0.41453  0.53258  1.0000
  O   O9        1.0  0.49421999999999994  0.3377499999999999  0.10937000000000001  1.0000
  O   O10       1.0  0.56584  0.4805299999999999  0.15203  1.0000
  O   O11       1.0  0.54739  0.48551  0.50883  1.0000
  O   O12       1.0  0.48799  0.70565  0.59221  1.0000
  O   O13       1.0  0.71329  0.7479599999999997  0.49134999999999995  1.0000
  O   O14       1.0  0.20881999999999998  0.6568399999999999  0.54193  1.0000
  O   O15       1.0  0.30434  0.79719  0.50893  1.0000
  O   O16       1.0  0.48176  0.6274999999999997  0.46737  1.0000
  O   O17       1.0  0.54755  0.86901  0.59457  1.0000
  O   O18       1.0  0.70284  0.9142999999999999  0.46738999999999997  1.0000
  O   O19       1.0  0.50582  0.83827  0.8904100000000001  1.0000
  O   O20       1.0  0.4400799999999999  0.98367  0.84798  1.0000
  O   O21       1.0  0.5473999999999999  0.98511  0.99115  1.0000
  O   O22       1.0  0.48286  0.20751  0.90764  1.0000
  O   O23       1.0  0.7088599999999999  0.24794999999999995  0.0086  1.0000
  O   O24       1.0  0.20857  0.15662999999999996  0.9581  1.0000
  O   O25       1.0  0.30280999999999997  0.29556999999999994  0.99382  1.0000
  O   O26       1.0  0.48159  0.12725  0.03247  1.0000
  O   O27       1.0  0.55205  0.36811  0.9051099999999999  1.0000
  O   O28       1.0  0.70248  0.41441999999999996  0.0326  1.0000
  O   O29       1.0  0.5058799999999999  0.33780999999999994  0.60886  1.0000
  O   O30       1.0  0.43405  0.48031  0.65193  1.0000
  O   O31       1.0  0.45258  0.48519  0.00886  1.0000
  O   O32       1.0  0.51697  0.70708  0.09227  1.0000
  O   O33       1.0  0.29114999999999996  0.74853  0.99128  1.0000
  O   O34       1.0  0.7916199999999999  0.65657  0.04187  1.0000
  O   O35       1.0  0.69703  0.7973  0.00876  1.0000
  O   O36       1.0  0.51858  0.6272199999999998  0.9675299999999999  1.0000
  O   O37       1.0  0.44852  0.8681099999999998  0.09469  1.0000
  O   O38       1.0  0.29707  0.9139599999999999  0.96478  1.0000
  O   O39       1.0  0.49427999999999994  0.8377  0.39076  1.0000
  O   O40       1.0  0.56592  0.98041  0.34802  1.0000
