data_image0
_chemical_formula_structural       Cd5H46C72N4O18
_chemical_formula_sum              "Cd5 H46 C72 N4 O18"
_cell_length_a       7.80989
_cell_length_b       15.43601
_cell_length_c       16.86198
_cell_angle_alpha    69.7695
_cell_angle_beta     79.73128
_cell_angle_gamma    80.31069

_space_group_name_H-M_alt    "P 1"
_space_group_IT_number       1

loop_
  _space_group_symop_operation_xyz
  'x, y, z'

loop_
  _atom_site_type_symbol
  _atom_site_label
  _atom_site_symmetry_multiplicity
  _atom_site_fract_x
  _atom_site_fract_y
  _atom_site_fract_z
  _atom_site_occupancy
  Cd  Cd1       1.0  0.3694800000000002  0.9931399999999999  0.8562599999999998  1.0000
  Cd  Cd2       1.0  0.6158700000000001  0.17803000000000008  0.9099499999999998  1.0000
  Cd  Cd3       1.0  0.63053  0.006869999999999997  0.14373  1.0000
  Cd  Cd4       1.0  0.0  0.0  0.0  1.0000
  Cd  Cd5       1.0  0.38413000000000014  0.8219699999999998  0.09005  1.0000
  H   H1        1.0  0.6067600000000003  0.51127  0.9398799999999998  1.0000
  H   H2        1.0  0.8758300000000004  0.9571599999999998  0.4659999999999999  1.0000
  H   H3        1.0  0.6726700000000004  0.9933099999999997  0.9790699999999998  1.0000
  H   H4        1.0  0.4956400000000004  0.3834199999999999  0.9108599999999998  1.0000
  H   H5        1.0  0.53653  0.25002  0.09023999999999997  1.0000
  H   H6        1.0  0.1097300000000001  0.2198499999999999  0.50727  1.0000
  H   H7        1.0  0.8867700000000001  0.65539  0.043939999999999986  1.0000
  H   H8        1.0  0.6649400000000002  0.3425899999999999  0.15183999999999995  1.0000
  H   H9        1.0  0.06503999999999993  0.70968  0.6858  1.0000
  H   H10       1.0  0.62119  0.06013  0.32227  1.0000
  H   H11       1.0  0.32734  0.006699999999999997  0.02093  1.0000
  H   H12       1.0  0.014960000000000051  0.7716899999999999  0.07602  1.0000
  H   H13       1.0  0.7423300000000005  0.031070000000000073  0.7726399999999998  1.0000
  H   H14       1.0  0.4634700000000001  0.7499799999999999  0.90976  1.0000
  H   H15       1.0  0.8902800000000001  0.7801599999999999  0.4927299999999999  1.0000
  H   H16       1.0  0.03241999999999995  0.97225  0.34946  1.0000
  H   H17       1.0  0.3788100000000001  0.9398799999999999  0.67773  1.0000
  H   H18       1.0  0.0663100000000001  0.8160699999999999  0.34905999999999987  1.0000
  H   H19       1.0  0.34685000000000005  0.7484299999999998  0.33362999999999987  1.0000
  H   H20       1.0  0.18029000000000003  0.37087000000000003  0.31381  1.0000
  H   H21       1.0  0.38669000000000003  0.25889000000000006  0.41590999999999995  1.0000
  H   H22       1.0  0.25768000000000013  0.9689399999999998  0.22735999999999995  1.0000
  H   H23       1.0  0.8474300000000005  0.5745000000000001  0.9669999999999997  1.0000
  H   H24       1.0  0.9337000000000003  0.18393000000000007  0.6509299999999999  1.0000
  H   H25       1.0  0.9349600000000003  0.2903199999999999  0.31419999999999987  1.0000
  H   H26       1.0  0.11323000000000007  0.3446100000000001  0.9560499999999997  1.0000
  H   H27       1.0  0.5141300000000003  0.59208  0.7389699999999998  1.0000
  H   H28       1.0  0.33507000000000003  0.6574099999999996  0.84816  1.0000
  H   H29       1.0  0.5043600000000003  0.6165799999999998  0.08913  1.0000
  H   H30       1.0  0.41164000000000006  0.06391000000000004  0.4526099999999999  1.0000
  H   H31       1.0  0.15258000000000002  0.4254999999999999  0.033  1.0000
  H   H32       1.0  0.8036800000000002  0.19478  0.2534  1.0000
  H   H33       1.0  0.9850500000000003  0.22832000000000002  0.9239699999999997  1.0000
  H   H34       1.0  0.9675800000000004  0.027749999999999986  0.65053  1.0000
  H   H35       1.0  0.6919600000000002  0.2937999999999999  0.3977999999999999  1.0000
  H   H36       1.0  0.19632000000000008  0.80522  0.7465999999999998  1.0000
  H   H37       1.0  0.12418000000000008  0.04284000000000001  0.53399  1.0000
  H   H38       1.0  0.8197200000000001  0.6291299999999999  0.6861899999999997  1.0000
  H   H39       1.0  0.39324000000000003  0.48872999999999994  0.060119999999999986  1.0000
  H   H40       1.0  0.1760500000000001  0.71043  0.4761899999999999  1.0000
  H   H41       1.0  0.8239500000000004  0.28956999999999994  0.5238  1.0000
  H   H42       1.0  0.48588000000000015  0.40792  0.26102  1.0000
  H   H43       1.0  0.6133200000000005  0.7411099999999999  0.5840899999999998  1.0000
  H   H44       1.0  0.3080400000000001  0.7061999999999997  0.6022  1.0000
  H   H45       1.0  0.6531600000000003  0.2515800000000001  0.6663699999999998  1.0000
  H   H46       1.0  0.5883600000000001  0.9360899999999995  0.54738  1.0000
  C   C1        1.0  0.6932600000000003  0.4485999999999999  0.9384799999999998  1.0000
  C   C2        1.0  0.28182000000000007  0.25464  0.16673999999999994  1.0000
  C   C3        1.0  0.9905300000000004  0.7353299999999999  0.7357999999999998  1.0000
  C   C4        1.0  0.009470000000000024  0.26467  0.2641999999999999  1.0000
  C   C5        1.0  0.6310500000000002  0.37868  0.9214199999999998  1.0000
  C   C6        1.0  0.74129  0.6555199999999998  0.73498  1.0000
  C   C7        1.0  0.8550300000000003  0.8129899999999998  0.2842699999999999  1.0000
  C   C8        1.0  0.7181900000000003  0.7453600000000001  0.83326  1.0000
  C   C9        1.0  0.7135300000000003  0.010930000000000072  0.7211099999999998  1.0000
  C   C10       1.0  0.5101000000000002  0.9601799999999997  0.6677099999999998  1.0000
  C   C11       1.0  0.9299200000000004  0.80435  0.3578899999999999  1.0000
  C   C12       1.0  0.5808500000000002  0.7686399999999999  0.3753799999999999  1.0000
  C   C13       1.0  0.44564000000000037  0.25661  0.4705299999999999  1.0000
  C   C14       1.0  0.5424500000000001  0.7236899999999998  0.8612199999999998  1.0000
  C   C15       1.0  0.31665000000000004  0.2067700000000001  0.7069799999999998  1.0000
  C   C16       1.0  0.6858600000000001  0.83802  0.9337599999999998  1.0000
  C   C17       1.0  0.92016  0.98437  0.5096299999999998  1.0000
  C   C18       1.0  0.3094600000000001  0.7268099999999997  0.4679199999999999  1.0000
  C   C19       1.0  0.9693300000000004  0.8453899999999998  0.19999999999999996  1.0000
  C   C20       1.0  0.07008000000000007  0.19566000000000003  0.6421099999999997  1.0000
  C   C21       1.0  0.40230000000000005  0.20960999999999988  0.77951  1.0000
  C   C22       1.0  0.3435600000000002  0.23433000000000007  0.5518599999999998  1.0000
  C   C23       1.0  0.8675700000000003  0.43751  0.9551399999999998  1.0000
  C   C24       1.0  0.5291100000000002  0.32906999999999986  0.17300999999999994  1.0000
  C   C25       1.0  0.3689500000000002  0.62132  0.07857999999999997  1.0000
  C   C26       1.0  0.5944800000000002  0.25192000000000003  0.6122599999999998  1.0000
  C   C27       1.0  0.20303000000000013  0.015930000000000038  0.4142499999999999  1.0000
  C   C28       1.0  0.1671600000000001  0.21651  0.5627399999999999  1.0000
  C   C29       1.0  0.25871000000000005  0.34448  0.26500999999999997  1.0000
  C   C30       1.0  0.96753  0.8218999999999997  0.8342599999999998  1.0000
  C   C31       1.0  0.18262000000000012  0.28829  0.23278999999999994  1.0000
  C   C32       1.0  0.28647000000000017  0.9890699999999997  0.2788799999999999  1.0000
  C   C33       1.0  0.4575600000000002  0.2763099999999999  0.13877  1.0000
  C   C34       1.0  0.5711000000000004  0.63519  0.7642499999999998  1.0000
  C   C35       1.0  0.9375500000000004  0.21118999999999996  0.23141999999999993  1.0000
  C   C36       1.0  0.31414  0.16198999999999994  0.06624  1.0000
  C   C37       1.0  0.8328500000000002  0.7834899999999998  0.43725999999999987  1.0000
  C   C38       1.0  0.20314000000000007  0.19944999999999996  0.13323  1.0000
  C   C39       1.0  0.83835  0.009490000000000061  0.6518899999999997  1.0000
  C   C40       1.0  0.3067400000000001  0.5514099999999997  0.06150999999999999  1.0000
  C   C41       1.0  0.07985000000000006  0.01564000000000004  0.4903599999999999  1.0000
  C   C42       1.0  0.55436  0.7434000000000001  0.5294699999999998  1.0000
  C   C43       1.0  0.05699000000000006  0.8784299999999996  0.86812  1.0000
  C   C44       1.0  0.7969700000000003  0.9840699999999999  0.5857499999999998  1.0000
  C   C45       1.0  0.09577000000000001  0.7088  0.07108999999999997  1.0000
  C   C46       1.0  0.4191500000000003  0.23136999999999996  0.6246199999999997  1.0000
  C   C47       1.0  0.6157900000000002  0.27585999999999994  0.46073999999999987  1.0000
  C   C48       1.0  0.65644  0.7656799999999999  0.44813999999999987  1.0000
  C   C49       1.0  0.06245000000000009  0.7888100000000001  0.7685799999999998  1.0000
  C   C50       1.0  0.6833499999999999  0.7932299999999998  0.29301  1.0000
  C   C51       1.0  0.9279700000000004  0.5073300000000001  0.9803599999999998  1.0000
  C   C52       1.0  0.79687  0.8005599999999999  0.8667599999999998  1.0000
  C   C53       1.0  0.6276600000000004  0.9581099999999997  0.5956399999999997  1.0000
  C   C54       1.0  0.4899000000000002  0.03983000000000001  0.3322899999999999  1.0000
  C   C55       1.0  0.81738  0.71172  0.76721  1.0000
  C   C56       1.0  0.42891000000000007  0.3648199999999999  0.23573999999999995  1.0000
  C   C57       1.0  0.6905400000000003  0.27319  0.5320799999999998  1.0000
  C   C58       1.0  0.94301  0.12156999999999998  0.13188  1.0000
  C   C59       1.0  0.37235000000000024  0.04189000000000002  0.4043599999999999  1.0000
  C   C60       1.0  0.13243000000000005  0.5624999999999998  0.04485999999999998  1.0000
  C   C61       1.0  0.3842100000000004  0.7241499999999998  0.5392599999999997  1.0000
  C   C62       1.0  0.47090000000000004  0.67094  0.82699  1.0000
  C   C63       1.0  0.40553000000000006  0.7480899999999999  0.3877399999999999  1.0000
  C   C64       1.0  0.9042400000000005  0.2911999999999998  0.92891  1.0000
  C   C65       1.0  0.14497000000000007  0.18702000000000002  0.7157299999999998  1.0000
  C   C66       1.0  0.5977000000000003  0.7903999999999998  0.22048999999999994  1.0000
  C   C67       1.0  0.16165000000000002  0.9905199999999998  0.34810999999999986  1.0000
  C   C68       1.0  0.03247000000000003  0.17810000000000004  0.16572999999999993  1.0000
  C   C69       1.0  0.07203000000000004  0.49266999999999994  0.019639999999999994  1.0000
  C   C70       1.0  0.030670000000000003  0.15461999999999998  0.79999  1.0000
  C   C71       1.0  0.9751100000000006  0.3573200000000001  0.9475899999999998  1.0000
  C   C72       1.0  0.02490000000000004  0.6426799999999998  0.052409999999999984  1.0000
  N   N1        1.0  0.4490200000000001  0.013130000000000041  0.2704999999999999  1.0000
  N   N2        1.0  0.26625000000000004  0.6999799999999998  0.08177999999999998  1.0000
  N   N3        1.0  0.7337500000000003  0.30001999999999995  0.9182099999999999  1.0000
  N   N4        1.0  0.5509900000000005  0.9868699999999996  0.7295  1.0000
  O   O1        1.0  0.006320000000000019  0.11464999999999996  0.05957999999999999  1.0000
  O   O2        1.0  0.7100300000000003  0.039080000000000066  0.9997499999999999  1.0000
  O   O3        1.0  0.5178600000000003  0.8684899999999999  0.17498999999999995  1.0000
  O   O4        1.0  0.8916900000000005  0.8961399999999998  0.13506  1.0000
  O   O5        1.0  0.63508  0.7785399999999998  0.004199999999999998  1.0000
  O   O6        1.0  0.28997  0.96092  0.0002499999999999999  1.0000
  O   O7        1.0  0.3595800000000001  0.07446999999999998  0.08750999999999998  1.0000
  O   O8        1.0  0.8073500000000002  0.08654  0.17904999999999993  1.0000
  O   O9        1.0  0.59248  0.7147699999999998  0.21054999999999993  1.0000
  O   O10       1.0  0.6404200000000005  0.9255399999999999  0.9124799999999997  1.0000
  O   O11       1.0  0.8678300000000003  0.17714  0.8009  1.0000
  O   O12       1.0  0.10832000000000007  0.10387000000000002  0.8649399999999998  1.0000
  O   O13       1.0  0.1926600000000001  0.91346  0.8209499999999997  1.0000
  O   O14       1.0  0.4821500000000003  0.13152000000000008  0.8249999999999997  1.0000
  O   O15       1.0  0.13218000000000016  0.8228599999999998  0.19908999999999993  1.0000
  O   O16       1.0  0.36493000000000003  0.22146000000000002  0.9957899999999997  1.0000
  O   O17       1.0  0.40752000000000016  0.2852399999999999  0.7894499999999998  1.0000
  O   O18       1.0  0.9936800000000006  0.88536  0.9404199999999998  1.0000
