data_image0
_chemical_formula_structural       Li4Zn4H24C80O32
_chemical_formula_sum              "Li4 Zn4 H24 C80 O32"
_cell_length_a       9.58943
_cell_length_b       15.31985
_cell_length_c       21.55524
_cell_angle_alpha    89.98644
_cell_angle_beta     98.50001
_cell_angle_gamma    89.94256

_symmetry_space_group_name_H-M    'P 1'
_symmetry_Int_Tables_number       1

loop_
  _symmetry_equiv_pos_as_xyz
  'x,y,z'

loop_
  _atom_site_type_symbol
  _atom_site_label
  _atom_site_symmetry_multiplicity
  _atom_site_fract_x
  _atom_site_fract_y
  _atom_site_fract_z
  _atom_site_occupancy
  Li  Li1       1.0  0.49654  0.15977  0.19481999999999997  1.0000
  Li  Li2       1.0  0.50411  0.65959  0.30543  1.0000
  Li  Li3       1.0  0.50347  0.84023  0.80518  1.0000
  Li  Li4       1.0  0.4959  0.34041  0.69457  1.0000
  Zn  Zn1       1.0  0.26554  0.26899  0.26076  1.0000
  Zn  Zn2       1.0  0.73468  0.7678199999999997  0.23911  1.0000
  Zn  Zn3       1.0  0.73447  0.73101  0.73924  1.0000
  Zn  Zn4       1.0  0.26533  0.23218  0.76089  1.0000
  H   H1        1.0  0.44930000000000003  0.49337999999999993  0.20953  1.0000
  H   H2        1.0  0.5437  0.71675  0.06618  1.0000
  H   H3        1.0  0.4438500000000001  0.2782  0.04757  1.0000
  H   H4        1.0  0.0006899999999999988  0.51376  0.28524  1.0000
  H   H5        1.0  0.24987  0.3447  0.45433  1.0000
  H   H6        1.0  0.75036  0.6622999999999998  0.43119  1.0000
  H   H7        1.0  0.55168  0.9939899999999998  0.29043  1.0000
  H   H8        1.0  0.45643000000000006  0.21712999999999993  0.43422  1.0000
  H   H9        1.0  0.55633  0.7784  0.4521  1.0000
  H   H10       1.0  0.0005799999999999972  0.01394  0.21489  1.0000
  H   H11       1.0  0.75204  0.8443999999999998  0.04625  1.0000
  H   H12       1.0  0.24910000000000002  0.16262  0.06828  1.0000
  H   H13       1.0  0.55071  0.50662  0.79047  1.0000
  H   H14       1.0  0.4563  0.28325  0.93382  1.0000
  H   H15       1.0  0.55615  0.7217999999999999  0.95244  1.0000
  H   H16       1.0  0.9993200000000001  0.48624  0.71476  1.0000
  H   H17       1.0  0.75013  0.6553  0.54567  1.0000
  H   H18       1.0  0.24964000000000003  0.3376999999999999  0.56881  1.0000
  H   H19       1.0  0.44833000000000006  0.006  0.70957  1.0000
  H   H20       1.0  0.54358  0.78286  0.56578  1.0000
  H   H21       1.0  0.44368  0.22159999999999994  0.5479  1.0000
  H   H22       1.0  0.99943  0.9860599999999998  0.78511  1.0000
  H   H23       1.0  0.24796  0.1556  0.95375  1.0000
  H   H24       1.0  0.7509000000000001  0.83738  0.9317200000000001  1.0000
  C   C1        1.0  0.42015  0.33611  0.16175  1.0000
  C   C2        1.0  0.45207  0.41682999999999987  0.12653  1.0000
  C   C3        1.0  0.4641700000000001  0.49459  0.16054  1.0000
  C   C4        1.0  0.49736  0.5733199999999998  0.13376  1.0000
  C   C5        1.0  0.5235600000000001  0.6494  0.17788  1.0000
  C   C6        1.0  0.51023  0.57721  0.06884  1.0000
  C   C7        1.0  0.53325  0.65723  0.03846  1.0000
  C   C8        1.0  0.45775  0.33998  0.0246  1.0000
  C   C9        1.0  0.4691000000000001  0.41710999999999987  0.06180999999999999  1.0000
  C   C10       1.0  0.49461000000000005  0.49857999999999997  0.03268  1.0000
  C   C11       1.0  0.18566  0.3959799999999999  0.33887  1.0000
  C   C12       1.0  0.08923999999999999  0.451  0.37152  1.0000
  C   C13       1.0  0.000799999999999997  0.51067  0.33571  1.0000
  C   C14       1.0  0.91046  0.5644999999999999  0.36332  1.0000
  C   C15       1.0  0.80769  0.6213599999999998  0.32208  1.0000
  C   C16       1.0  0.0912  0.4459899999999999  0.43812999999999996  1.0000
  C   C17       1.0  0.17975  0.38684  0.47621  1.0000
  C   C18       1.0  0.8201600000000001  0.6168499999999998  0.45957  1.0000
  C   C19       1.0  0.9085000000000001  0.56158  0.42973  1.0000
  C   C20       1.0  0.99996  0.50189  0.4669499999999999  1.0000
  C   C21       1.0  0.57976  0.8359999999999999  0.33819  1.0000
  C   C22       1.0  0.54859  0.9171099999999998  0.37332  1.0000
  C   C23       1.0  0.53687  0.9950399999999998  0.33944  1.0000
  C   C24       1.0  0.50361  0.07375  0.36633  1.0000
  C   C25       1.0  0.4762  0.14980999999999997  0.32216  1.0000
  C   C26       1.0  0.49033000000000004  0.07751  0.43124999999999997  1.0000
  C   C27       1.0  0.46687  0.15739999999999996  0.46176  1.0000
  C   C28       1.0  0.5424  0.8400799999999998  0.47519  1.0000
  C   C29       1.0  0.53112  0.9173199999999998  0.43803999999999993  1.0000
  C   C30       1.0  0.5056  0.99872  0.46731999999999996  1.0000
  C   C31       1.0  0.8143000000000001  0.8962699999999998  0.1607  1.0000
  C   C32       1.0  0.9118500000000002  0.9511599999999999  0.12864  1.0000
  C   C33       1.0  0.00027999999999999347  0.01083  0.16441  1.0000
  C   C34       1.0  0.09006000000000002  0.06489  0.13668  1.0000
  C   C35       1.0  0.19229000000000002  0.12239999999999997  0.17776  1.0000
  C   C36       1.0  0.90974  0.9460599999999998  0.06204  1.0000
  C   C37       1.0  0.82135  0.88678  0.02417  1.0000
  C   C38       1.0  0.17939000000000002  0.11701999999999997  0.0401  1.0000
  C   C39       1.0  0.09162  0.06180999999999998  0.07018  1.0000
  C   C40       1.0  0.00034999999999999945  0.00198  0.03307  1.0000
  C   C41       1.0  0.57985  0.66389  0.83825  1.0000
  C   C42       1.0  0.5479300000000001  0.5831699999999997  0.87348  1.0000
  C   C43       1.0  0.53584  0.50541  0.83946  1.0000
  C   C44       1.0  0.50265  0.42668  0.86625  1.0000
  C   C45       1.0  0.47644  0.3506  0.82213  1.0000
  C   C46       1.0  0.48977  0.4227899999999999  0.9311599999999999  1.0000
  C   C47       1.0  0.46675  0.34277  0.96154  1.0000
  C   C48       1.0  0.54226  0.66002  0.9753999999999999  1.0000
  C   C49       1.0  0.5309  0.58289  0.93819  1.0000
  C   C50       1.0  0.50539  0.50142  0.96733  1.0000
  C   C51       1.0  0.8143400000000001  0.60402  0.66113  1.0000
  C   C52       1.0  0.91077  0.549  0.62849  1.0000
  C   C53       1.0  0.9992  0.4893299999999999  0.66429  1.0000
  C   C54       1.0  0.08954999999999996  0.4354999999999999  0.63668  1.0000
  C   C55       1.0  0.19232  0.37864  0.67792  1.0000
  C   C56       1.0  0.90881  0.5540099999999998  0.56187  1.0000
  C   C57       1.0  0.8202600000000002  0.61316  0.52379  1.0000
  C   C58       1.0  0.17985  0.38314999999999994  0.54043  1.0000
  C   C59       1.0  0.09151  0.43842  0.57027  1.0000
  C   C60       1.0  3.9999999999998967e-05  0.4981099999999999  0.53305  1.0000
  C   C61       1.0  0.42025  0.16399  0.66181  1.0000
  C   C62       1.0  0.45142000000000004  0.08289  0.62668  1.0000
  C   C63       1.0  0.46314  0.00496  0.66056  1.0000
  C   C64       1.0  0.49639  0.92625  0.63367  1.0000
  C   C65       1.0  0.52381  0.8501799999999998  0.67784  1.0000
  C   C66       1.0  0.50967  0.92249  0.56875  1.0000
  C   C67       1.0  0.53314  0.8426  0.53825  1.0000
  C   C68       1.0  0.45761  0.15991  0.52481  1.0000
  C   C69       1.0  0.46889000000000003  0.08267999999999998  0.56196  1.0000
  C   C70       1.0  0.4944  0.00128  0.53269  1.0000
  C   C71       1.0  0.18570999999999993  0.10373  0.8392999999999999  1.0000
  C   C72       1.0  0.08814999999999996  0.04883999999999999  0.87136  1.0000
  C   C73       1.0  0.99973  0.9891699999999998  0.83559  1.0000
  C   C74       1.0  0.9099400000000001  0.9351099999999998  0.8633299999999999  1.0000
  C   C75       1.0  0.80771  0.8775999999999999  0.82225  1.0000
  C   C76       1.0  0.09025999999999999  0.05393999999999999  0.93797  1.0000
  C   C77       1.0  0.17864999999999995  0.11321  0.97584  1.0000
  C   C78       1.0  0.82061  0.8829699999999998  0.9598999999999999  1.0000
  C   C79       1.0  0.90838  0.9381899999999997  0.92982  1.0000
  C   C80       1.0  0.99966  0.9980199999999999  0.96694  1.0000
  O   O1        1.0  0.47251  0.26375  0.14951  1.0000
  O   O2        1.0  0.34028  0.35079  0.20348  1.0000
  O   O3        1.0  0.44460000000000005  0.6578999999999998  0.21905  1.0000
  O   O4        1.0  0.63145  0.6968  0.17155  1.0000
  O   O5        1.0  0.12605  0.33767  0.30096  1.0000
  O   O6        1.0  0.31411  0.4131  0.35013  1.0000
  O   O7        1.0  0.68003  0.60049  0.31883  1.0000
  O   O8        1.0  0.86053  0.684  0.29413  1.0000
  O   O9        1.0  0.52635  0.76412  0.35062  1.0000
  O   O10       1.0  0.6600300000000001  0.8494199999999997  0.29651  1.0000
  O   O11       1.0  0.55555  0.15980999999999995  0.28127  1.0000
  O   O12       1.0  0.36637000000000003  0.19556999999999997  0.32816  1.0000
  O   O13       1.0  0.8720600000000001  0.83555  0.19697  1.0000
  O   O14       1.0  0.68663  0.91563  0.15005  1.0000
  O   O15       1.0  0.32022000000000006  0.10216  0.18098  1.0000
  O   O16       1.0  0.13916  0.18492  0.2057  1.0000
  O   O17       1.0  0.5274999999999999  0.73625  0.8504899999999999  1.0000
  O   O18       1.0  0.65973  0.6492099999999998  0.79653  1.0000
  O   O19       1.0  0.55541  0.3420999999999999  0.78096  1.0000
  O   O20       1.0  0.36855  0.3032  0.8284499999999999  1.0000
  O   O21       1.0  0.8739600000000001  0.6623199999999998  0.69905  1.0000
  O   O22       1.0  0.6858900000000001  0.5869  0.64987  1.0000
  O   O23       1.0  0.31998  0.39950999999999987  0.68117  1.0000
  O   O24       1.0  0.13948  0.3159899999999999  0.70587  1.0000
  O   O25       1.0  0.4736600000000001  0.23588  0.64938  1.0000
  O   O26       1.0  0.33998000000000006  0.15058  0.7035  1.0000
  O   O27       1.0  0.4444600000000001  0.8401899999999998  0.71873  1.0000
  O   O28       1.0  0.63363  0.80443  0.67184  1.0000
  O   O29       1.0  0.12794000000000003  0.16444999999999996  0.80303  1.0000
  O   O30       1.0  0.31338  0.08436999999999997  0.84995  1.0000
  O   O31       1.0  0.67978  0.89784  0.81902  1.0000
  O   O32       1.0  0.86085  0.81508  0.7942999999999999  1.0000
