data_image0
_chemical_formula_structural       Cu3H42C66N36
_chemical_formula_sum              "Cu3 H42 C66 N36"
_cell_length_a       9.11868
_cell_length_b       16.12407
_cell_length_c       16.13136
_cell_angle_alpha    116.68125
_cell_angle_beta     100.79521000000001
_cell_angle_gamma    100.79004

_symmetry_space_group_name_H-M    'P 1'
_symmetry_Int_Tables_number       1

loop_
  _symmetry_equiv_pos_as_xyz
  'x,y,z'

loop_
  _atom_site_type_symbol
  _atom_site_label
  _atom_site_symmetry_multiplicity
  _atom_site_fract_x
  _atom_site_fract_y
  _atom_site_fract_z
  _atom_site_occupancy
  Cu  Cu1       1.0  0.4999999999999999  0.5  0.4999999999999999  1.0000
  Cu  Cu2       1.0  0.0  0.0  0.4999999999999999  1.0000
  Cu  Cu3       1.0  0.0  0.5  0.0  1.0000
  H   H1        1.0  0.9798499999999997  0.86121  0.6322099999999998  1.0000
  H   H2        1.0  0.8286  0.85424  0.74683  1.0000
  H   H3        1.0  0.59802  0.03677  0.70071  1.0000
  H   H4        1.0  0.53385  0.2654699999999999  0.6375799999999999  1.0000
  H   H5        1.0  0.45968  0.4012100000000001  0.62224  1.0000
  H   H6        1.0  0.60211  0.3318700000000001  0.37571999999999994  1.0000
  H   H7        1.0  0.68587  0.19558000000000006  0.38343  1.0000
  H   H8        1.0  0.11799000000000005  0.7706300000000003  0.13855  1.0000
  H   H9        1.0  0.9744299999999999  0.89289  0.14583999999999997  1.0000
  H   H10       1.0  0.5614799999999998  0.6641499999999999  0.9633499999999998  1.0000
  H   H11       1.0  0.27009  0.37301000000000006  0.7354499999999999  1.0000
  H   H12       1.0  0.0597999999999999  0.22200999999999996  0.5999099999999998  1.0000
  H   H13       1.0  0.26979  0.04360000000000001  0.66791  1.0000
  H   H14       1.0  0.48993999999999993  0.18770000000000012  0.80394  1.0000
  H   H15       1.0  0.34698999999999997  0.3673400000000001  0.22827  1.0000
  H   H16       1.0  0.08152000000000001  0.25284  0.10683  1.0000
  H   H17       1.0  0.8984399999999999  0.29971999999999993  0.3363699999999999  1.0000
  H   H18       1.0  0.8963999999999999  0.36244999999999994  0.6274899999999999  1.0000
  H   H19       1.0  0.8379899999999999  0.37794000000000005  0.7786999999999998  1.0000
  H   H20       1.0  0.22624999999999987  0.62433  0.9567099999999997  1.0000
  H   H21       1.0  0.30195000000000005  0.61643  0.81256  1.0000
  H   H22       1.0  0.020140000000000016  0.13879000000000005  0.3678  1.0000
  H   H23       1.0  0.17139  0.14575  0.25318  1.0000
  H   H24       1.0  0.40197  0.96323  0.29929  1.0000
  H   H25       1.0  0.46613999999999994  0.73453  0.36243  1.0000
  H   H26       1.0  0.54031  0.5987900000000003  0.37777  1.0000
  H   H27       1.0  0.39788  0.66813  0.62428  1.0000
  H   H28       1.0  0.31412  0.8044200000000002  0.61657  1.0000
  H   H29       1.0  0.882  0.2293700000000001  0.86146  1.0000
  H   H30       1.0  0.0255599999999999  0.1071099999999999  0.8541599999999998  1.0000
  H   H31       1.0  0.43851  0.33585  0.03665  1.0000
  H   H32       1.0  0.7299  0.62699  0.26455  1.0000
  H   H33       1.0  0.94019  0.77799  0.4000899999999999  1.0000
  H   H34       1.0  0.7302000000000001  0.9564000000000002  0.33209  1.0000
  H   H35       1.0  0.5100499999999999  0.8123000000000001  0.19605999999999996  1.0000
  H   H36       1.0  0.6529999999999999  0.6326600000000001  0.7717399999999998  1.0000
  H   H37       1.0  0.9184699999999999  0.74716  0.89317  1.0000
  H   H38       1.0  0.10155000000000002  0.70028  0.66363  1.0000
  H   H39       1.0  0.1036  0.6375500000000001  0.3725099999999999  1.0000
  H   H40       1.0  0.16199999999999995  0.62206  0.22129999999999997  1.0000
  H   H41       1.0  0.77374  0.37567  0.04328999999999999  1.0000
  H   H42       1.0  0.69805  0.38357  0.18743999999999997  1.0000
  C   C1        1.0  0.8948499999999999  0.90083  0.6485699999999999  1.0000
  C   C2        1.0  0.8104199999999999  0.8968600000000001  0.71137  1.0000
  C   C3        1.0  0.68413  0.9976000000000003  0.6873199999999998  1.0000
  C   C4        1.0  0.7695399999999999  0.0031299999999999046  0.6248399999999997  1.0000
  C   C5        1.0  0.75047  0.060670000000000064  0.57786  1.0000
  C   C6        1.0  0.68527  0.1513000000000001  0.52632  1.0000
  C   C7        1.0  0.62059  0.22189000000000011  0.51317  1.0000
  C   C8        1.0  0.55044  0.2785200000000001  0.57892  1.0000
  C   C9        1.0  0.50899  0.35359  0.57034  1.0000
  C   C10       1.0  0.5896100000000001  0.3151700000000001  0.4328  1.0000
  C   C11       1.0  0.63599  0.23982  0.43718  1.0000
  C   C12       1.0  0.9936199999999998  0.74769  0.09913  1.0000
  C   C13       1.0  0.9135199999999999  0.81471  0.10319  1.0000
  C   C14       1.0  0.68657  0.68991  0.0024899999999999996  1.0000
  C   C15       1.0  0.7662  0.6217200000000003  0.9969  1.0000
  C   C16       1.0  0.68992  0.51708  0.93937  1.0000
  C   C17       1.0  0.53429  0.37487  0.84868  1.0000
  C   C18       1.0  0.3990699999999999  0.29136  0.77816  1.0000
  C   C19       1.0  0.27294  0.3009900000000001  0.72206  1.0000
  C   C20       1.0  0.1562799999999999  0.21735999999999994  0.6471199999999999  1.0000
  C   C21       1.0  0.27421  0.11754000000000006  0.68475  1.0000
  C   C22       1.0  0.396  0.19722000000000012  0.75994  1.0000
  C   C23       1.0  0.24604  0.3512  0.25177  1.0000
  C   C24       1.0  0.09896999999999999  0.28842000000000007  0.18504999999999994  1.0000
  C   C25       1.0  0.99744  0.31283  0.3102199999999999  1.0000
  C   C26       1.0  0.14518000000000006  0.37530000000000013  0.37816  1.0000
  C   C27       1.0  0.17295  0.42243000000000014  0.48282  1.0000
  C   C28       1.0  0.15879  0.47379  0.62502  1.0000
  C   C29       1.0  0.10722999999999984  0.48681  0.7087699999999998  1.0000
  C   C30       1.0  0.9716099999999999  0.42109  0.69939  1.0000
  C   C31       1.0  0.9389799999999998  0.4297699999999999  0.7831399999999997  1.0000
  C   C32       1.0  0.15674999999999997  0.56724  0.8827499999999999  1.0000
  C   C33       1.0  0.19852000000000006  0.5627800000000002  0.80294  1.0000
  C   C34       1.0  0.10514  0.09917000000000002  0.35144  1.0000
  C   C35       1.0  0.18956999999999996  0.10314000000000002  0.28864  1.0000
  C   C36       1.0  0.31586  0.0024000000000000163  0.31268  1.0000
  C   C37       1.0  0.2304500000000001  0.9968700000000003  0.37516  1.0000
  C   C38       1.0  0.24952000000000008  0.9393300000000002  0.42214  1.0000
  C   C39       1.0  0.31472  0.8487  0.47367999999999993  1.0000
  C   C40       1.0  0.37940000000000007  0.7781100000000001  0.48684  1.0000
  C   C41       1.0  0.4495499999999999  0.7214799999999999  0.4210799999999999  1.0000
  C   C42       1.0  0.491  0.64641  0.42966  1.0000
  C   C43       1.0  0.41037999999999997  0.68483  0.5672099999999999  1.0000
  C   C44       1.0  0.364  0.76018  0.56282  1.0000
  C   C45       1.0  0.006369999999999872  0.25230999999999987  0.9008699999999997  1.0000
  C   C46       1.0  0.08646999999999995  0.18529000000000004  0.89681  1.0000
  C   C47       1.0  0.31341999999999987  0.31008999999999987  0.9975099999999998  1.0000
  C   C48       1.0  0.23379  0.37828  0.0030999999999999995  1.0000
  C   C49       1.0  0.31007  0.48292  0.060629999999999996  1.0000
  C   C50       1.0  0.4657  0.62513  0.15132  1.0000
  C   C51       1.0  0.6009199999999999  0.70864  0.22184  1.0000
  C   C52       1.0  0.7270499999999996  0.69901  0.27795  1.0000
  C   C53       1.0  0.84371  0.7826400000000002  0.35288  1.0000
  C   C54       1.0  0.7257799999999998  0.88245  0.3152599999999999  1.0000
  C   C55       1.0  0.60399  0.80277  0.24007  1.0000
  C   C56       1.0  0.75395  0.64879  0.74823  1.0000
  C   C57       1.0  0.9010199999999999  0.71158  0.8149499999999997  1.0000
  C   C58       1.0  0.0025500000000000357  0.6871700000000001  0.6897799999999998  1.0000
  C   C59       1.0  0.8548099999999998  0.6247  0.62184  1.0000
  C   C60       1.0  0.8270399999999999  0.5775700000000002  0.51718  1.0000
  C   C61       1.0  0.8412  0.52621  0.37498  1.0000
  C   C62       1.0  0.89276  0.51318  0.29124  1.0000
  C   C63       1.0  0.028379999999999992  0.5789000000000001  0.3006099999999999  1.0000
  C   C64       1.0  0.061010000000000036  0.5702300000000002  0.21686999999999995  1.0000
  C   C65       1.0  0.84324  0.43275000000000013  0.11725  1.0000
  C   C66       1.0  0.8014699999999999  0.43722000000000005  0.19705999999999996  1.0000
  N   N1        1.0  0.87554  0.95409  0.60556  1.0000
  N   N2        1.0  0.7046599999999998  0.94529  0.7312  1.0000
  N   N3        1.0  0.83288  0.06115999999999993  0.5159799999999999  1.0000
  N   N4        1.0  0.79233  0.11885000000000003  0.48212999999999995  1.0000
  N   N5        1.0  0.65626  0.11728000000000004  0.58693  1.0000
  N   N6        1.0  0.53042  0.37322  0.49952  1.0000
  N   N7        1.0  0.92085  0.6513300000000002  0.04585999999999999  1.0000
  N   N8        1.0  0.75963  0.78625  0.05486  1.0000
  N   N9        1.0  0.77149  0.45452  0.939  1.0000
  N   N10       1.0  0.67324  0.3628600000000001  0.88114  1.0000
  N   N11       1.0  0.5395499999999999  0.46966999999999987  0.8826099999999998  1.0000
  N   N12       1.0  0.15748  0.12658  0.6271  1.0000
  N   N13       1.0  0.27007999999999993  0.39437  0.34822999999999993  1.0000
  N   N14       1.0  0.9737599999999998  0.2687500000000001  0.21384999999999998  1.0000
  N   N15       1.0  0.31673  0.4846800000000001  0.54544  1.0000
  N   N16       1.0  0.30963999999999997  0.5184599999999999  0.6370299999999999  1.0000
  N   N17       1.0  0.06971  0.41297  0.53018  1.0000
  N   N18       1.0  0.031079999999999965  0.50055  0.8737999999999999  1.0000
  N   N19       1.0  0.12445999999999996  0.04590999999999997  0.39443999999999996  1.0000
  N   N20       1.0  0.29533  0.05471000000000001  0.2688  1.0000
  N   N21       1.0  0.1671100000000001  0.93884  0.48403  1.0000
  N   N22       1.0  0.20766  0.88115  0.51788  1.0000
  N   N23       1.0  0.3437300000000001  0.8827200000000002  0.41308  1.0000
  N   N24       1.0  0.46957  0.62678  0.50048  1.0000
  N   N25       1.0  0.07914000000000002  0.3486700000000001  0.95414  1.0000
  N   N26       1.0  0.24037  0.21375  0.94514  1.0000
  N   N27       1.0  0.22849999999999998  0.54548  0.06100999999999999  1.0000
  N   N28       1.0  0.32674999999999993  0.63714  0.11886  1.0000
  N   N29       1.0  0.46043999999999996  0.53033  0.11738999999999997  1.0000
  N   N30       1.0  0.8425100000000001  0.8734200000000002  0.3728999999999999  1.0000
  N   N31       1.0  0.72991  0.6056300000000002  0.65178  1.0000
  N   N32       1.0  0.0262299999999999  0.73124  0.7861499999999998  1.0000
  N   N33       1.0  0.68326  0.5153200000000002  0.45456  1.0000
  N   N34       1.0  0.6903499999999999  0.48153999999999997  0.3629699999999999  1.0000
  N   N35       1.0  0.9302799999999999  0.58703  0.46981999999999996  1.0000
  N   N36       1.0  0.9689099999999999  0.49945  0.1262  1.0000
