data_image0
_chemical_formula_structural       La4H28C60O24
_chemical_formula_sum              "La4 H28 C60 O24"
_cell_length_a       13.62142
_cell_length_b       14.038559999999999
_cell_length_c       14.931310000000002
_cell_angle_alpha    93.96540000000002
_cell_angle_beta     90.05093
_cell_angle_gamma    118.91064000000001

_space_group_name_H-M_alt    "P 1"
_space_group_IT_number       1

loop_
  _space_group_symop_operation_xyz
  'x, y, z'

loop_
  _atom_site_type_symbol
  _atom_site_label
  _atom_site_symmetry_multiplicity
  _atom_site_fract_x
  _atom_site_fract_y
  _atom_site_fract_z
  _atom_site_occupancy
  La  La1       1.0  0.88453  0.34614  0.9813099999999998  1.0000
  La  La2       1.0  0.5376099999999998  0.6532699999999998  0.51778  1.0000
  La  La3       1.0  0.11546000000000006  0.65387  0.01869  1.0000
  La  La4       1.0  0.46237999999999996  0.3467399999999999  0.48221999999999987  1.0000
  H   H1        1.0  0.6761199999999999  0.43236999999999987  0.20864  1.0000
  H   H2        1.0  0.66475  0.72962  0.2756299999999999  1.0000
  H   H3        1.0  0.86902  0.71403  0.060379999999999996  1.0000
  H   H4        1.0  0.6279899999999999  0.82094  0.17377999999999993  1.0000
  H   H5        1.0  0.6579599999999999  0.9946899999999999  0.11463  1.0000
  H   H6        1.0  0.99369  0.0726  0.04981999999999999  1.0000
  H   H7        1.0  0.9649  0.89831  0.10663999999999997  1.0000
  H   H8        1.0  0.24265999999999996  0.5666699999999999  0.2900799999999999  1.0000
  H   H9        1.0  0.93434  0.26924  0.22513  1.0000
  H   H10       1.0  0.15640999999999994  0.28619999999999995  0.4393799999999999  1.0000
  H   H11       1.0  0.80857  0.18093999999999996  0.32737  1.0000
  H   H12       1.0  0.6638799999999998  0.006609999999999998  0.38453  1.0000
  H   H13       1.0  0.9199799999999998  0.9260999999999999  0.45027  1.0000
  H   H14       1.0  0.06623999999999998  0.10053999999999998  0.39463  1.0000
  H   H15       1.0  0.3238799999999999  0.5676299999999999  0.7913599999999997  1.0000
  H   H16       1.0  0.33525  0.27039  0.72437  1.0000
  H   H17       1.0  0.13098  0.28597  0.9396199999999998  1.0000
  H   H18       1.0  0.372  0.17906  0.82622  1.0000
  H   H19       1.0  0.34202999999999995  0.005320000000000001  0.88538  1.0000
  H   H20       1.0  0.006299999999999816  0.9273999999999997  0.9501799999999998  1.0000
  H   H21       1.0  0.03509999999999999  0.10168999999999999  0.89336  1.0000
  H   H22       1.0  0.75734  0.43333  0.70992  1.0000
  H   H23       1.0  0.06564999999999985  0.7307599999999996  0.7748699999999997  1.0000
  H   H24       1.0  0.8435899999999997  0.7137999999999998  0.56062  1.0000
  H   H25       1.0  0.19143  0.81906  0.6726299999999997  1.0000
  H   H26       1.0  0.33611999999999986  0.99339  0.61547  1.0000
  H   H27       1.0  0.08001999999999998  0.07390999999999999  0.54974  1.0000
  H   H28       1.0  0.9337499999999997  0.89947  0.60538  1.0000
  C   C1        1.0  0.817  0.5028  0.07221  1.0000
  C   C2        1.0  0.7773699999999999  0.5676099999999998  0.12935999999999998  1.0000
  C   C3        1.0  0.70294  0.51708  0.19737  1.0000
  C   C4        1.0  0.6650999999999999  0.5773499999999999  0.25122  1.0000
  C   C5        1.0  0.6970399999999999  0.68527  0.23381999999999994  1.0000
  C   C6        1.0  0.7689299999999997  0.7358099999999997  0.1645  1.0000
  C   C7        1.0  0.8118099999999999  0.6766599999999998  0.11403999999999997  1.0000
  C   C8        1.0  0.59035  0.52954  0.3275  1.0000
  C   C9        1.0  0.7930499999999999  0.84573  0.1414  1.0000
  C   C10       1.0  0.70846  0.8760799999999999  0.14703  1.0000
  C   C11       1.0  0.7243399999999998  0.9726599999999997  0.11408999999999997  1.0000
  C   C12       1.0  0.8262  0.04183999999999999  0.07595  1.0000
  C   C13       1.0  0.91382  0.016239999999999994  0.07645999999999997  1.0000
  C   C14       1.0  0.89748  0.91904  0.10845  1.0000
  C   C15       1.0  0.83882  0.13756  0.030539999999999994  1.0000
  C   C16       1.0  0.31455999999999995  0.49719  0.4261399999999999  1.0000
  C   C17       1.0  0.2098899999999999  0.4319299999999999  0.3696599999999999  1.0000
  C   C18       1.0  0.18510999999999994  0.4820899999999999  0.30171  1.0000
  C   C19       1.0  0.08642  0.42174  0.24869999999999995  1.0000
  C   C20       1.0  0.011079999999999937  0.3140499999999999  0.26671  1.0000
  C   C21       1.0  0.03333999999999997  0.26389999999999997  0.3359899999999999  1.0000
  C   C22       1.0  0.13578  0.32314  0.38572  1.0000
  C   C23       1.0  0.05834000000000002  0.46895  0.17253  1.0000
  C   C24       1.0  0.94778  0.15436999999999995  0.3595799999999999  1.0000
  C   C25       1.0  0.83316  0.12495999999999997  0.3537999999999999  1.0000
  C   C26       1.0  0.7520899999999999  0.02816  0.38585  1.0000
  C   C27       1.0  0.7840299999999998  0.9581099999999997  0.42370999999999986  1.0000
  C   C28       1.0  0.8970799999999998  0.98321  0.42396  1.0000
  C   C29       1.0  0.9783199999999997  0.08047999999999998  0.3925699999999999  1.0000
  C   C30       1.0  0.7003099999999999  0.8615599999999999  0.4677699999999999  1.0000
  C   C31       1.0  0.18299999999999997  0.4971999999999999  0.9277899999999998  1.0000
  C   C32       1.0  0.22262999999999997  0.43239  0.8706499999999998  1.0000
  C   C33       1.0  0.29705999999999994  0.48291999999999996  0.80263  1.0000
  C   C34       1.0  0.3348999999999999  0.4226499999999999  0.7487799999999998  1.0000
  C   C35       1.0  0.30294999999999983  0.3147299999999999  0.76618  1.0000
  C   C36       1.0  0.23107  0.26419  0.8355  1.0000
  C   C37       1.0  0.1881799999999999  0.3233399999999999  0.88596  1.0000
  C   C38       1.0  0.40965  0.47046  0.6724999999999998  1.0000
  C   C39       1.0  0.20693999999999999  0.15426999999999996  0.8585999999999999  1.0000
  C   C40       1.0  0.29154  0.12392  0.85297  1.0000
  C   C41       1.0  0.27565  0.027339999999999975  0.8859099999999998  1.0000
  C   C42       1.0  0.1738  0.95817  0.92405  1.0000
  C   C43       1.0  0.08617  0.98376  0.92354  1.0000
  C   C44       1.0  0.10252  0.08095999999999998  0.8915499999999997  1.0000
  C   C45       1.0  0.16117999999999988  0.8624399999999998  0.96946  1.0000
  C   C46       1.0  0.68544  0.5028099999999999  0.57386  1.0000
  C   C47       1.0  0.7901099999999999  0.56807  0.6303399999999999  1.0000
  C   C48       1.0  0.81488  0.51791  0.69829  1.0000
  C   C49       1.0  0.91357  0.57826  0.7513  1.0000
  C   C50       1.0  0.98892  0.6859499999999998  0.7332899999999998  1.0000
  C   C51       1.0  0.9666499999999999  0.7360999999999998  0.66401  1.0000
  C   C52       1.0  0.86421  0.67686  0.61428  1.0000
  C   C53       1.0  0.9416499999999998  0.5310599999999998  0.8274699999999998  1.0000
  C   C54       1.0  0.05221000000000001  0.84563  0.64042  1.0000
  C   C55       1.0  0.16682999999999995  0.8750499999999999  0.6461999999999999  1.0000
  C   C56       1.0  0.24790999999999988  0.97184  0.61415  1.0000
  C   C57       1.0  0.21596999999999997  0.04188999999999998  0.57629  1.0000
  C   C58       1.0  0.10290999999999999  0.01679  0.57604  1.0000
  C   C59       1.0  0.021679999999999994  0.91952  0.60743  1.0000
  C   C60       1.0  0.29969  0.13844000000000004  0.53223  1.0000
  O   O1        1.0  0.7559199999999999  0.39991  0.05958999999999998  1.0000
  O   O2        1.0  0.91384  0.5524299999999999  0.03625  1.0000
  O   O3        1.0  0.5590699999999997  0.4311999999999999  0.34515  1.0000
  O   O4        1.0  0.56126  0.59228  0.3723399999999999  1.0000
  O   O5        1.0  0.7594  0.16249  0.03169  1.0000
  O   O6        1.0  0.92996  0.19573999999999994  0.98993  1.0000
  O   O7        1.0  0.35716999999999977  0.6003699999999997  0.4364099999999999  1.0000
  O   O8        1.0  0.36108999999999997  0.4477899999999999  0.46388999999999997  1.0000
  O   O9        1.0  0.12423  0.56746  0.15493  1.0000
  O   O10       1.0  0.9668899999999999  0.40533  0.12764  1.0000
  O   O11       1.0  0.59566  0.83518  0.46385  1.0000
  O   O12       1.0  0.73312  0.8042299999999999  0.51009  1.0000
  O   O13       1.0  0.24406999999999993  0.6000899999999998  0.9404099999999997  1.0000
  O   O14       1.0  0.08615  0.44757  0.9637499999999998  1.0000
  O   O15       1.0  0.4409299999999998  0.5687999999999998  0.6548499999999998  1.0000
  O   O16       1.0  0.43874  0.40771999999999986  0.6276599999999998  1.0000
  O   O17       1.0  0.24059999999999993  0.8375099999999999  0.96831  1.0000
  O   O18       1.0  0.07003999999999984  0.8042599999999998  0.010069999999999997  1.0000
  O   O19       1.0  0.64283  0.39963999999999994  0.5635899999999998  1.0000
  O   O20       1.0  0.6388999999999999  0.5522199999999999  0.53611  1.0000
  O   O21       1.0  0.87577  0.43253999999999987  0.8450699999999998  1.0000
  O   O22       1.0  0.033109999999999834  0.5946799999999998  0.8723599999999998  1.0000
  O   O23       1.0  0.40433  0.16482  0.53615  1.0000
  O   O24       1.0  0.26687999999999995  0.19577999999999998  0.48991  1.0000
