data_image0
_chemical_formula_structural       Zn8H24C48O26
_chemical_formula_sum              "Zn8 H24 C48 O26"
_cell_length_a       18.4578
_cell_length_b       18.45777
_cell_length_c       18.45779
_cell_angle_alpha    59.95643999999999
_cell_angle_beta     59.965819999999994
_cell_angle_gamma    59.96578000000002

_symmetry_space_group_name_H-M    'P 1'
_symmetry_Int_Tables_number       1

loop_
  _symmetry_equiv_pos_as_xyz
  'x,y,z'

loop_
  _atom_site_type_symbol
  _atom_site_label
  _atom_site_symmetry_multiplicity
  _atom_site_fract_x
  _atom_site_fract_y
  _atom_site_fract_z
  _atom_site_occupancy
  Zn  Zn1       1.0  0.8805300000000001  0.70648  0.70647  1.0000
  Zn  Zn2       1.0  0.7064700000000002  0.8805499999999996  0.70648  1.0000
  Zn  Zn3       1.0  0.7064999999999999  0.70649  0.7064899999999998  1.0000
  Zn  Zn4       1.0  0.7064699999999999  0.70648  0.88054  1.0000
  Zn  Zn5       1.0  0.11945999999999998  0.29353  0.29353  1.0000
  Zn  Zn6       1.0  0.29353  0.11946000000000001  0.29352  1.0000
  Zn  Zn7       1.0  0.29353  0.29352  0.11946  1.0000
  Zn  Zn8       1.0  0.29349000000000003  0.2935099999999999  0.29351  1.0000
  H   H1        1.0  0.06821999999999996  0.54813  0.83553  1.0000
  H   H2        1.0  0.5481  0.06817999999999998  0.5481  1.0000
  H   H3        1.0  0.5481400000000003  0.83555  0.54814  1.0000
  H   H4        1.0  0.83554  0.54812  0.06822  1.0000
  H   H5        1.0  0.54812  0.06822999999999996  0.83553  1.0000
  H   H6        1.0  0.83556  0.54813  0.54813  1.0000
  H   H7        1.0  0.06818000000000014  0.5480999999999998  0.5481  1.0000
  H   H8        1.0  0.5481200000000003  0.8355299999999998  0.06823  1.0000
  H   H9        1.0  0.54814  0.54814  0.83555  1.0000
  H   H10       1.0  0.06822000000000021  0.8355299999999996  0.54813  1.0000
  H   H11       1.0  0.8355400000000001  0.06822000000000003  0.54812  1.0000
  H   H12       1.0  0.5481000000000003  0.5480999999999998  0.06818  1.0000
  H   H13       1.0  0.93182  0.45191  0.45191  1.0000
  H   H14       1.0  0.45188  0.93177  0.16447  1.0000
  H   H15       1.0  0.45188  0.16447  0.93177  1.0000
  H   H16       1.0  0.16444000000000009  0.4518699999999998  0.45187  1.0000
  H   H17       1.0  0.4519000000000002  0.9318299999999999  0.4519  1.0000
  H   H18       1.0  0.1644599999999999  0.45188  0.93179  1.0000
  H   H19       1.0  0.9317799999999999  0.45186999999999994  0.16447  1.0000
  H   H20       1.0  0.45186000000000004  0.16446000000000002  0.45185999999999993  1.0000
  H   H21       1.0  0.45189999999999997  0.45191  0.93182  1.0000
  H   H22       1.0  0.9317799999999999  0.16446999999999998  0.45187  1.0000
  H   H23       1.0  0.16446000000000002  0.93179  0.45188  1.0000
  H   H24       1.0  0.4518600000000001  0.45186  0.16446  1.0000
  C   C1        1.0  0.0391700000000001  0.5266799999999998  0.90748  1.0000
  C   C2        1.0  0.52666  0.03916000000000001  0.52666  1.0000
  C   C3        1.0  0.52669  0.90749  0.5267  1.0000
  C   C4        1.0  0.90748  0.5266799999999998  0.03917  1.0000
  C   C5        1.0  0.5266700000000001  0.03917999999999999  0.90748  1.0000
  C   C6        1.0  0.90749  0.52669  0.52669  1.0000
  C   C7        1.0  0.039160000000000014  0.52666  0.52666  1.0000
  C   C8        1.0  0.52667  0.90748  0.03918  1.0000
  C   C9        1.0  0.52669  0.5267  0.90749  1.0000
  C   C10       1.0  0.039169999999999906  0.9074800000000001  0.52668  1.0000
  C   C11       1.0  0.90748  0.03916999999999998  0.52667  1.0000
  C   C12       1.0  0.52666  0.52666  0.03916  1.0000
  C   C13       1.0  0.9608399999999999  0.47335000000000005  0.47334  1.0000
  C   C14       1.0  0.4733299999999999  0.96082  0.09253  1.0000
  C   C15       1.0  0.4733299999999999  0.09253  0.96082  1.0000
  C   C16       1.0  0.09251  0.47331000000000006  0.47330999999999995  1.0000
  C   C17       1.0  0.47334  0.9608400000000001  0.47334  1.0000
  C   C18       1.0  0.09251999999999998  0.4733299999999999  0.96083  1.0000
  C   C19       1.0  0.96083  0.4733199999999998  0.09253  1.0000
  C   C20       1.0  0.4733  0.09252000000000002  0.47330999999999995  1.0000
  C   C21       1.0  0.47333999999999987  0.47335  0.96084  1.0000
  C   C22       1.0  0.96083  0.09253  0.47332  1.0000
  C   C23       1.0  0.09251999999999988  0.9608300000000001  0.47333  1.0000
  C   C24       1.0  0.4733  0.47330999999999995  0.09252  1.0000
  C   C25       1.0  0.8890000000000002  0.6109999999999998  0.889  1.0000
  C   C26       1.0  0.94632  0.5536799999999997  0.94632  1.0000
  C   C27       1.0  0.6109999999999999  0.8889900000000001  0.611  1.0000
  C   C28       1.0  0.55368  0.94632  0.55368  1.0000
  C   C29       1.0  0.6110000000000001  0.8890099999999995  0.88901  1.0000
  C   C30       1.0  0.5536799999999998  0.9463299999999999  0.94632  1.0000
  C   C31       1.0  0.8889900000000003  0.6109999999999995  0.611  1.0000
  C   C32       1.0  0.94631  0.5536799999999997  0.55368  1.0000
  C   C33       1.0  0.611  0.611  0.88899  1.0000
  C   C34       1.0  0.55368  0.5536799999999998  0.9463099999999998  1.0000
  C   C35       1.0  0.8890000000000008  0.889  0.611  1.0000
  C   C36       1.0  0.9463199999999999  0.94632  0.55368  1.0000
  C   C37       1.0  0.11101000000000011  0.38901  0.3890099999999999  1.0000
  C   C38       1.0  0.05368999999999999  0.44633000000000006  0.44633  1.0000
  C   C39       1.0  0.389  0.111  0.111  1.0000
  C   C40       1.0  0.44632  0.053680000000000005  0.05368  1.0000
  C   C41       1.0  0.389  0.11101000000000001  0.389  1.0000
  C   C42       1.0  0.44632  0.053689999999999946  0.44632  1.0000
  C   C43       1.0  0.11100000000000004  0.3889999999999999  0.111  1.0000
  C   C44       1.0  0.053680000000000096  0.4463199999999999  0.05368  1.0000
  C   C45       1.0  0.38900000000000007  0.3889999999999999  0.11101  1.0000
  C   C46       1.0  0.4463200000000001  0.4463199999999999  0.053689999999999995  1.0000
  C   C47       1.0  0.111  0.111  0.389  1.0000
  C   C48       1.0  0.053679999999999985  0.05368  0.44632  1.0000
  O   O1        1.0  0.7499899999999999  0.7499900000000002  0.7499899999999998  1.0000
  O   O2        1.0  0.25001  0.25002  0.25002  1.0000
  O   O3        1.0  0.92877  0.63311  0.80501  1.0000
  O   O4        1.0  0.6331000000000002  0.9287199999999997  0.6331  1.0000
  O   O5        1.0  0.63312  0.80501  0.63312  1.0000
  O   O6        1.0  0.8050199999999998  0.63311  0.92877  1.0000
  O   O7        1.0  0.63311  0.92878  0.80501  1.0000
  O   O8        1.0  0.8050200000000002  0.6331199999999998  0.63312  1.0000
  O   O9        1.0  0.9287200000000001  0.6331  0.6331  1.0000
  O   O10       1.0  0.63311  0.8050100000000001  0.92878  1.0000
  O   O11       1.0  0.6331200000000001  0.6331199999999997  0.80501  1.0000
  O   O12       1.0  0.92877  0.8050100000000001  0.63311  1.0000
  O   O13       1.0  0.80502  0.9287700000000001  0.63311  1.0000
  O   O14       1.0  0.6331000000000001  0.6331  0.92872  1.0000
  O   O15       1.0  0.07128  0.36691  0.3669  1.0000
  O   O16       1.0  0.36689  0.07122000000000002  0.19499  1.0000
  O   O17       1.0  0.36688999999999994  0.19499  0.07122  1.0000
  O   O18       1.0  0.19498  0.3668799999999999  0.36688  1.0000
  O   O19       1.0  0.3669  0.07128  0.3669  1.0000
  O   O20       1.0  0.19498  0.36689  0.07123  1.0000
  O   O21       1.0  0.07123000000000002  0.36689  0.19499  1.0000
  O   O22       1.0  0.36688  0.19499  0.36688  1.0000
  O   O23       1.0  0.36689999999999995  0.3669  0.07128  1.0000
  O   O24       1.0  0.07122999999999999  0.19499  0.36689  1.0000
  O   O25       1.0  0.19498  0.07123  0.36689  1.0000
  O   O26       1.0  0.3668800000000001  0.3668799999999999  0.19499  1.0000
