data_image0
_chemical_formula_structural       Cd4Ni4H72C44N24
_chemical_formula_sum              "Cd4 Ni4 H72 C44 N24"
_cell_length_a       8.04555
_cell_length_b       13.90757
_cell_length_c       28.04229
_cell_angle_alpha    90.0
_cell_angle_beta     90.0
_cell_angle_gamma    90.0

_symmetry_space_group_name_H-M    'P 1'
_symmetry_Int_Tables_number       1

loop_
  _symmetry_equiv_pos_as_xyz
  'x,y,z'

loop_
  _atom_site_type_symbol
  _atom_site_label
  _atom_site_symmetry_multiplicity
  _atom_site_fract_x
  _atom_site_fract_y
  _atom_site_fract_z
  _atom_site_occupancy
  Cd  Cd1       1.0  0.0  0.77181  0.76328  1.0000
  Cd  Cd2       1.0  0.9999900000000002  0.22819000000000006  0.23672  1.0000
  Cd  Cd3       1.0  1e-05  0.7281900000000002  0.26328  1.0000
  Cd  Cd4       1.0  0.0  0.27181  0.73673  1.0000
  Ni  Ni1       1.0  0.5  0.51799  0.79111  1.0000
  Ni  Ni2       1.0  0.5  0.48202  0.20889  1.0000
  Ni  Ni3       1.0  0.5  0.9820200000000002  0.29111000000000004  1.0000
  Ni  Ni4       1.0  0.5  0.01798  0.7089  1.0000
  H   H1        1.0  0.89757  0.6244600000000002  0.70049  1.0000
  H   H2        1.0  0.89105  0.76485  0.64957  1.0000
  H   H3        1.0  0.89085  0.6036  0.6076800000000001  1.0000
  H   H4        1.0  0.89117  0.7555500000000002  0.5583  1.0000
  H   H5        1.0  0.89112  0.59495  0.51635  1.0000
  H   H6        1.0  0.89115  0.7470900000000003  0.46705  1.0000
  H   H7        1.0  0.89087  0.58635  0.42501  1.0000
  H   H8        1.0  0.10888  0.76062  0.87588  1.0000
  H   H9        1.0  0.10224  0.9102700000000002  0.83231  1.0000
  H   H10       1.0  0.89757  0.3755400000000001  0.29951  1.0000
  H   H11       1.0  0.89105  0.23515000000000005  0.35044  1.0000
  H   H12       1.0  0.89085  0.3964  0.39233  1.0000
  H   H13       1.0  0.89117  0.24445  0.44171  1.0000
  H   H14       1.0  0.89112  0.40505000000000013  0.48365  1.0000
  H   H15       1.0  0.89115  0.25291  0.53296  1.0000
  H   H16       1.0  0.89087  0.41365  0.57499  1.0000
  H   H17       1.0  0.10888  0.23938000000000006  0.12412  1.0000
  H   H18       1.0  0.10224  0.08974  0.16769  1.0000
  H   H19       1.0  0.10243  0.87554  0.20049  1.0000
  H   H20       1.0  0.10895  0.7351500000000002  0.14956  1.0000
  H   H21       1.0  0.10915  0.8964  0.10767000000000003  1.0000
  H   H22       1.0  0.10883  0.74445  0.0583  1.0000
  H   H23       1.0  0.10888  0.9050600000000001  0.01635  1.0000
  H   H24       1.0  0.10885  0.75292  0.9670500000000002  1.0000
  H   H25       1.0  0.10913  0.91366  0.92501  1.0000
  H   H26       1.0  0.89112  0.7393800000000003  0.37588  1.0000
  H   H27       1.0  0.89776  0.5897400000000002  0.33231  1.0000
  H   H28       1.0  0.10243  0.12446  0.79951  1.0000
  H   H29       1.0  0.10895  0.26485  0.85044  1.0000
  H   H30       1.0  0.10915  0.1036  0.8923300000000002  1.0000
  H   H31       1.0  0.10883  0.25555  0.94171  1.0000
  H   H32       1.0  0.10888  0.09495  0.9836500000000001  1.0000
  H   H33       1.0  0.10885  0.24709000000000006  0.03296  1.0000
  H   H34       1.0  0.10913  0.08635000000000001  0.07499  1.0000
  H   H35       1.0  0.89112  0.26062  0.62413  1.0000
  H   H36       1.0  0.89776  0.41027000000000013  0.6677  1.0000
  H   H37       1.0  0.10243  0.3755400000000001  0.29951  1.0000
  H   H38       1.0  0.10895  0.23515000000000005  0.35044  1.0000
  H   H39       1.0  0.10915  0.3964  0.39233  1.0000
  H   H40       1.0  0.10883  0.24445  0.44171  1.0000
  H   H41       1.0  0.10888  0.40505000000000013  0.48365  1.0000
  H   H42       1.0  0.10885  0.25291  0.53296  1.0000
  H   H43       1.0  0.10913  0.41365  0.57499  1.0000
  H   H44       1.0  0.89112  0.23938000000000006  0.12412  1.0000
  H   H45       1.0  0.89776  0.08974  0.1677  1.0000
  H   H46       1.0  0.10243  0.6244600000000002  0.70049  1.0000
  H   H47       1.0  0.10895  0.76485  0.64957  1.0000
  H   H48       1.0  0.10915  0.6036  0.6076800000000001  1.0000
  H   H49       1.0  0.10883  0.7555500000000002  0.5583  1.0000
  H   H50       1.0  0.10888  0.59495  0.51635  1.0000
  H   H51       1.0  0.10885  0.7470900000000003  0.46705  1.0000
  H   H52       1.0  0.10913  0.58635  0.42501  1.0000
  H   H53       1.0  0.89112  0.76062  0.87588  1.0000
  H   H54       1.0  0.89776  0.9102700000000002  0.83231  1.0000
  H   H55       1.0  0.89757  0.12446  0.79951  1.0000
  H   H56       1.0  0.89105  0.26485  0.85044  1.0000
  H   H57       1.0  0.89085  0.1036  0.8923300000000002  1.0000
  H   H58       1.0  0.89117  0.25555  0.94171  1.0000
  H   H59       1.0  0.89112  0.09495  0.9836500000000001  1.0000
  H   H60       1.0  0.89115  0.24709000000000006  0.03296  1.0000
  H   H61       1.0  0.89087  0.08635000000000001  0.07499  1.0000
  H   H62       1.0  0.10888  0.26062  0.62413  1.0000
  H   H63       1.0  0.10224  0.41027000000000013  0.6677  1.0000
  H   H64       1.0  0.89757  0.87554  0.20049  1.0000
  H   H65       1.0  0.89105  0.7351500000000002  0.14956  1.0000
  H   H66       1.0  0.89085  0.8964  0.10767000000000003  1.0000
  H   H67       1.0  0.89117  0.74445  0.0583  1.0000
  H   H68       1.0  0.89112  0.9050600000000001  0.01635  1.0000
  H   H69       1.0  0.89115  0.75292  0.9670500000000002  1.0000
  H   H70       1.0  0.89087  0.91366  0.92501  1.0000
  H   H71       1.0  0.10888  0.7393800000000003  0.37588  1.0000
  H   H72       1.0  0.10224  0.5897400000000002  0.33231  1.0000
  C   C1        1.0  0.67934  0.61805  0.79747  1.0000
  C   C2        1.0  0.31942  0.9199200000000001  0.72004  1.0000
  C   C3        1.0  0.67934  0.38196  0.20250000000000007  1.0000
  C   C4        1.0  0.31943  0.08007  0.27994  1.0000
  C   C5        1.0  0.32066  0.8819600000000001  0.29751  1.0000
  C   C6        1.0  0.68058  0.58007  0.22006  1.0000
  C   C7        1.0  0.32066  0.11805  0.7025200000000001  1.0000
  C   C8        1.0  0.68058  0.4199200000000001  0.77997  1.0000
  C   C9        1.0  0.32067  0.3819500000000001  0.20255  1.0000
  C   C10       1.0  0.68059  0.0801  0.28  1.0000
  C   C11       1.0  0.32066  0.61805  0.79748  1.0000
  C   C12       1.0  0.68058  0.9199200000000001  0.72003  1.0000
  C   C13       1.0  0.67934  0.11805  0.70253  1.0000
  C   C14       1.0  0.31942  0.4199200000000001  0.7799600000000002  1.0000
  C   C15       1.0  0.67933  0.8819500000000002  0.29745  1.0000
  C   C16       1.0  0.31942  0.5801  0.22001  1.0000
  C   C17       1.0  0.0  0.7173500000000002  0.64998  1.0000
  C   C18       1.0  0.0  0.65124  0.60645  1.0000
  C   C19       1.0  0.0  0.7077100000000002  0.55943  1.0000
  C   C20       1.0  0.0  0.6428000000000001  0.51521  1.0000
  C   C21       1.0  0.0  0.69924  0.46822000000000014  1.0000
  C   C22       1.0  0.0  0.63409  0.42406  1.0000
  C   C23       1.0  0.0  0.80805  0.8777  1.0000
  C   C24       1.0  0.0  0.28266  0.35002  1.0000
  C   C25       1.0  0.0  0.34876  0.39355  1.0000
  C   C26       1.0  0.0  0.2923000000000001  0.44057  1.0000
  C   C27       1.0  0.0  0.35720000000000013  0.48479  1.0000
  C   C28       1.0  0.0  0.3007600000000001  0.53179  1.0000
  C   C29       1.0  0.0  0.36591  0.57594  1.0000
  C   C30       1.0  0.0  0.19195  0.12230000000000002  1.0000
  C   C31       1.0  0.0  0.78266  0.14998  1.0000
  C   C32       1.0  0.0  0.8487600000000002  0.10645  1.0000
  C   C33       1.0  0.0  0.7923000000000002  0.05943  1.0000
  C   C34       1.0  0.0  0.8572  0.01521  1.0000
  C   C35       1.0  0.0  0.8007600000000002  0.96822  1.0000
  C   C36       1.0  0.0  0.86591  0.9240600000000002  1.0000
  C   C37       1.0  0.0  0.6919500000000001  0.3777  1.0000
  C   C38       1.0  0.0  0.21734  0.85002  1.0000
  C   C39       1.0  0.0  0.15124  0.89355  1.0000
  C   C40       1.0  0.0  0.20770000000000005  0.9405700000000001  1.0000
  C   C41       1.0  0.0  0.1428  0.98479  1.0000
  C   C42       1.0  0.0  0.19924000000000006  0.03178  1.0000
  C   C43       1.0  0.0  0.13409  0.07594  1.0000
  C   C44       1.0  0.0  0.30805  0.62231  1.0000
  N   N1        1.0  0.78694  0.67506  0.79601  1.0000
  N   N2        1.0  0.20975  0.8676100000000001  0.72955  1.0000
  N   N3        1.0  0.78694  0.32494  0.20399000000000003  1.0000
  N   N4        1.0  0.20975  0.1324  0.27046  1.0000
  N   N5        1.0  0.21307  0.82495  0.29601  1.0000
  N   N6        1.0  0.79025  0.6324  0.22954  1.0000
  N   N7        1.0  0.21306  0.17506  0.7039900000000002  1.0000
  N   N8        1.0  0.79025  0.36761  0.77045  1.0000
  N   N9        1.0  0.21306  0.32494  0.20398  1.0000
  N   N10       1.0  0.79024  0.13239  0.27045  1.0000
  N   N11       1.0  0.21306  0.67506  0.79601  1.0000
  N   N12       1.0  0.79025  0.8676100000000001  0.72955  1.0000
  N   N13       1.0  0.78694  0.17506  0.7039900000000002  1.0000
  N   N14       1.0  0.20975  0.36761  0.77045  1.0000
  N   N15       1.0  0.78694  0.8249400000000001  0.29602  1.0000
  N   N16       1.0  0.20976  0.63239  0.22955  1.0000
  N   N17       1.0  0.0  0.66725  0.6964200000000002  1.0000
  N   N18       1.0  0.0  0.86668  0.83365  1.0000
  N   N19       1.0  0.0  0.3327600000000001  0.30358  1.0000
  N   N20       1.0  0.0  0.13332  0.16635000000000003  1.0000
  N   N21       1.0  0.0  0.83276  0.19642  1.0000
  N   N22       1.0  0.0  0.6333200000000002  0.33365  1.0000
  N   N23       1.0  0.0  0.16724  0.8035900000000002  1.0000
  N   N24       1.0  0.0  0.36668000000000006  0.66635  1.0000
