data_image0
_chemical_formula_structural       Cu3H50C56N18O18
_chemical_formula_sum              "Cu3 H50 C56 N18 O18"
_cell_length_a       11.92015
_cell_length_b       9.75674
_cell_length_c       14.414890000000002
_cell_angle_alpha    77.14728
_cell_angle_beta     66.01311
_cell_angle_gamma    66.64159

_space_group_name_H-M_alt    "P 1"
_space_group_IT_number       1

loop_
  _space_group_symop_operation_xyz
  'x, y, z'

loop_
  _atom_site_type_symbol
  _atom_site_label
  _atom_site_symmetry_multiplicity
  _atom_site_fract_x
  _atom_site_fract_y
  _atom_site_fract_z
  _atom_site_occupancy
  Cu  Cu1       1.0  0.1199100000000001  0.35064  0.34769000000000005  1.0000
  Cu  Cu2       1.0  0.88073  0.6490799999999999  0.6531300000000002  1.0000
  Cu  Cu3       1.0  0.5002500000000001  0.99992  0.0003  1.0000
  H   H1        1.0  0.48871  0.08749  0.8376  1.0000
  H   H2        1.0  0.6199700000000002  0.13049  0.10249  1.0000
  H   H3        1.0  0.7492300000000002  0.5301  0.22988000000000006  1.0000
  H   H4        1.0  0.35254  0.17713  0.63573  1.0000
  H   H5        1.0  0.20761999999999994  0.28265  0.98288  1.0000
  H   H6        1.0  0.8470500000000001  0.35017  0.36257  1.0000
  H   H7        1.0  0.18304  0.99204  0.3846400000000001  1.0000
  H   H8        1.0  0.04587999999999995  0.69193  0.4058600000000001  1.0000
  H   H9        1.0  0.4009500000000001  0.36075  0.25462  1.0000
  H   H10       1.0  0.84138  0.9767099999999999  0.31706  1.0000
  H   H11       1.0  0.7214599999999999  0.08196999999999999  0.41977  1.0000
  H   H12       1.0  0.9227599999999999  0.20977  0.9631400000000001  1.0000
  H   H13       1.0  0.8109800000000001  0.3820799999999999  0.93952  1.0000
  H   H14       1.0  0.48732  0.6847099999999998  0.21914  1.0000
  H   H15       1.0  0.48402000000000006  0.62732  0.3441800000000001  1.0000
  H   H16       1.0  0.48235  0.56012  0.09003000000000003  1.0000
  H   H17       1.0  0.5940000000000002  0.65321  0.06307  1.0000
  H   H18       1.0  0.6309000000000001  0.5120999999999999  0.9858  1.0000
  H   H19       1.0  0.7016199999999999  0.09496999999999997  0.7922100000000002  1.0000
  H   H20       1.0  0.46918999999999994  0.39411  0.4467300000000001  1.0000
  H   H21       1.0  0.6100700000000001  0.26721  0.47049  1.0000
  H   H22       1.0  0.5957400000000003  0.45675999999999994  0.43522  1.0000
  H   H23       1.0  0.97763  0.99821  0.18403000000000005  1.0000
  H   H24       1.0  0.92438  0.99339  0.08806  1.0000
  H   H25       1.0  0.014909999999999998  0.11114999999999997  0.07012  1.0000
  H   H26       1.0  0.51253  0.91259  0.163  1.0000
  H   H27       1.0  0.3795700000000002  0.8705699999999998  0.8986  1.0000
  H   H28       1.0  0.25276  0.46840999999999994  0.7718800000000001  1.0000
  H   H29       1.0  0.6463300000000002  0.82231  0.3663000000000001  1.0000
  H   H30       1.0  0.7939500000000002  0.71546  0.01803  1.0000
  H   H31       1.0  0.15338  0.64908  0.63899  1.0000
  H   H32       1.0  0.8170999999999999  0.007400000000000004  0.61736  1.0000
  H   H33       1.0  0.95449  0.30798999999999993  0.5965500000000001  1.0000
  H   H34       1.0  0.5993800000000001  0.63927  0.74713  1.0000
  H   H35       1.0  0.15968  0.02301  0.6833  1.0000
  H   H36       1.0  0.27949999999999997  0.91693  0.5809400000000001  1.0000
  H   H37       1.0  0.07712000000000004  0.7911499999999999  0.03776  1.0000
  H   H38       1.0  0.18836999999999995  0.61873  0.0618  1.0000
  H   H39       1.0  0.5129799999999999  0.3153  0.78258  1.0000
  H   H40       1.0  0.5167300000000002  0.37239  0.65748  1.0000
  H   H41       1.0  0.51769  0.44035  0.9114500000000001  1.0000
  H   H42       1.0  0.40585  0.3473399999999999  0.9388200000000002  1.0000
  H   H43       1.0  0.36925  0.48893999999999993  0.0157  1.0000
  H   H44       1.0  0.29929999999999995  0.90456  0.20879000000000006  1.0000
  H   H45       1.0  0.53188  0.60641  0.55464  1.0000
  H   H46       1.0  0.39059  0.73138  0.53061  1.0000
  H   H47       1.0  0.40652  0.54152  0.56643  1.0000
  H   H48       1.0  0.022949999999999995  0.0018999999999999918  0.81646  1.0000
  H   H49       1.0  0.07504999999999995  0.006579999999999977  0.9131100000000002  1.0000
  H   H50       1.0  0.9850899999999999  0.8886499999999999  0.9301100000000002  1.0000
  C   C1        1.0  0.66349  0.13708  0.01929  1.0000
  C   C2        1.0  0.46239000000000013  0.04052000000000001  0.30623  1.0000
  C   C3        1.0  0.9313800000000002  0.57171  0.09136000000000002  1.0000
  C   C4        1.0  0.39354  0.12170999999999997  0.4865600000000001  1.0000
  C   C5        1.0  0.4758300000000001  0.02166  0.4089  1.0000
  C   C6        1.0  0.41806000000000004  0.09929  0.57688  1.0000
  C   C7        1.0  0.11668000000000003  0.3773099999999999  0.9906  1.0000
  C   C8        1.0  0.047970000000000006  0.44853999999999994  0.08187000000000001  1.0000
  C   C9        1.0  0.8526600000000001  0.65878  0.18458  1.0000
  C   C10       1.0  0.9166400000000001  0.23897  0.36748  1.0000
  C   C11       1.0  0.08722999999999995  0.053729999999999986  0.3794000000000001  1.0000
  C   C12       1.0  0.14912  0.63269  0.3691400000000001  1.0000
  C   C13       1.0  0.32927000000000006  0.46498000000000006  0.28822  1.0000
  C   C14       1.0  0.1042  0.39058  0.16545  1.0000
  C   C15       1.0  0.27430000000000004  0.25067  0.47841  1.0000
  C   C16       1.0  0.79924  0.08742999999999998  0.34647  1.0000
  C   C17       1.0  0.75925  0.30183  0.09920000000000002  1.0000
  C   C18       1.0  0.5934  0.44927999999999996  0.23999  1.0000
  C   C19       1.0  0.64806  0.42889000000000005  0.13478  1.0000
  C   C20       1.0  0.74907  0.20937  0.27297  1.0000
  C   C21       1.0  0.8132600000000001  0.19492  0.16729  1.0000
  C   C22       1.0  0.81873  0.2772  0.98739  1.0000
  C   C23       1.0  0.6401400000000003  0.33781  0.30977  1.0000
  C   C24       1.0  0.4824400000000001  0.59191  0.27793  1.0000
  C   C25       1.0  0.58682  0.5435299999999998  0.06425  1.0000
  C   C26       1.0  0.70562  0.12167999999999998  0.85964  1.0000
  C   C27       1.0  0.5757500000000002  0.36405999999999994  0.42123  1.0000
  C   C28       1.0  0.9387800000000002  0.06776  0.12582  1.0000
  C   C29       1.0  0.3362599999999999  0.8635000000000002  0.9818100000000001  1.0000
  C   C30       1.0  0.5388300000000001  0.9606299999999998  0.6945300000000002  1.0000
  C   C31       1.0  0.0702  0.4267  0.90985  1.0000
  C   C32       1.0  0.60605  0.87886  0.51495  1.0000
  C   C33       1.0  0.5242400000000002  0.9792999999999998  0.59235  1.0000
  C   C34       1.0  0.58153  0.9011399999999999  0.42467  1.0000
  C   C35       1.0  0.8849600000000002  0.62106  0.01062  1.0000
  C   C36       1.0  0.95335  0.54952  0.91956  1.0000
  C   C37       1.0  0.14899999999999988  0.34038  0.8162500000000003  1.0000
  C   C38       1.0  0.08407000000000002  0.76036  0.63352  1.0000
  C   C39       1.0  0.9132700000000004  0.94576  0.62198  1.0000
  C   C40       1.0  0.8512500000000001  0.3673  0.63298  1.0000
  C   C41       1.0  0.6710100000000002  0.5350299999999999  0.71362  1.0000
  C   C42       1.0  0.89604  0.60747  0.8365600000000001  1.0000
  C   C43       1.0  0.7243300000000003  0.74879  0.52357  1.0000
  C   C44       1.0  0.2016300000000003  0.9120299999999997  0.6542800000000001  1.0000
  C   C45       1.0  0.24082999999999993  0.69848  0.90199  1.0000
  C   C46       1.0  0.40705000000000024  0.55072  0.76147  1.0000
  C   C47       1.0  0.3520600000000002  0.57137  0.86664  1.0000
  C   C48       1.0  0.2516100000000001  0.7904799999999998  0.72803  1.0000
  C   C49       1.0  0.18708000000000002  0.80516  0.83367  1.0000
  C   C50       1.0  0.18105000000000002  0.7234299999999999  0.013750000000000004  1.0000
  C   C51       1.0  0.36060999999999993  0.6620099999999998  0.6914700000000003  1.0000
  C   C52       1.0  0.51804  0.40802  0.7237600000000002  1.0000
  C   C53       1.0  0.4131899999999999  0.45701  0.9373700000000003  1.0000
  C   C54       1.0  0.29491000000000017  0.87814  0.14144  1.0000
  C   C55       1.0  0.42545000000000005  0.63526  0.5801  1.0000
  C   C56       1.0  0.0613499999999999  0.93221  0.87486  1.0000
  N   N1        1.0  0.19888999999999996  0.49934999999999996  0.32629000000000014  1.0000
  N   N2        1.0  0.03195  0.20682999999999999  0.37682  1.0000
  N   N3        1.0  0.6325299999999999  0.08628999999999996  0.9567500000000002  1.0000
  N   N4        1.0  0.90412  0.10959999999999999  0.36415  1.0000
  N   N5        1.0  0.75248  0.20157000000000003  0.95965  1.0000
  N   N6        1.0  0.3548800000000001  0.57492  0.30824000000000007  1.0000
  N   N7        1.0  0.24208  0.68274  0.35933000000000004  1.0000
  N   N8        1.0  0.011300000000000062  0.9906299999999999  0.37186  1.0000
  N   N9        1.0  0.78084  0.19238  0.85851  1.0000
  N   N10       1.0  0.80135  0.5007  0.67573  1.0000
  N   N11       1.0  0.96865  0.79267  0.62425  1.0000
  N   N12       1.0  0.36759  0.9139299999999999  0.044270000000000004  1.0000
  N   N13       1.0  0.09662999999999977  0.8897100000000001  0.6368400000000001  1.0000
  N   N14       1.0  0.24745000000000003  0.79879  0.04154  1.0000
  N   N15       1.0  0.6455400000000004  0.42497999999999997  0.6936100000000001  1.0000
  N   N16       1.0  0.7584200000000002  0.31714999999999993  0.64263  1.0000
  N   N17       1.0  0.98932  0.008739999999999994  0.62945  1.0000
  N   N18       1.0  0.21956999999999996  0.80749  0.14269  1.0000
  O   O1        1.0  0.032389999999999995  0.45969  0.24928000000000003  1.0000
  O   O2        1.0  0.42912999999999996  0.12469999999999999  0.9067500000000002  1.0000
  O   O3        1.0  0.22168999999999997  0.21513999999999997  0.42663000000000006  1.0000
  O   O4        1.0  0.49552000000000007  0.14545999999999998  0.24561  1.0000
  O   O5        1.0  0.7550900000000001  0.61186  0.25501  1.0000
  O   O6        1.0  0.23379000000000003  0.36846999999999996  0.51914  1.0000
  O   O7        1.0  0.42869999999999997  0.94453  0.28727  1.0000
  O   O8        1.0  0.86675  0.77082  0.19491  1.0000
  O   O9        1.0  0.21015999999999999  0.28546  0.15303  1.0000
  O   O10       1.0  0.9685400000000001  0.54045  0.75202  1.0000
  O   O11       1.0  0.57145  0.87506  0.09374  1.0000
  O   O12       1.0  0.77887  0.7842499999999999  0.5737600000000002  1.0000
  O   O13       1.0  0.50532  0.85624  0.75554  1.0000
  O   O14       1.0  0.24599999999999997  0.38823  0.7457600000000001  1.0000
  O   O15       1.0  0.7624899999999997  0.63034  0.4842700000000001  1.0000
  O   O16       1.0  0.5743900000000001  0.05565  0.71254  1.0000
  O   O17       1.0  0.13545  0.22826000000000002  0.80546  1.0000
  O   O18       1.0  0.7887499999999998  0.7105  0.8504500000000002  1.0000
