data_image0
_chemical_formula_structural       La4H20C56N8O32
_chemical_formula_sum              "La4 H20 C56 N8 O32"
_cell_length_a       12.22697
_cell_length_b       12.70017
_cell_length_c       12.79458
_cell_angle_alpha    90.10289
_cell_angle_beta     89.92655000000002
_cell_angle_gamma    114.30325

_symmetry_space_group_name_H-M    'P 1'
_symmetry_Int_Tables_number       1

loop_
  _symmetry_equiv_pos_as_xyz
  'x,y,z'

loop_
  _atom_site_type_symbol
  _atom_site_label
  _atom_site_symmetry_multiplicity
  _atom_site_fract_x
  _atom_site_fract_y
  _atom_site_fract_z
  _atom_site_occupancy
  La  La1       1.0  0.55777  0.86261  0.45149  1.0000
  La  La2       1.0  0.44162000000000007  0.6363800000000001  0.95197  1.0000
  La  La3       1.0  0.44223  0.13739  0.5485  1.0000
  La  La4       1.0  0.55837  0.36362000000000005  0.04803  1.0000
  H   H1        1.0  0.62099  0.67669  0.28575  1.0000
  H   H2        1.0  0.20999000000000004  0.5717000000000001  0.15788  1.0000
  H   H3        1.0  0.06417000000000002  0.75518  0.3645800000000001  1.0000
  H   H4        1.0  0.03432000000000003  0.4514  0.12667  1.0000
  H   H5        1.0  0.9084000000000002  0.6787300000000002  0.29709  1.0000
  H   H6        1.0  0.3782800000000001  0.8218800000000003  0.78268  1.0000
  H   H7        1.0  0.78963  0.9284000000000002  0.65763  1.0000
  H   H8        1.0  0.93554  0.74537  0.86346  1.0000
  H   H9        1.0  0.96558  0.04846  0.62615  1.0000
  H   H10       1.0  0.09128000000000006  0.8216600000000002  0.79647  1.0000
  H   H11       1.0  0.37901  0.32331  0.71425  1.0000
  H   H12       1.0  0.79001  0.4283  0.8421200000000001  1.0000
  H   H13       1.0  0.93583  0.24482000000000007  0.6354200000000001  1.0000
  H   H14       1.0  0.9656800000000001  0.5486100000000002  0.87332  1.0000
  H   H15       1.0  0.09160000000000001  0.32127  0.7029100000000003  1.0000
  H   H16       1.0  0.62172  0.17812  0.21732  1.0000
  H   H17       1.0  0.21037  0.0716  0.34237  1.0000
  H   H18       1.0  0.06445000000000002  0.2546300000000001  0.13653  1.0000
  H   H19       1.0  0.03441999999999998  0.9515500000000001  0.37385  1.0000
  H   H20       1.0  0.90872  0.17834  0.20353000000000004  1.0000
  C   C1        1.0  0.43912  0.67956  0.23676  1.0000
  C   C2        1.0  0.2793500000000001  0.8917700000000001  0.44821  1.0000
  C   C3        1.0  0.80868  0.3117400000000001  0.04691  1.0000
  C   C4        1.0  0.67449  0.56039  0.2346  1.0000
  C   C5        1.0  0.32629000000000014  0.6904000000000001  0.26984  1.0000
  C   C6        1.0  0.21567000000000003  0.6306300000000001  0.22151000000000004  1.0000
  C   C7        1.0  0.11488999999999996  0.64672  0.25779  1.0000
  C   C8        1.0  0.13495000000000004  0.73254  0.33407  1.0000
  C   C9        1.0  0.24965  0.79066  0.37565  1.0000
  C   C10       1.0  0.84739  0.4152100000000001  0.12105  1.0000
  C   C11       1.0  0.9656800000000001  0.47907  0.15372  1.0000
  C   C12       1.0  0.9921400000000001  0.5765100000000001  0.21834000000000003  1.0000
  C   C13       1.0  0.89673  0.60522  0.24755000000000002  1.0000
  C   C14       1.0  0.7819800000000001  0.53642  0.21237000000000003  1.0000
  C   C15       1.0  0.55995  0.8187  0.7357  1.0000
  C   C16       1.0  0.72013  0.60833  0.9466600000000002  1.0000
  C   C17       1.0  0.19135  0.18846000000000004  0.54713  1.0000
  C   C18       1.0  0.32526  0.9397  0.73361  1.0000
  C   C19       1.0  0.67317  0.80928  0.76929  1.0000
  C   C20       1.0  0.7839000000000003  0.8694900000000002  0.72111  1.0000
  C   C21       1.0  0.88487  0.85385  0.75731  1.0000
  C   C22       1.0  0.86477  0.768  0.83327  1.0000
  C   C23       1.0  0.75014  0.7097  0.87481  1.0000
  C   C24       1.0  0.15273  0.08532  0.62134  1.0000
  C   C25       1.0  0.03429  0.02118  0.6534800000000001  1.0000
  C   C26       1.0  0.007740000000000007  0.92398  0.7180800000000002  1.0000
  C   C27       1.0  0.1030400000000001  0.8951900000000002  0.74714  1.0000
  C   C28       1.0  0.2178600000000001  0.9639600000000003  0.7121  1.0000
  C   C29       1.0  0.56088  0.32045  0.76324  1.0000
  C   C30       1.0  0.72064  0.10823  0.55179  1.0000
  C   C31       1.0  0.19132000000000007  0.6882600000000001  0.9530900000000001  1.0000
  C   C32       1.0  0.32551  0.43962  0.7654  1.0000
  C   C33       1.0  0.67371  0.3096  0.73016  1.0000
  C   C34       1.0  0.7843200000000001  0.36937  0.7784800000000001  1.0000
  C   C35       1.0  0.88511  0.35328  0.74221  1.0000
  C   C36       1.0  0.86505  0.26746000000000003  0.66593  1.0000
  C   C37       1.0  0.75035  0.20934000000000003  0.62435  1.0000
  C   C38       1.0  0.15261  0.58479  0.87895  1.0000
  C   C39       1.0  0.03431000000000004  0.5209300000000001  0.84627  1.0000
  C   C40       1.0  0.007850000000000013  0.42349000000000003  0.78166  1.0000
  C   C41       1.0  0.10327000000000003  0.39479  0.7524500000000002  1.0000
  C   C42       1.0  0.21802000000000005  0.4635800000000001  0.7876300000000003  1.0000
  C   C43       1.0  0.44004  0.1813  0.2643  1.0000
  C   C44       1.0  0.27986999999999995  0.39167  0.05334  1.0000
  C   C45       1.0  0.80865  0.81154  0.45287  1.0000
  C   C46       1.0  0.6747300000000002  0.06030000000000001  0.26639  1.0000
  C   C47       1.0  0.32682  0.19072  0.23071000000000003  1.0000
  C   C48       1.0  0.2161  0.13051  0.27889  1.0000
  C   C49       1.0  0.11513000000000001  0.14615  0.24269  1.0000
  C   C50       1.0  0.13522000000000006  0.232  0.16673  1.0000
  C   C51       1.0  0.24986  0.2903  0.12519  1.0000
  C   C52       1.0  0.8472600000000002  0.9146800000000003  0.37866  1.0000
  C   C53       1.0  0.9657  0.97882  0.34651  1.0000
  C   C54       1.0  0.99226  0.07602  0.28192  1.0000
  C   C55       1.0  0.89696  0.10481  0.25285  1.0000
  C   C56       1.0  0.78213  0.03604000000000001  0.28789  1.0000
  N   N1        1.0  0.34248  0.76536  0.34907  1.0000
  N   N2        1.0  0.75806  0.44383000000000006  0.15105  1.0000
  N   N3        1.0  0.6570799999999999  0.73464  0.8484900000000001  1.0000
  N   N4        1.0  0.24206  0.056910000000000016  0.65144  1.0000
  N   N5        1.0  0.65751  0.23464000000000004  0.6509300000000001  1.0000
  N   N6        1.0  0.24194000000000002  0.55617  0.8489500000000001  1.0000
  N   N7        1.0  0.34291  0.26536  0.15151  1.0000
  N   N8        1.0  0.75794  0.9431  0.34856000000000004  1.0000
  O   O1        1.0  0.52216  0.70948  0.30697  1.0000
  O   O2        1.0  0.44969  0.64626  0.14636  1.0000
  O   O3        1.0  0.38145  0.92521  0.4969500000000001  1.0000
  O   O4        1.0  0.2112  0.9424  0.45441  1.0000
  O   O5        1.0  0.70023  0.28136  0.01075  1.0000
  O   O6        1.0  0.87934  0.26703  0.02702  1.0000
  O   O7        1.0  0.57198  0.48734  0.21158  1.0000
  O   O8        1.0  0.69882  0.6616700000000001  0.27548  1.0000
  O   O9        1.0  0.47617  0.7881200000000002  0.80526  1.0000
  O   O10       1.0  0.54987  0.85141  0.6451  1.0000
  O   O11       1.0  0.61815  0.57577  0.99551  1.0000
  O   O12       1.0  0.78728  0.55655  0.95217  1.0000
  O   O13       1.0  0.30095  0.22096  0.51318  1.0000
  O   O14       1.0  0.11934000000000002  0.2309  0.52488  1.0000
  O   O15       1.0  0.42771  0.01318  0.7111200000000001  1.0000
  O   O16       1.0  0.30088000000000004  0.8377200000000001  0.77285  1.0000
  O   O17       1.0  0.47784  0.29052  0.6930300000000001  1.0000
  O   O18       1.0  0.55031  0.35374  0.85364  1.0000
  O   O19       1.0  0.61855  0.07479  0.50305  1.0000
  O   O20       1.0  0.7888000000000002  0.05760000000000001  0.54559  1.0000
  O   O21       1.0  0.29977000000000004  0.7186400000000001  0.9892500000000002  1.0000
  O   O22       1.0  0.1206600000000001  0.7329700000000002  0.97298  1.0000
  O   O23       1.0  0.42802  0.51266  0.78842  1.0000
  O   O24       1.0  0.30117  0.33833  0.7245100000000001  1.0000
  O   O25       1.0  0.52382  0.21188000000000004  0.19474  1.0000
  O   O26       1.0  0.4501199999999999  0.14859  0.35490000000000005  1.0000
  O   O27       1.0  0.38185  0.42424  0.00448  1.0000
  O   O28       1.0  0.21272000000000002  0.44345  0.047830000000000004  1.0000
  O   O29       1.0  0.69905  0.77904  0.48682  1.0000
  O   O30       1.0  0.88066  0.7691  0.47512  1.0000
  O   O31       1.0  0.57229  0.98682  0.28888  1.0000
  O   O32       1.0  0.69912  0.16228  0.22714000000000004  1.0000
