data_image0
_chemical_formula_structural       Cd4Si2H32C56O16
_chemical_formula_sum              "Cd4 Si2 H32 C56 O16"
_cell_length_a       13.01959
_cell_length_b       14.205
_cell_length_c       14.968459999999999
_cell_angle_alpha    116.39160999999999
_cell_angle_beta     113.54936
_cell_angle_gamma    94.27380999999998

_space_group_name_H-M_alt    "P 1"
_space_group_IT_number       1

loop_
  _space_group_symop_operation_xyz
  'x, y, z'

loop_
  _atom_site_type_symbol
  _atom_site_label
  _atom_site_symmetry_multiplicity
  _atom_site_fract_x
  _atom_site_fract_y
  _atom_site_fract_z
  _atom_site_occupancy
  Cd  Cd1       1.0  0.9356899999999999  0.6857400000000002  0.37048  1.0000
  Cd  Cd2       1.0  0.06431000000000002  0.31427  0.62952  1.0000
  Cd  Cd3       1.0  0.0  0.0  0.5  1.0000
  Cd  Cd4       1.0  2.220446049250313e-16  0.5  0.5  1.0000
  Si  Si1       1.0  0.7058700000000001  0.95555  0.9116300000000003  1.0000
  Si  Si2       1.0  0.29413  0.04445  0.08838  1.0000
  H   H1        1.0  0.65191  0.75287  0.69835  1.0000
  H   H2        1.0  0.73068  0.70397  0.5622  1.0000
  H   H3        1.0  0.98346  0.026949999999999995  0.77561  1.0000
  H   H4        1.0  0.9086200000000001  0.07712  0.91416  1.0000
  H   H5        1.0  0.69736  0.0027100000000000075  0.12196000000000001  1.0000
  H   H6        1.0  0.77212  0.93517  0.2551  1.0000
  H   H7        1.0  0.9009399999999999  0.7161500000000001  0.04759000000000001  1.0000
  H   H8        1.0  0.82732  0.78409  0.9128000000000001  1.0000
  H   H9        1.0  0.54722  0.94549  0.6993  1.0000
  H   H10       1.0  0.33194000000000007  0.85823  0.56303  1.0000
  H   H11       1.0  0.29163000000000006  0.74854  0.77514  1.0000
  H   H12       1.0  0.50545  0.83699  0.9139400000000002  1.0000
  H   H13       1.0  0.92402  0.11887000000000002  0.12167000000000001  1.0000
  H   H14       1.0  0.98315  0.32028  0.25529  1.0000
  H   H15       1.0  0.6473000000000001  0.33181000000000005  0.04811  1.0000
  H   H16       1.0  0.5852699999999997  0.1283400000000001  0.91279  1.0000
  H   H17       1.0  0.34808999999999996  0.24712999999999996  0.30165  1.0000
  H   H18       1.0  0.26932  0.29603  0.4378000000000001  1.0000
  H   H19       1.0  0.016550000000000026  0.9730500000000002  0.22439000000000003  1.0000
  H   H20       1.0  0.09138000000000003  0.92288  0.08584000000000003  1.0000
  H   H21       1.0  0.3026400000000001  0.9972900000000001  0.87804  1.0000
  H   H22       1.0  0.22788000000000003  0.06484000000000004  0.7449  1.0000
  H   H23       1.0  0.09906000000000008  0.2838500000000001  0.9524100000000002  1.0000
  H   H24       1.0  0.17268  0.21592000000000006  0.08721000000000002  1.0000
  H   H25       1.0  0.45278  0.054510000000000045  0.3007000000000001  1.0000
  H   H26       1.0  0.66806  0.14177  0.43697000000000014  1.0000
  H   H27       1.0  0.70837  0.25146  0.22486000000000006  1.0000
  H   H28       1.0  0.49456  0.16302  0.08606  1.0000
  H   H29       1.0  0.07599  0.88113  0.87833  1.0000
  H   H30       1.0  0.016860000000000024  0.6797200000000001  0.74472  1.0000
  H   H31       1.0  0.35271  0.66819  0.9518900000000001  1.0000
  H   H32       1.0  0.41473  0.87166  0.08722  1.0000
  C   C1        1.0  0.77415  0.9186600000000001  0.8163200000000002  1.0000
  C   C2        1.0  0.72602  0.81287  0.71689  1.0000
  C   C3        1.0  0.76906  0.78487  0.63979  1.0000
  C   C4        1.0  0.86085  0.86346  0.66031  1.0000
  C   C5        1.0  0.91151  0.96773  0.76027  1.0000
  C   C6        1.0  0.8691400000000001  0.9949600000000001  0.8378100000000003  1.0000
  C   C7        1.0  0.9015400000000001  0.83827  0.57382  1.0000
  C   C8        1.0  0.75708  0.89821  0.00743  1.0000
  C   C9        1.0  0.74109  0.93944  0.10417  1.0000
  C   C10       1.0  0.78358  0.9025200000000001  0.17998000000000003  1.0000
  C   C11       1.0  0.8424400000000001  0.82289  0.15999  1.0000
  C   C12       1.0  0.8559199999999999  0.77853  0.062110000000000005  1.0000
  C   C13       1.0  0.8141599999999999  0.8166300000000001  0.98711  1.0000
  C   C14       1.0  0.89072  0.78507  0.24169000000000004  1.0000
  C   C15       1.0  0.54234  0.8972100000000004  0.8163300000000002  1.0000
  C   C16       1.0  0.49131000000000014  0.90392  0.7174100000000001  1.0000
  C   C17       1.0  0.3710800000000001  0.8549  0.6403700000000001  1.0000
  C   C18       1.0  0.29957000000000006  0.7967000000000003  0.6604700000000001  1.0000
  C   C19       1.0  0.3485800000000001  0.7924500000000001  0.76018  1.0000
  C   C20       1.0  0.4686000000000001  0.8426700000000001  0.8377300000000001  1.0000
  C   C21       1.0  0.17229000000000008  0.7354500000000002  0.5738700000000001  1.0000
  C   C22       1.0  0.75008  0.10898  0.0074  1.0000
  C   C23       1.0  0.8628  0.16459  0.10417  1.0000
  C   C24       1.0  0.89648  0.27765  0.18023  1.0000
  C   C25       1.0  0.81779  0.33733  0.16041  1.0000
  C   C26       1.0  0.70644  0.28369  0.06244000000000001  1.0000
  C   C27       1.0  0.6728000000000001  0.17024000000000014  0.9871700000000002  1.0000
  C   C28       1.0  0.85153  0.4572  0.24230000000000002  1.0000
  C   C29       1.0  0.22584999999999997  0.08134  0.18368  1.0000
  C   C30       1.0  0.27398000000000006  0.18714000000000003  0.28311000000000003  1.0000
  C   C31       1.0  0.23094  0.21513  0.36021  1.0000
  C   C32       1.0  0.13914999999999997  0.13655000000000003  0.33969000000000005  1.0000
  C   C33       1.0  0.08848999999999999  0.032270000000000014  0.23973  1.0000
  C   C34       1.0  0.13086  0.005039999999999994  0.16219  1.0000
  C   C35       1.0  0.09846  0.16173  0.42619  1.0000
  C   C36       1.0  0.2429200000000001  0.10180000000000014  0.9925700000000002  1.0000
  C   C37       1.0  0.25891  0.06056000000000005  0.8958400000000001  1.0000
  C   C38       1.0  0.21642000000000014  0.09748000000000012  0.8200200000000002  1.0000
  C   C39       1.0  0.15757000000000004  0.1771100000000001  0.84002  1.0000
  C   C40       1.0  0.14408000000000015  0.22147000000000014  0.9378900000000002  1.0000
  C   C41       1.0  0.18584999999999996  0.18337  0.012890000000000002  1.0000
  C   C42       1.0  0.10929000000000001  0.21494  0.75831  1.0000
  C   C43       1.0  0.45766000000000007  0.10279  0.18367  1.0000
  C   C44       1.0  0.50869  0.09608999999999997  0.2826  1.0000
  C   C45       1.0  0.62892  0.1451  0.35963  1.0000
  C   C46       1.0  0.70044  0.2033  0.33953  1.0000
  C   C47       1.0  0.65142  0.20756000000000002  0.23982  1.0000
  C   C48       1.0  0.5314  0.15733  0.16227  1.0000
  C   C49       1.0  0.82771  0.26455  0.4261400000000001  1.0000
  C   C50       1.0  0.24992000000000011  0.89102  0.9926000000000003  1.0000
  C   C51       1.0  0.13721  0.83541  0.8958300000000001  1.0000
  C   C52       1.0  0.10352000000000004  0.72236  0.81977  1.0000
  C   C53       1.0  0.18221  0.66267  0.8395900000000001  1.0000
  C   C54       1.0  0.2935600000000001  0.7163200000000003  0.9375600000000002  1.0000
  C   C55       1.0  0.32720999999999995  0.82976  0.01283  1.0000
  C   C56       1.0  0.14846999999999994  0.54281  0.7577  1.0000
  O   O1        1.0  0.8651500000000001  0.73828  0.49301  1.0000
  O   O2        1.0  0.97041  0.9202900000000003  0.58945  1.0000
  O   O3        1.0  0.8912299999999997  0.83668  0.33983  1.0000
  O   O4        1.0  0.9256000000000001  0.7013800000000001  0.21562000000000003  1.0000
  O   O5        1.0  0.12858  0.75441  0.49314  1.0000
  O   O6        1.0  0.11842999999999997  0.6696  0.58953  1.0000
  O   O7        1.0  0.94874  0.50399  0.34065  1.0000
  O   O8        1.0  0.79112  0.51495  0.21606  1.0000
  O   O9        1.0  0.13486  0.26173  0.50699  1.0000
  O   O10       1.0  0.02959000000000005  0.07971000000000006  0.4105500000000001  1.0000
  O   O11       1.0  0.10877000000000005  0.16332000000000008  0.6601700000000001  1.0000
  O   O12       1.0  0.07439999999999997  0.29863  0.78438  1.0000
  O   O13       1.0  0.87142  0.2456  0.50686  1.0000
  O   O14       1.0  0.8815700000000002  0.3304000000000001  0.4104800000000001  1.0000
  O   O15       1.0  0.05126000000000001  0.4960100000000001  0.65935  1.0000
  O   O16       1.0  0.20889  0.48505000000000004  0.78395  1.0000
