data_image0
_chemical_formula_structural       Ni4H40C64N16O16
_chemical_formula_sum              "Ni4 H40 C64 N16 O16"
_cell_length_a       8.46616
_cell_length_b       15.10963
_cell_length_c       15.10963
_cell_angle_alpha    89.99640999999998
_cell_angle_beta     90.0
_cell_angle_gamma    90.0

_symmetry_space_group_name_H-M    'P 1'
_symmetry_Int_Tables_number       1

loop_
  _symmetry_equiv_pos_as_xyz
  'x,y,z'

loop_
  _atom_site_type_symbol
  _atom_site_label
  _atom_site_symmetry_multiplicity
  _atom_site_fract_x
  _atom_site_fract_y
  _atom_site_fract_z
  _atom_site_occupancy
  Ni  Ni1       1.0  0.0  0.2532  0.2532  1.0000
  Ni  Ni2       1.0  0.5  0.7468  0.7468  1.0000
  Ni  Ni3       1.0  0.25  0.24720000000000006  0.7528  1.0000
  Ni  Ni4       1.0  0.7499999999999998  0.7528000000000002  0.24721  1.0000
  H   H1        1.0  0.1951  0.27863  0.07658  1.0000
  H   H2        1.0  0.08855  0.26729  0.92345  1.0000
  H   H3        1.0  0.76362  0.26124  0.84744  1.0000
  H   H4        1.0  0.42266  0.21986000000000006  0.05522  1.0000
  H   H5        1.0  0.63416  0.22901000000000005  0.171  1.0000
  H   H6        1.0  0.69511  0.7213700000000001  0.92343  1.0000
  H   H7        1.0  0.58855  0.73271  0.07655  1.0000
  H   H8        1.0  0.26362  0.73876  0.15256  1.0000
  H   H9        1.0  0.92266  0.7801400000000002  0.94478  1.0000
  H   H10       1.0  0.13415999999999995  0.77099  0.829  1.0000
  H   H11       1.0  0.44579  0.42398000000000013  0.77806  1.0000
  H   H12       1.0  0.33837  0.57708  0.76753  1.0000
  H   H13       1.0  0.013909999999999999  0.65277  0.76123  1.0000
  H   H14       1.0  0.6731  0.44481  0.72017  1.0000
  H   H15       1.0  0.8849399999999997  0.3291500000000001  0.7294000000000002  1.0000
  H   H16       1.0  0.94579  0.5760200000000002  0.22194  1.0000
  H   H17       1.0  0.8383699999999997  0.42292  0.23247  1.0000
  H   H18       1.0  0.51391  0.3472300000000001  0.23877  1.0000
  H   H19       1.0  0.1731  0.55519  0.27983  1.0000
  H   H20       1.0  0.38494  0.6708500000000002  0.2706  1.0000
  H   H21       1.0  0.05421  0.22194000000000005  0.57602  1.0000
  H   H22       1.0  0.16163  0.23247000000000007  0.42292  1.0000
  H   H23       1.0  0.48609  0.23877000000000007  0.34723  1.0000
  H   H24       1.0  0.8268999999999997  0.27983  0.55519  1.0000
  H   H25       1.0  0.61507  0.2706  0.67085  1.0000
  H   H26       1.0  0.5542099999999999  0.77806  0.4239800000000001  1.0000
  H   H27       1.0  0.66164  0.76753  0.57708  1.0000
  H   H28       1.0  0.98609  0.76123  0.65277  1.0000
  H   H29       1.0  0.3269  0.7201700000000002  0.44481  1.0000
  H   H30       1.0  0.11507  0.7294000000000003  0.32915  1.0000
  H   H31       1.0  0.8049  0.07658  0.27863  1.0000
  H   H32       1.0  0.91145  0.92345  0.26729  1.0000
  H   H33       1.0  0.23637999999999998  0.84744  0.26124  1.0000
  H   H34       1.0  0.5773399999999999  0.05522  0.21986  1.0000
  H   H35       1.0  0.36584  0.171  0.22901  1.0000
  H   H36       1.0  0.3049  0.9234200000000002  0.72137  1.0000
  H   H37       1.0  0.41144999999999987  0.07655000000000003  0.73271  1.0000
  H   H38       1.0  0.73638  0.15256000000000006  0.7387600000000001  1.0000
  H   H39       1.0  0.07734  0.94478  0.78014  1.0000
  H   H40       1.0  0.86584  0.8290000000000001  0.77099  1.0000
  C   C1        1.0  0.45069  0.24234000000000006  0.87857  1.0000
  C   C2        1.0  0.57972  0.24184  0.94541  1.0000
  C   C3        1.0  0.54445  0.23191000000000006  0.03651  1.0000
  C   C4        1.0  0.66105  0.23601000000000005  0.10113  1.0000
  C   C5        1.0  0.81725  0.25014000000000003  0.07354  1.0000
  C   C6        1.0  0.85252  0.25695  0.98186  1.0000
  C   C7        1.0  0.73593  0.2538  0.91709  1.0000
  C   C8        1.0  0.07151999999999999  0.26952  0.06124  1.0000
  C   C9        1.0  0.95069  0.75766  0.12144  1.0000
  C   C10       1.0  0.07972  0.75816  0.05459000000000001  1.0000
  C   C11       1.0  0.04445  0.7680900000000003  0.96349  1.0000
  C   C12       1.0  0.16105  0.7639900000000001  0.89887  1.0000
  C   C13       1.0  0.31724999999999987  0.74986  0.9264600000000002  1.0000
  C   C14       1.0  0.35251999999999994  0.74305  0.01814  1.0000
  C   C15       1.0  0.23593  0.7462000000000002  0.08291  1.0000
  C   C16       1.0  0.57152  0.7304800000000002  0.93877  1.0000
  C   C17       1.0  0.70135  0.62166  0.74239  1.0000
  C   C18       1.0  0.8300999999999997  0.5547100000000003  0.74173  1.0000
  C   C19       1.0  0.79492  0.4636200000000001  0.73185  1.0000
  C   C20       1.0  0.91163  0.39907  0.73598  1.0000
  C   C21       1.0  0.06776  0.4267700000000001  0.74997  1.0000
  C   C22       1.0  0.10286  0.51843  0.75691  1.0000
  C   C23       1.0  0.9862299999999999  0.58313  0.75373  1.0000
  C   C24       1.0  0.32201  0.4391600000000001  0.7694600000000001  1.0000
  C   C25       1.0  0.20135  0.37834  0.25761  1.0000
  C   C26       1.0  0.3301  0.44529000000000013  0.25828  1.0000
  C   C27       1.0  0.2949199999999999  0.53638  0.26815  1.0000
  C   C28       1.0  0.41163  0.6009300000000002  0.26402  1.0000
  C   C29       1.0  0.56776  0.57323  0.25003  1.0000
  C   C30       1.0  0.60286  0.48157  0.24309  1.0000
  C   C31       1.0  0.48623  0.41687  0.24627  1.0000
  C   C32       1.0  0.82201  0.5608400000000002  0.23055  1.0000
  C   C33       1.0  0.79865  0.25761  0.37834  1.0000
  C   C34       1.0  0.6699  0.25827000000000006  0.44529  1.0000
  C   C35       1.0  0.70508  0.26815  0.53638  1.0000
  C   C36       1.0  0.58837  0.26402  0.60093  1.0000
  C   C37       1.0  0.43223999999999996  0.25003  0.57324  1.0000
  C   C38       1.0  0.3971399999999999  0.24309000000000006  0.48157  1.0000
  C   C39       1.0  0.51377  0.24627000000000004  0.41687  1.0000
  C   C40       1.0  0.17799  0.23054000000000005  0.56084  1.0000
  C   C41       1.0  0.29865  0.7423900000000002  0.62166  1.0000
  C   C42       1.0  0.1699  0.7417300000000002  0.55471  1.0000
  C   C43       1.0  0.20508  0.7318500000000002  0.46363  1.0000
  C   C44       1.0  0.08837  0.73598  0.39908  1.0000
  C   C45       1.0  0.93224  0.74997  0.42677  1.0000
  C   C46       1.0  0.89714  0.7569100000000002  0.51843  1.0000
  C   C47       1.0  0.013769999999999996  0.75373  0.58313  1.0000
  C   C48       1.0  0.67799  0.7694600000000003  0.43917000000000006  1.0000
  C   C49       1.0  0.54931  0.8785700000000002  0.24235  1.0000
  C   C50       1.0  0.42028  0.9454100000000002  0.24184  1.0000
  C   C51       1.0  0.4555599999999999  0.03651  0.23191  1.0000
  C   C52       1.0  0.33895  0.10113  0.23601000000000003  1.0000
  C   C53       1.0  0.18275  0.07354000000000002  0.25014  1.0000
  C   C54       1.0  0.14748  0.98186  0.25695  1.0000
  C   C55       1.0  0.26407  0.91709  0.2538  1.0000
  C   C56       1.0  0.92848  0.06124  0.26952  1.0000
  C   C57       1.0  0.04931  0.12143  0.75766  1.0000
  C   C58       1.0  0.92028  0.05459  0.7581600000000002  1.0000
  C   C59       1.0  0.95556  0.9634900000000002  0.7681  1.0000
  C   C60       1.0  0.83895  0.8988700000000002  0.764  1.0000
  C   C61       1.0  0.68275  0.9264600000000002  0.74986  1.0000
  C   C62       1.0  0.64748  0.01814  0.74305  1.0000
  C   C63       1.0  0.76407  0.08291000000000003  0.7462  1.0000
  C   C64       1.0  0.42848  0.93876  0.73048  1.0000
  N   N1        1.0  0.95757  0.25907  0.12121000000000001  1.0000
  N   N2        1.0  0.015089999999999998  0.26883000000000007  0.97729  1.0000
  N   N3        1.0  0.45757  0.74093  0.87879  1.0000
  N   N4        1.0  0.51509  0.7311700000000002  0.02272  1.0000
  N   N5        1.0  0.20808  0.37917  0.75891  1.0000
  N   N6        1.0  0.26532  0.52308  0.76896  1.0000
  N   N7        1.0  0.70809  0.62083  0.2411  1.0000
  N   N8        1.0  0.7653199999999998  0.47692  0.23105  1.0000
  N   N9        1.0  0.29192  0.24109  0.62083  1.0000
  N   N10       1.0  0.23468  0.23104  0.4769200000000001  1.0000
  N   N11       1.0  0.7919199999999997  0.75891  0.37917  1.0000
  N   N12       1.0  0.73468  0.7689600000000002  0.52308  1.0000
  N   N13       1.0  0.04243  0.12121000000000003  0.25907  1.0000
  N   N14       1.0  0.98492  0.9772900000000002  0.26884  1.0000
  N   N15       1.0  0.54243  0.8787900000000002  0.74094  1.0000
  N   N16       1.0  0.48490999999999995  0.02271  0.73117  1.0000
  O   O1        1.0  0.30602  0.24098000000000006  0.90218  1.0000
  O   O2        1.0  0.48607000000000006  0.24580000000000005  0.79548  1.0000
  O   O3        1.0  0.8060199999999997  0.75902  0.09782  1.0000
  O   O4        1.0  0.9860799999999998  0.7542  0.20452  1.0000
  O   O5        1.0  0.55641  0.59832  0.74097  1.0000
  O   O6        1.0  0.7377  0.70457  0.746  1.0000
  O   O7        1.0  0.05641  0.4016800000000001  0.25903  1.0000
  O   O8        1.0  0.2377  0.29543  0.254  1.0000
  O   O9        1.0  0.9436  0.25903  0.40168  1.0000
  O   O10       1.0  0.7623  0.254  0.29543  1.0000
  O   O11       1.0  0.44359  0.74097  0.59832  1.0000
  O   O12       1.0  0.2622999999999999  0.746  0.7045700000000003  1.0000
  O   O13       1.0  0.69398  0.9021800000000002  0.24098  1.0000
  O   O14       1.0  0.5139299999999998  0.79548  0.2458  1.0000
  O   O15       1.0  0.19397999999999999  0.09782  0.75902  1.0000
  O   O16       1.0  0.01392  0.20452  0.7542  1.0000
