data_image0
_chemical_formula_structural       Cu8H48C48I8N16
_chemical_formula_sum              "Cu8 H48 C48 I8 N16"
_cell_length_a       13.12574
_cell_length_b       14.110229999999998
_cell_length_c       14.11023
_cell_angle_alpha    77.35748
_cell_angle_beta     62.128980000000006
_cell_angle_gamma    62.128980000000006

_space_group_name_H-M_alt    "P 1"
_space_group_IT_number       1

loop_
  _space_group_symop_operation_xyz
  'x, y, z'

loop_
  _atom_site_type_symbol
  _atom_site_label
  _atom_site_symmetry_multiplicity
  _atom_site_fract_x
  _atom_site_fract_y
  _atom_site_fract_z
  _atom_site_occupancy
  Cu  Cu1       1.0  0.8885300000000005  0.7495  0.72324  1.0000
  Cu  Cu2       1.0  0.36195  0.75013  0.7763  1.0000
  Cu  Cu3       1.0  0.6380499999999999  0.7237  0.7498700000000001  1.0000
  Cu  Cu4       1.0  0.11148000000000005  0.77676  0.7505  1.0000
  Cu  Cu5       1.0  0.11148  0.2505  0.27676  1.0000
  Cu  Cu6       1.0  0.63805  0.24987  0.2237  1.0000
  Cu  Cu7       1.0  0.36194999999999994  0.2763  0.25013  1.0000
  Cu  Cu8       1.0  0.8885300000000003  0.22323999999999997  0.24950000000000003  1.0000
  H   H1        1.0  0.14923000000000006  0.66823  0.48712  1.0000
  H   H2        1.0  0.12705999999999998  0.62493  0.61948  1.0000
  H   H3        1.0  0.30574  0.8306099999999998  0.011679999999999998  1.0000
  H   H4        1.0  0.3731  0.8737  0.87926  1.0000
  H   H5        1.0  0.8179100000000002  0.48782999999999993  0.83116  1.0000
  H   H6        1.0  0.7521499999999994  0.62019  0.87435  1.0000
  H   H7        1.0  0.13582  0.01233  0.66877  1.0000
  H   H8        1.0  0.24657999999999997  0.87992  0.62573  1.0000
  H   H9        1.0  0.8507699999999998  0.012879999999999999  0.8317700000000001  1.0000
  H   H10       1.0  0.8729400000000002  0.88052  0.87508  1.0000
  H   H11       1.0  0.6942599999999999  0.48832  0.6694000000000001  1.0000
  H   H12       1.0  0.6269000000000001  0.62074  0.6263  1.0000
  H   H13       1.0  0.18208999999999997  0.66885  0.01217  1.0000
  H   H14       1.0  0.24784999999999982  0.62565  0.8798100000000001  1.0000
  H   H15       1.0  0.8641800000000004  0.83123  0.48767  1.0000
  H   H16       1.0  0.75342  0.87428  0.62008  1.0000
  H   H17       1.0  0.85077  0.33177  0.51288  1.0000
  H   H18       1.0  0.8729400000000002  0.37508  0.38052  1.0000
  H   H19       1.0  0.6942599999999999  0.16939  0.98832  1.0000
  H   H20       1.0  0.6269  0.1263  0.12074  1.0000
  H   H21       1.0  0.18208999999999997  0.51217  0.16884  1.0000
  H   H22       1.0  0.24785000000000001  0.3798099999999999  0.12565  1.0000
  H   H23       1.0  0.8641800000000004  0.98767  0.33123  1.0000
  H   H24       1.0  0.7534199999999999  0.12008  0.37428000000000006  1.0000
  H   H25       1.0  0.14922999999999997  0.98712  0.16823  1.0000
  H   H26       1.0  0.12705999999999998  0.11948  0.12493  1.0000
  H   H27       1.0  0.30573999999999996  0.51168  0.33061  1.0000
  H   H28       1.0  0.37309999999999993  0.37926  0.37370000000000003  1.0000
  H   H29       1.0  0.8179100000000002  0.33116  0.98783  1.0000
  H   H30       1.0  0.75215  0.37435  0.12019000000000002  1.0000
  H   H31       1.0  0.13582  0.16877  0.51233  1.0000
  H   H32       1.0  0.24657999999999997  0.12572  0.37992  1.0000
  H   H33       1.0  0.349  0.51617  0.4819  1.0000
  H   H34       1.0  0.26788  0.43698  0.56157  1.0000
  H   H35       1.0  0.3490000000000001  0.9819  0.01617  1.0000
  H   H36       1.0  0.26788  0.06156999999999999  0.93698  1.0000
  H   H37       1.0  0.8652300000000002  0.48288  0.98288  1.0000
  H   H38       1.0  0.7044800000000001  0.56227  0.06227  1.0000
  H   H39       1.0  0.33076999999999995  0.01715  0.51715  1.0000
  H   H40       1.0  0.32976  0.93774  0.43774  1.0000
  H   H41       1.0  0.651  0.0181  0.98383  1.0000
  H   H42       1.0  0.7321299999999998  0.93843  0.06302  1.0000
  H   H43       1.0  0.6510000000000001  0.4838299999999999  0.5181  1.0000
  H   H44       1.0  0.7321299999999998  0.56302  0.43843  1.0000
  H   H45       1.0  0.13477000000000003  0.51713  0.01712  1.0000
  H   H46       1.0  0.2955200000000002  0.43773  0.93773  1.0000
  H   H47       1.0  0.6692300000000004  0.9828499999999999  0.48285  1.0000
  H   H48       1.0  0.67024  0.06226  0.56226  1.0000
  C   C1        1.0  0.032810000000000006  0.58409  0.55684  1.0000
  C   C2        1.0  0.14384999999999998  0.6005  0.5427  1.0000
  C   C3        1.0  0.17437999999999992  0.9155500000000001  0.94244  1.0000
  C   C4        1.0  0.2882799999999999  0.89838  0.95611  1.0000
  C   C5        1.0  0.61693  0.55724  0.91569  1.0000
  C   C6        1.0  0.7445000000000002  0.54334  0.89891  1.0000
  C   C7        1.0  0.08969000000000002  0.94277  0.58433  1.0000
  C   C8        1.0  0.18640000000000007  0.95672  0.6011  1.0000
  C   C9        1.0  0.9671899999999998  0.94317  0.91591  1.0000
  C   C10       1.0  0.8561500000000001  0.95731  0.8995  1.0000
  C   C11       1.0  0.8256200000000002  0.55756  0.58446  1.0000
  C   C12       1.0  0.7117300000000001  0.54389  0.60162  1.0000
  C   C13       1.0  0.38306999999999997  0.58431  0.94276  1.0000
  C   C14       1.0  0.2555  0.60109  0.95666  1.0000
  C   C15       1.0  0.9103199999999998  0.91567  0.55723  1.0000
  C   C16       1.0  0.8136000000000004  0.8988999999999999  0.54328  1.0000
  C   C17       1.0  0.96719  0.41591  0.44317  1.0000
  C   C18       1.0  0.8561500000000002  0.3995000000000001  0.45731  1.0000
  C   C19       1.0  0.8256200000000001  0.08444999999999998  0.05756  1.0000
  C   C20       1.0  0.7117300000000002  0.10162  0.04389  1.0000
  C   C21       1.0  0.38307  0.44276  0.08431  1.0000
  C   C22       1.0  0.25550000000000017  0.45665999999999995  0.10109  1.0000
  C   C23       1.0  0.91032  0.05723  0.41567  1.0000
  C   C24       1.0  0.8136  0.04328  0.3989  1.0000
  C   C25       1.0  0.03281  0.05684  0.08409  1.0000
  C   C26       1.0  0.14385  0.0427  0.1005  1.0000
  C   C27       1.0  0.17438000000000006  0.44244  0.41555  1.0000
  C   C28       1.0  0.2882799999999999  0.45611  0.39838  1.0000
  C   C29       1.0  0.61693  0.41569  0.05724  1.0000
  C   C30       1.0  0.7445  0.39891  0.04334  1.0000
  C   C31       1.0  0.08969000000000002  0.08433  0.44277  1.0000
  C   C32       1.0  0.18639999999999998  0.1011  0.45672000000000007  1.0000
  C   C33       1.0  0.05279999999999996  0.50693  0.4928  1.0000
  C   C34       1.0  0.26838000000000006  0.49929  0.49929  1.0000
  C   C35       1.0  0.05279999999999996  0.9928  0.00693  1.0000
  C   C36       1.0  0.26837999999999995  0.99929  0.9992900000000001  1.0000
  C   C37       1.0  0.55977  0.49291999999999997  0.99292  1.0000
  C   C38       1.0  0.76765  0.5  0.0  1.0000
  C   C39       1.0  0.045599999999999995  0.00702  0.50702  1.0000
  C   C40       1.0  0.26764  9.99999999999998e-06  0.50001  1.0000
  C   C41       1.0  0.9472000000000005  0.0072  0.99307  1.0000
  C   C42       1.0  0.73162  0.00071  0.00071  1.0000
  C   C43       1.0  0.9472000000000005  0.49307  0.5072  1.0000
  C   C44       1.0  0.7316200000000002  0.50071  0.50071  1.0000
  C   C45       1.0  0.44022999999999995  0.50708  0.00708  1.0000
  C   C46       1.0  0.23234999999999997  0.5  0.0  1.0000
  C   C47       1.0  0.9544000000000001  0.9929799999999999  0.49298  1.0000
  C   C48       1.0  0.73236  0.99999  0.49999  1.0000
  I   I1        1.0  0.6450399999999998  0.85503  0.85452  1.0000
  I   I2        1.0  0.35496000000000005  0.64548  0.64497  1.0000
  I   I3        1.0  0.5  0.8554099999999999  0.6446  1.0000
  I   I4        1.0  0.0  0.64542  0.85459  1.0000
  I   I5        1.0  0.35496  0.14497  0.14548  1.0000
  I   I6        1.0  0.6450400000000001  0.35451999999999995  0.35503  1.0000
  I   I7        1.0  0.5  0.14459  0.35541000000000006  1.0000
  I   I8        1.0  3.383346080678595e-17  0.35459  0.14542  1.0000
  N   N1        1.0  0.9162200000000003  0.6421  0.62964  1.0000
  N   N2        1.0  0.18834000000000004  0.85803  0.86974  1.0000
  N   N3        1.0  0.5582000000000005  0.63006  0.85793  1.0000
  N   N4        1.0  0.04594999999999999  0.87008  0.6422300000000001  1.0000
  N   N5        1.0  0.08377999999999998  0.87036  0.8579100000000001  1.0000
  N   N6        1.0  0.8116599999999998  0.63026  0.6419700000000002  1.0000
  N   N7        1.0  0.4418  0.64207  0.86994  1.0000
  N   N8        1.0  0.95405  0.85777  0.62993  1.0000
  N   N9        1.0  0.08377999999999991  0.3579  0.3703600000000001  1.0000
  N   N10       1.0  0.81166  0.14197  0.13026  1.0000
  N   N11       1.0  0.4418000000000001  0.36994  0.14207  1.0000
  N   N12       1.0  0.95405  0.12993  0.35777  1.0000
  N   N13       1.0  0.9162200000000001  0.12964  0.1421  1.0000
  N   N14       1.0  0.18834  0.36973999999999996  0.35803000000000007  1.0000
  N   N15       1.0  0.5582000000000005  0.35793  0.13006  1.0000
  N   N16       1.0  0.045949999999999984  0.14223  0.37008  1.0000
