data_image0
_chemical_formula_structural       Cd4H32C76N8O24
_chemical_formula_sum              "Cd4 H32 C76 N8 O24"
_cell_length_a       4.46944
_cell_length_b       20.87393
_cell_length_c       26.18362
_cell_angle_alpha    90.01355000000001
_cell_angle_beta     89.91573999999999
_cell_angle_gamma    91.6403

_space_group_name_H-M_alt    "P 1"
_space_group_IT_number       1

loop_
  _space_group_symop_operation_xyz
  'x, y, z'

loop_
  _atom_site_type_symbol
  _atom_site_label
  _atom_site_symmetry_multiplicity
  _atom_site_fract_x
  _atom_site_fract_y
  _atom_site_fract_z
  _atom_site_occupancy
  Cd  Cd1       1.0  0.69577  0.56139  0.04782  1.0000
  Cd  Cd2       1.0  0.80769  0.9386300000000002  0.54771  1.0000
  Cd  Cd3       1.0  0.30421  0.43861  0.95218  1.0000
  Cd  Cd4       1.0  0.19228  0.061370000000000015  0.4522900000000001  1.0000
  H   H1        1.0  0.23218999999999998  0.84202  0.6066  1.0000
  H   H2        1.0  0.29802  0.7868700000000002  0.6902900000000001  1.0000
  H   H3        1.0  0.52258  0.8828100000000001  0.74461  1.0000
  H   H4        1.0  0.4924  0.9370100000000002  0.65958  1.0000
  H   H5        1.0  0.5561000000000001  0.8077700000000002  0.88103  1.0000
  H   H6        1.0  0.60196  0.7317500000000001  0.95469  1.0000
  H   H7        1.0  0.37123000000000006  0.5691600000000001  0.8682200000000001  1.0000
  H   H8        1.0  0.33227999999999996  0.64782  0.79637  1.0000
  H   H9        1.0  0.26849  0.65828  0.10624  1.0000
  H   H10       1.0  0.20312  0.71401  0.18972999999999998  1.0000
  H   H11       1.0  0.9780800000000003  0.6182500000000001  0.24408  1.0000
  H   H12       1.0  0.009060000000000006  0.5637600000000001  0.15916  1.0000
  H   H13       1.0  0.9412  0.6921500000000002  0.38028000000000006  1.0000
  H   H14       1.0  0.89476  0.7671  0.45466000000000006  1.0000
  H   H15       1.0  0.12702  0.93067  0.36939000000000005  1.0000
  H   H16       1.0  0.16715  0.85286  0.29696  1.0000
  H   H17       1.0  0.76778  0.15798  0.3934  1.0000
  H   H18       1.0  0.70195  0.21313000000000004  0.30971  1.0000
  H   H19       1.0  0.4774  0.11719000000000002  0.25539  1.0000
  H   H20       1.0  0.50758  0.06299000000000002  0.34041  1.0000
  H   H21       1.0  0.44388  0.19223  0.11897  1.0000
  H   H22       1.0  0.39802  0.26825  0.04531  1.0000
  H   H23       1.0  0.62875  0.43084  0.13178  1.0000
  H   H24       1.0  0.66769  0.35218000000000005  0.20363  1.0000
  H   H25       1.0  0.73149  0.3417200000000001  0.89376  1.0000
  H   H26       1.0  0.79686  0.28599  0.81027  1.0000
  H   H27       1.0  0.021900000000000006  0.38175  0.7559200000000001  1.0000
  H   H28       1.0  0.9909200000000001  0.4362400000000001  0.84083  1.0000
  H   H29       1.0  0.05877  0.30785000000000007  0.61972  1.0000
  H   H30       1.0  0.10521000000000001  0.23290000000000005  0.54534  1.0000
  H   H31       1.0  0.87294  0.06933000000000002  0.63061  1.0000
  H   H32       1.0  0.83283  0.14714  0.7030400000000001  1.0000
  C   C1        1.0  0.08197000000000002  0.8511100000000001  0.6383  1.0000
  C   C2        1.0  0.12035999999999998  0.82061  0.68521  1.0000
  C   C3        1.0  0.91767  0.8323400000000001  0.7245  1.0000
  C   C4        1.0  0.69114  0.8747400000000001  0.71557  1.0000
  C   C5        1.0  0.6642  0.90251  0.66727  1.0000
  C   C6        1.0  0.14843  0.80616  0.80825  1.0000
  C   C7        1.0  0.16571  0.7596  0.8509  1.0000
  C   C8        1.0  0.95695  0.7087300000000001  0.85617  1.0000
  C   C9        1.0  0.72375  0.7020300000000003  0.82015  1.0000
  C   C10       1.0  0.70592  0.74495  0.77581  1.0000
  C   C11       1.0  0.39826  0.76765  0.88589  1.0000
  C   C12       1.0  0.42515  0.72506  0.92663  1.0000
  C   C13       1.0  0.23098000000000005  0.6720100000000002  0.93249  1.0000
  C   C14       1.0  0.9936600000000001  0.66078  0.8968100000000001  1.0000
  C   C15       1.0  0.78532  0.6088900000000002  0.89653  1.0000
  C   C16       1.0  0.54116  0.60753  0.8632999999999998  1.0000
  C   C17       1.0  0.51349  0.6518000000000002  0.82386  1.0000
  C   C18       1.0  0.26292  0.63527  0.98184  1.0000
  C   C19       1.0  0.8111700000000001  0.54546  0.92341  1.0000
  C   C20       1.0  0.41933  0.6495200000000001  0.13786  1.0000
  C   C21       1.0  0.38120000000000004  0.68036  0.18467  1.0000
  C   C22       1.0  0.5840399999999999  0.66889  0.22391  1.0000
  C   C23       1.0  0.81014  0.62633  0.21502  1.0000
  C   C24       1.0  0.83727  0.59832  0.16680000000000003  1.0000
  C   C25       1.0  0.35192999999999997  0.69442  0.30766  1.0000
  C   C26       1.0  0.33346  0.7403700000000001  0.35073  1.0000
  C   C27       1.0  0.54235  0.7911000000000001  0.35638  1.0000
  C   C28       1.0  0.7766600000000001  0.7981500000000002  0.3205  1.0000
  C   C29       1.0  0.79811  0.7555  0.27604  1.0000
  C   C30       1.0  0.09973  0.73205  0.38559  1.0000
  C   C31       1.0  0.07272000000000003  0.7740700000000003  0.42675  1.0000
  C   C32       1.0  0.26786  0.8268700000000001  0.43311999999999995  1.0000
  C   C33       1.0  0.50502  0.8385200000000002  0.3974  1.0000
  C   C34       1.0  0.7129  0.8904500000000001  0.39749999999999996  1.0000
  C   C35       1.0  0.95741  0.8923200000000002  0.36425  1.0000
  C   C36       1.0  0.98618  0.8484400000000001  0.32455  1.0000
  C   C37       1.0  0.23629000000000006  0.8631700000000001  0.48279  1.0000
  C   C38       1.0  0.68274  0.95363  0.42456  1.0000
  C   C39       1.0  0.91801  0.14889  0.3617  1.0000
  C   C40       1.0  0.87962  0.17939  0.31478999999999996  1.0000
  C   C41       1.0  0.0823  0.16766  0.2755  1.0000
  C   C42       1.0  0.30884  0.12526  0.28443  1.0000
  C   C43       1.0  0.33577  0.09749  0.3327300000000001  1.0000
  C   C44       1.0  0.85155  0.19384  0.19175  1.0000
  C   C45       1.0  0.83427  0.24040000000000003  0.14909  1.0000
  C   C46       1.0  0.04302  0.29127  0.14383  1.0000
  C   C47       1.0  0.27622  0.29797  0.17985  1.0000
  C   C48       1.0  0.29405  0.25505000000000005  0.22419000000000003  1.0000
  C   C49       1.0  0.60171  0.23235  0.11410000000000001  1.0000
  C   C50       1.0  0.57483  0.27494  0.07337  1.0000
  C   C51       1.0  0.769  0.32799000000000006  0.06751  1.0000
  C   C52       1.0  0.006320000000000006  0.3392200000000001  0.10318  1.0000
  C   C53       1.0  0.21466000000000002  0.3911100000000001  0.10346  1.0000
  C   C54       1.0  0.45882  0.3924700000000001  0.1367  1.0000
  C   C55       1.0  0.48649  0.34820000000000007  0.17614  1.0000
  C   C56       1.0  0.73705  0.36473  0.01816  1.0000
  C   C57       1.0  0.18881  0.45454  0.07659000000000002  1.0000
  C   C58       1.0  0.58064  0.35047  0.86214  1.0000
  C   C59       1.0  0.61877  0.31964  0.8153300000000001  1.0000
  C   C60       1.0  0.41593  0.33111  0.77609  1.0000
  C   C61       1.0  0.18984  0.37367000000000006  0.78498  1.0000
  C   C62       1.0  0.16271  0.40168  0.8332000000000002  1.0000
  C   C63       1.0  0.64805  0.30558  0.69234  1.0000
  C   C64       1.0  0.66652  0.25963  0.64927  1.0000
  C   C65       1.0  0.45762  0.2089  0.64362  1.0000
  C   C66       1.0  0.22331  0.20185000000000003  0.6795  1.0000
  C   C67       1.0  0.20186  0.2445  0.72396  1.0000
  C   C68       1.0  0.90024  0.2679500000000001  0.61441  1.0000
  C   C69       1.0  0.92725  0.22593000000000002  0.57324  1.0000
  C   C70       1.0  0.73211  0.17312  0.56688  1.0000
  C   C71       1.0  0.49495  0.16148  0.6026  1.0000
  C   C72       1.0  0.28707  0.10955  0.60249  1.0000
  C   C73       1.0  0.04256  0.10768  0.63575  1.0000
  C   C74       1.0  0.013790000000000004  0.15156  0.67545  1.0000
  C   C75       1.0  0.7636800000000001  0.13683  0.51721  1.0000
  C   C76       1.0  0.3172  0.04637  0.57544  1.0000
  N   N1        1.0  0.85828  0.8911400000000002  0.62882  1.0000
  N   N2        1.0  0.92408  0.7948000000000002  0.77135  1.0000
  N   N3        1.0  0.64341  0.6095400000000001  0.12839  1.0000
  N   N4        1.0  0.57731  0.70634  0.27081  1.0000
  N   N5        1.0  0.14169  0.10886000000000001  0.37118  1.0000
  N   N6        1.0  0.07589000000000003  0.20520000000000002  0.22865  1.0000
  N   N7        1.0  0.35657  0.39046000000000003  0.87161  1.0000
  N   N8        1.0  0.42267  0.29366  0.72919  1.0000
  O   O1        1.0  0.05840000000000001  0.59359  0.99174  1.0000
  O   O2        1.0  0.48375999999999997  0.6500500000000001  0.01055  1.0000
  O   O3        1.0  0.59394  0.52907  0.95311  1.0000
  O   O4        1.0  0.01483  0.50998  0.9064  1.0000
  O   O5        1.0  0.31822000000000006  0.8536100000000001  0.8052900000000001  1.0000
  O   O6        1.0  0.51322  0.7369700000000001  0.74249  1.0000
  O   O7        1.0  0.4390000000000001  0.9052600000000001  0.49285  1.0000
  O   O8        1.0  0.01598000000000001  0.84782  0.51159  1.0000
  O   O9        1.0  0.8973599999999999  0.9708600000000002  0.45439  1.0000
  O   O10       1.0  0.4778  0.9885100000000002  0.40741  1.0000
  O   O11       1.0  0.18311  0.64687  0.30426  1.0000
  O   O12       1.0  0.99695  0.7632400000000001  0.24359  1.0000
  O   O13       1.0  0.94158  0.40641  0.00826  1.0000
  O   O14       1.0  0.51622  0.3499500000000001  0.98945  1.0000
  O   O15       1.0  0.40603  0.47093  0.04688  1.0000
  O   O16       1.0  0.98515  0.49002000000000007  0.0936  1.0000
  O   O17       1.0  0.68175  0.14639  0.19471  1.0000
  O   O18       1.0  0.4867600000000001  0.26303000000000004  0.25751  1.0000
  O   O19       1.0  0.56098  0.09474  0.50715  1.0000
  O   O20       1.0  0.984  0.15218  0.48841  1.0000
  O   O21       1.0  0.10259000000000001  0.029140000000000006  0.5456  1.0000
  O   O22       1.0  0.52212  0.011480000000000002  0.59259  1.0000
  O   O23       1.0  0.81686  0.35313  0.69573  1.0000
  O   O24       1.0  0.0030299999999999997  0.23676  0.7564099999999999  1.0000
