data_image0
_chemical_formula_structural       Na4Cd4H32C64O40
_chemical_formula_sum              "Na4 Cd4 H32 C64 O40"
_cell_length_a       9.967
_cell_length_b       14.68102
_cell_length_c       19.00343
_cell_angle_alpha    90.0
_cell_angle_beta     89.83291999999999
_cell_angle_gamma    90.0

_space_group_name_H-M_alt    "P 1"
_space_group_IT_number       1

loop_
  _space_group_symop_operation_xyz
  'x, y, z'

loop_
  _atom_site_type_symbol
  _atom_site_label
  _atom_site_symmetry_multiplicity
  _atom_site_fract_x
  _atom_site_fract_y
  _atom_site_fract_z
  _atom_site_occupancy
  Na  Na1       1.0  0.96003  0.86819  0.5535499999999999  1.0000
  Na  Na2       1.0  0.03996  0.36818  0.44645  1.0000
  Na  Na3       1.0  0.03995  0.8726799999999998  0.04995  1.0000
  Na  Na4       1.0  0.9600500000000001  0.37268  0.95005  1.0000
  Cd  Cd1       1.0  0.9741600000000001  0.10721  0.46994  1.0000
  Cd  Cd2       1.0  0.02584  0.60721  0.53006  1.0000
  Cd  Cd3       1.0  0.024949999999999996  0.10750999999999997  0.9704499999999999  1.0000
  Cd  Cd4       1.0  0.97505  0.60751  0.02956  1.0000
  H   H1        1.0  0.60743  0.7216599999999997  0.52165  1.0000
  H   H2        1.0  0.17302  0.5300799999999998  0.7036  1.0000
  H   H3        1.0  0.4499000000000001  0.08217999999999998  0.47047  1.0000
  H   H4        1.0  0.27515  0.8165499999999998  0.50529  1.0000
  H   H5        1.0  0.70502  0.8507099999999997  0.5020999999999999  1.0000
  H   H6        1.0  0.06222  0.14368  0.70527  1.0000
  H   H7        1.0  0.1847  0.3674999999999999  0.8379999999999997  1.0000
  H   H8        1.0  0.15192  0.40519  0.6133099999999999  1.0000
  H   H9        1.0  0.39257  0.22165999999999997  0.47836  1.0000
  H   H10       1.0  0.8269800000000002  0.030079999999999992  0.29641  1.0000
  H   H11       1.0  0.5501  0.58218  0.52953  1.0000
  H   H12       1.0  0.72485  0.3165499999999999  0.49471  1.0000
  H   H13       1.0  0.29498  0.3507099999999999  0.4979  1.0000
  H   H14       1.0  0.93778  0.64368  0.29474  1.0000
  H   H15       1.0  0.8153  0.8675  0.162  1.0000
  H   H16       1.0  0.8480699999999999  0.9051899999999998  0.3866899999999999  1.0000
  H   H17       1.0  0.3932  0.7215999999999998  0.022189999999999998  1.0000
  H   H18       1.0  0.82634  0.5303399999999998  0.20259  1.0000
  H   H19       1.0  0.54616  0.08287  0.96976  1.0000
  H   H20       1.0  0.72427  0.81824  0.0044  1.0000
  H   H21       1.0  0.29404  0.8499899999999998  0.00241  1.0000
  H   H22       1.0  0.93734  0.1445  0.20391  1.0000
  H   H23       1.0  0.81538  0.3671399999999999  0.33817  1.0000
  H   H24       1.0  0.84825  0.4066399999999999  0.11328999999999997  1.0000
  H   H25       1.0  0.6068  0.2216  0.97781  1.0000
  H   H26       1.0  0.17366  0.030339999999999992  0.79741  1.0000
  H   H27       1.0  0.45384  0.58287  0.030239999999999993  1.0000
  H   H28       1.0  0.27573  0.3182399999999999  0.99561  1.0000
  H   H29       1.0  0.70596  0.34999  0.99759  1.0000
  H   H30       1.0  0.06266  0.6445  0.7961  1.0000
  H   H31       1.0  0.18462000000000003  0.8671399999999999  0.6618399999999999  1.0000
  H   H32       1.0  0.15175  0.90664  0.88671  1.0000
  C   C1        1.0  0.71473  0.029789999999999994  0.48307  1.0000
  C   C2        1.0  0.59029  0.97301  0.48752999999999996  1.0000
  C   C3        1.0  0.46099  0.009969999999999996  0.48041  1.0000
  C   C4        1.0  0.34765  0.9532099999999998  0.48621999999999993  1.0000
  C   C5        1.0  0.20992  0.9923899999999998  0.4751699999999999  1.0000
  C   C6        1.0  0.36271  0.8604399999999998  0.50133  1.0000
  C   C7        1.0  0.49319  0.8245799999999998  0.50889  1.0000
  C   C8        1.0  0.60551  0.8806099999999998  0.4998  1.0000
  C   C9        1.0  0.07475  0.23252999999999993  0.58032  1.0000
  C   C10       1.0  0.10623999999999999  0.27071  0.65213  1.0000
  C   C11       1.0  0.09524  0.21380999999999994  0.7117  1.0000
  C   C12       1.0  0.12335  0.24893999999999994  0.7789  1.0000
  C   C13       1.0  0.09748000000000001  0.19395  0.84383  1.0000
  C   C14       1.0  0.16265  0.3394499999999999  0.78636  1.0000
  C   C15       1.0  0.17084  0.3974499999999999  0.72712  1.0000
  C   C16       1.0  0.14373  0.3618099999999999  0.65949  1.0000
  C   C17       1.0  0.28526  0.5297899999999998  0.51693  1.0000
  C   C18       1.0  0.40971  0.4730099999999999  0.5124799999999999  1.0000
  C   C19       1.0  0.53901  0.50997  0.5196  1.0000
  C   C20       1.0  0.65235  0.45321  0.51378  1.0000
  C   C21       1.0  0.79008  0.49239  0.52483  1.0000
  C   C22       1.0  0.63729  0.36044  0.49867  1.0000
  C   C23       1.0  0.5068  0.32457999999999987  0.49110999999999994  1.0000
  C   C24       1.0  0.39449  0.38060999999999995  0.5002  1.0000
  C   C25       1.0  0.9252499999999999  0.7325299999999998  0.4196799999999999  1.0000
  C   C26       1.0  0.89376  0.7707099999999999  0.3478799999999999  1.0000
  C   C27       1.0  0.9047599999999999  0.71381  0.28831  1.0000
  C   C28       1.0  0.87665  0.7489399999999998  0.22111  1.0000
  C   C29       1.0  0.90252  0.69395  0.15617  1.0000
  C   C30       1.0  0.8373499999999999  0.8394599999999998  0.21363999999999997  1.0000
  C   C31       1.0  0.82916  0.89745  0.27287999999999996  1.0000
  C   C32       1.0  0.85626  0.86181  0.34052  1.0000
  C   C33       1.0  0.28283  0.030599999999999992  0.98629  1.0000
  C   C34       1.0  0.40724000000000005  0.9734799999999998  0.9885099999999999  1.0000
  C   C35       1.0  0.53618  0.01073  0.98006  1.0000
  C   C36       1.0  0.65042  0.9547499999999998  0.98466  1.0000
  C   C37       1.0  0.78787  0.99468  0.9728999999999999  1.0000
  C   C38       1.0  0.63644  0.8618699999999998  0.00013  1.0000
  C   C39       1.0  0.50623  0.8253499999999998  0.0084  1.0000
  C   C40       1.0  0.39301  0.8807799999999998  3e-05  1.0000
  C   C41       1.0  0.92478  0.23269  0.08023  1.0000
  C   C42       1.0  0.8933899999999999  0.2717099999999999  0.15173999999999999  1.0000
  C   C43       1.0  0.90471  0.21453  0.21105  1.0000
  C   C44       1.0  0.8772500000000001  0.24867999999999996  0.27861  1.0000
  C   C45       1.0  0.9054600000000002  0.19212999999999994  0.34257  1.0000
  C   C46       1.0  0.8377800000000001  0.3393  0.28642  1.0000
  C   C47       1.0  0.8299499999999999  0.39790999999999993  0.22729  1.0000
  C   C48       1.0  0.8562000000000001  0.3627999999999999  0.15929  1.0000
  C   C49       1.0  0.71717  0.53061  0.013709999999999996  1.0000
  C   C50       1.0  0.59276  0.47348  0.011489999999999998  1.0000
  C   C51       1.0  0.46381999999999995  0.5107299999999998  0.019939999999999996  1.0000
  C   C52       1.0  0.34958  0.45475  0.015339999999999998  1.0000
  C   C53       1.0  0.21212999999999999  0.4946799999999999  0.0271  1.0000
  C   C54       1.0  0.36356  0.36187  0.9998699999999999  1.0000
  C   C55       1.0  0.49377  0.32534999999999986  0.9916099999999998  1.0000
  C   C56       1.0  0.60698  0.38078  0.99997  1.0000
  C   C57       1.0  0.07522  0.7326899999999997  0.9197799999999999  1.0000
  C   C58       1.0  0.10661  0.77171  0.8482699999999999  1.0000
  C   C59       1.0  0.09529  0.71453  0.78895  1.0000
  C   C60       1.0  0.12274  0.7486799999999999  0.72139  1.0000
  C   C61       1.0  0.09455  0.6921299999999999  0.6574299999999998  1.0000
  C   C62       1.0  0.16222  0.8392999999999998  0.7135899999999998  1.0000
  C   C63       1.0  0.17005  0.8979099999999998  0.77272  1.0000
  C   C64       1.0  0.1438  0.8628  0.8407099999999997  1.0000
  O   O1        1.0  0.826  0.99204  0.5029  1.0000
  O   O2        1.0  0.70805  0.10951999999999998  0.45974999999999994  1.0000
  O   O3        1.0  0.20189  0.07654  0.45706  1.0000
  O   O4        1.0  0.10817  0.9421599999999998  0.48480999999999996  1.0000
  O   O5        1.0  0.51197  0.7359299999999998  0.52642  1.0000
  O   O6        1.0  0.9952  0.16387999999999994  0.5795999999999999  1.0000
  O   O7        1.0  0.12657  0.26835  0.5262399999999999  1.0000
  O   O8        1.0  0.10131  0.10702999999999997  0.8426699999999999  1.0000
  O   O9        1.0  0.06453  0.23738  0.89961  1.0000
  O   O10       1.0  0.20518  0.4841899999999999  0.74003  1.0000
  O   O11       1.0  0.174  0.49203999999999987  0.49711  1.0000
  O   O12       1.0  0.29195  0.6095299999999998  0.54025  1.0000
  O   O13       1.0  0.79811  0.5765499999999998  0.54295  1.0000
  O   O14       1.0  0.89183  0.4421599999999999  0.5152  1.0000
  O   O15       1.0  0.48803  0.23592999999999995  0.47358999999999996  1.0000
  O   O16       1.0  0.0048  0.6638799999999998  0.4203999999999999  1.0000
  O   O17       1.0  0.8734400000000001  0.7683599999999998  0.47376999999999997  1.0000
  O   O18       1.0  0.8986899999999999  0.6070299999999998  0.15733  1.0000
  O   O19       1.0  0.9354700000000001  0.7373899999999998  0.10039  1.0000
  O   O20       1.0  0.79481  0.9841899999999998  0.25997  1.0000
  O   O21       1.0  0.17184  0.9916599999999998  0.00513  1.0000
  O   O22       1.0  0.28882  0.11149999999999997  0.9654799999999998  1.0000
  O   O23       1.0  0.79688  0.07974999999999997  0.9576  1.0000
  O   O24       1.0  0.8893100000000002  0.9433899999999997  0.9792799999999999  1.0000
  O   O25       1.0  0.48844  0.73667  0.02647  1.0000
  O   O26       1.0  0.00516  0.16442999999999994  0.07998  1.0000
  O   O27       1.0  0.8724500000000001  0.2672599999999999  0.025959999999999993  1.0000
  O   O28       1.0  0.9068200000000001  0.10526999999999997  0.33972  1.0000
  O   O29       1.0  0.9356700000000001  0.23515999999999995  0.39903  1.0000
  O   O30       1.0  0.79804  0.48499  0.24047  1.0000
  O   O31       1.0  0.82816  0.49166  0.9948799999999999  1.0000
  O   O32       1.0  0.71118  0.6115  0.03452  1.0000
  O   O33       1.0  0.20312  0.57975  0.04239999999999999  1.0000
  O   O34       1.0  0.11069  0.44339  0.02072  1.0000
  O   O35       1.0  0.51155  0.23666999999999994  0.9735299999999998  1.0000
  O   O36       1.0  0.9948400000000001  0.66444  0.92002  1.0000
  O   O37       1.0  0.12754  0.7672599999999998  0.9740499999999999  1.0000
  O   O38       1.0  0.09318  0.6052699999999999  0.66029  1.0000
  O   O39       1.0  0.06433  0.73515  0.60097  1.0000
  O   O40       1.0  0.20196  0.9849899999999998  0.75953  1.0000
