data_image0
_chemical_formula_structural       La4H24C60N4O36
_chemical_formula_sum              "La4 H24 C60 N4 O36"
_cell_length_a       14.46735
_cell_length_b       14.55903
_cell_length_c       15.58499
_cell_angle_alpha    96.82922
_cell_angle_beta     116.40011000000001
_cell_angle_gamma    113.43875

_symmetry_space_group_name_H-M    'P 1'
_symmetry_Int_Tables_number       1

loop_
  _symmetry_equiv_pos_as_xyz
  'x,y,z'

loop_
  _atom_site_type_symbol
  _atom_site_label
  _atom_site_symmetry_multiplicity
  _atom_site_fract_x
  _atom_site_fract_y
  _atom_site_fract_z
  _atom_site_occupancy
  La  La1       1.0  0.8594799999999999  0.87802  0.37223  1.0000
  La  La2       1.0  0.005109999999999985  0.48801999999999995  0.12742  1.0000
  La  La3       1.0  0.14051000000000002  0.12198000000000005  0.62777  1.0000
  La  La4       1.0  0.9948899999999998  0.51198  0.87258  1.0000
  H   H1        1.0  0.8601099999999998  0.64852  0.11374  1.0000
  H   H2        1.0  0.81273  0.72749  0.84478  1.0000
  H   H3        1.0  0.6956599999999998  0.8397099999999998  0.02397  1.0000
  H   H4        1.0  0.67999  0.7491000000000001  0.55591  1.0000
  H   H5        1.0  0.9862399999999999  0.04542000000000003  0.7993000000000001  1.0000
  H   H6        1.0  0.9011999999999998  0.010749999999999945  0.90926  1.0000
  H   H7        1.0  0.03262999999999997  0.7450999999999999  0.38647  1.0000
  H   H8        1.0  0.3837399999999999  0.96785  0.65478  1.0000
  H   H9        1.0  0.3161199999999999  0.67248  0.47522  1.0000
  H   H10       1.0  0.6943900000000001  0.12525000000000006  0.9439100000000002  1.0000
  H   H11       1.0  0.74477  0.18791  0.70006  1.0000
  H   H12       1.0  0.60269  0.9929200000000001  0.59083  1.0000
  H   H13       1.0  0.1398800000000001  0.3514800000000001  0.8862500000000001  1.0000
  H   H14       1.0  0.18725999999999995  0.27251  0.15522  1.0000
  H   H15       1.0  0.30433  0.1602899999999999  0.97603  1.0000
  H   H16       1.0  0.32000000000000006  0.25090000000000007  0.44409000000000004  1.0000
  H   H17       1.0  0.013749999999999998  0.95458  0.20070000000000002  1.0000
  H   H18       1.0  0.09879999999999999  0.98924  0.09074  1.0000
  H   H19       1.0  0.96737  0.2549  0.61353  1.0000
  H   H20       1.0  0.6162499999999997  0.03214999999999999  0.34522  1.0000
  H   H21       1.0  0.6838699999999999  0.32752  0.52478  1.0000
  H   H22       1.0  0.3056099999999998  0.8747499999999999  0.05609  1.0000
  H   H23       1.0  0.25522  0.81209  0.29994  1.0000
  H   H24       1.0  0.39729999999999993  0.007080000000000013  0.40917000000000003  1.0000
  C   C1        1.0  0.7781899999999999  0.7453399999999999  0.07764  1.0000
  C   C2        1.0  0.82855  0.68631  0.05995  1.0000
  C   C3        1.0  0.83778  0.6787  0.9741  1.0000
  C   C4        1.0  0.8011500000000001  0.73264  0.9090100000000001  1.0000
  C   C5        1.0  0.7500099999999998  0.78966  0.92704  1.0000
  C   C6        1.0  0.7364099999999998  0.79561  0.010380000000000002  1.0000
  C   C7        1.0  0.7491499999999998  0.85834  0.79723  1.0000
  C   C8        1.0  0.6852  0.78618  0.6960700000000001  1.0000
  C   C9        1.0  0.73019  0.8064999999999999  0.6334  1.0000
  C   C10       1.0  0.8408499999999999  0.89784  0.67189  1.0000
  C   C11       1.0  0.90194  0.97277  0.77102  1.0000
  C   C12       1.0  0.8554599999999999  0.9535500000000001  0.8324800000000002  1.0000
  C   C13       1.0  0.7758599999999999  0.76137  0.17284  1.0000
  C   C14       1.0  0.8838399999999997  0.61348  0.94566  1.0000
  C   C15       1.0  0.89531  0.91535  0.60897  1.0000
  C   C16       1.0  0.1668  0.70027  0.42225  1.0000
  C   C17       1.0  0.12507  0.76786  0.44003  1.0000
  C   C18       1.0  0.20431  0.86333  0.52572  1.0000
  C   C19       1.0  0.32420000000000004  0.8920399999999999  0.59055  1.0000
  C   C20       1.0  0.36344  0.82323  0.57259  1.0000
  C   C21       1.0  0.28535  0.7263  0.48923  1.0000
  C   C22       1.0  0.5628099999999998  0.9525500000000001  0.70273  1.0000
  C   C23       1.0  0.5913499999999998  0.98978  0.80372  1.0000
  C   C24       1.0  0.6738900000000001  0.09742000000000008  0.86639  1.0000
  C   C25       1.0  0.7260499999999998  0.1695  0.82794  1.0000
  C   C26       1.0  0.7017599999999999  0.13179000000000002  0.72877  1.0000
  C   C27       1.0  0.6222399999999998  0.023800000000000033  0.6676100000000001  1.0000
  C   C28       1.0  0.08753000000000002  0.60246  0.32719000000000004  1.0000
  C   C29       1.0  0.1683  0.93831  0.55453  1.0000
  C   C30       1.0  0.8056099999999998  0.2865  0.89138  1.0000
  C   C31       1.0  0.2218100000000001  0.25466000000000005  0.9223600000000001  1.0000
  C   C32       1.0  0.17145000000000019  0.3136900000000002  0.9400500000000003  1.0000
  C   C33       1.0  0.16221  0.3213  0.0259  1.0000
  C   C34       1.0  0.19884  0.26736  0.09099  1.0000
  C   C35       1.0  0.24998999999999996  0.21034  0.07295  1.0000
  C   C36       1.0  0.26359  0.20438999999999993  0.98962  1.0000
  C   C37       1.0  0.25085  0.14166  0.20276  1.0000
  C   C38       1.0  0.3148  0.21382  0.30393  1.0000
  C   C39       1.0  0.2698  0.1935  0.3666  1.0000
  C   C40       1.0  0.15914000000000006  0.10216000000000001  0.32811000000000007  1.0000
  C   C41       1.0  0.09804999999999997  0.027229999999999983  0.22898  1.0000
  C   C42       1.0  0.14452999999999994  0.04645  0.16752  1.0000
  C   C43       1.0  0.2241299999999999  0.23863  0.82716  1.0000
  C   C44       1.0  0.11614999999999998  0.38652  0.05434  1.0000
  C   C45       1.0  0.10469  0.08465  0.39103  1.0000
  C   C46       1.0  0.8331899999999998  0.29973  0.57775  1.0000
  C   C47       1.0  0.8749300000000001  0.23213  0.55996  1.0000
  C   C48       1.0  0.7956899999999998  0.13667  0.47428  1.0000
  C   C49       1.0  0.6757900000000001  0.10796000000000001  0.40945  1.0000
  C   C50       1.0  0.6365499999999996  0.17677  0.42741  1.0000
  C   C51       1.0  0.7146499999999999  0.27369  0.51077  1.0000
  C   C52       1.0  0.43719  0.04744000000000002  0.29726  1.0000
  C   C53       1.0  0.40864999999999996  0.010220000000000003  0.19627  1.0000
  C   C54       1.0  0.3260999999999999  0.9025799999999999  0.13361  1.0000
  C   C55       1.0  0.27395  0.8305  0.17205  1.0000
  C   C56       1.0  0.2982299999999999  0.86821  0.27122  1.0000
  C   C57       1.0  0.37774999999999986  0.9762  0.33239  1.0000
  C   C58       1.0  0.91246  0.39754000000000006  0.6728100000000002  1.0000
  C   C59       1.0  0.8317  0.06169000000000001  0.44547  1.0000
  C   C60       1.0  0.19439  0.7135  0.10862  1.0000
  N   N1        1.0  0.5703999999999998  0.68631  0.65263  1.0000
  N   N2        1.0  0.5348299999999998  0.91873  0.84689  1.0000
  N   N3        1.0  0.42959999999999987  0.31367999999999996  0.34737  1.0000
  N   N4        1.0  0.46516  0.08127  0.15311  1.0000
  O   O1        1.0  0.71858  0.8052500000000001  0.18379000000000004  1.0000
  O   O2        1.0  0.83975  0.73915  0.24659000000000006  1.0000
  O   O3        1.0  0.91681  0.55939  0.00048  1.0000
  O   O4        1.0  0.8896499999999998  0.61134  0.86638  1.0000
  O   O5        1.0  0.55319  0.64373  0.71239  1.0000
  O   O6        1.0  0.4992799999999999  0.6515500000000001  0.55825  1.0000
  O   O7        1.0  0.8317599999999998  0.85529  0.51447  1.0000
  O   O8        1.0  0.004359999999999998  0.99065  0.65546  1.0000
  O   O9        1.0  0.7093099999999998  0.8422  0.86295  1.0000
  O   O10       1.0  0.1225  0.53619  0.3159  1.0000
  O   O11       1.0  0.9897099999999998  0.59063  0.2537  1.0000
  O   O12       1.0  0.05868000000000009  0.9166400000000001  0.5005  1.0000
  O   O13       1.0  0.24687999999999988  0.02378  0.63349  1.0000
  O   O14       1.0  0.4326899999999999  0.84061  0.78671  1.0000
  O   O15       1.0  0.5940399999999999  0.94344  0.9415000000000001  1.0000
  O   O16       1.0  0.83949  0.31692  0.98573  1.0000
  O   O17       1.0  0.8344299999999998  0.34917  0.84553  1.0000
  O   O18       1.0  0.48105000000000003  0.84719  0.63652  1.0000
  O   O19       1.0  0.28141999999999995  0.19475  0.81621  1.0000
  O   O20       1.0  0.16024999999999995  0.26085  0.75341  1.0000
  O   O21       1.0  0.08317999999999996  0.4406  0.99952  1.0000
  O   O22       1.0  0.11033999999999998  0.38866  0.13362  1.0000
  O   O23       1.0  0.44681  0.35627  0.2876  1.0000
  O   O24       1.0  0.50072  0.34845  0.44175  1.0000
  O   O25       1.0  0.16823000000000005  0.14471000000000003  0.48553000000000013  1.0000
  O   O26       1.0  0.9956399999999997  0.009350000000000006  0.34454  1.0000
  O   O27       1.0  0.29068  0.1578  0.13705  1.0000
  O   O28       1.0  0.8774999999999997  0.46381  0.68409  1.0000
  O   O29       1.0  0.01029000000000002  0.40936  0.7463  1.0000
  O   O30       1.0  0.9413099999999996  0.08336  0.4995  1.0000
  O   O31       1.0  0.75311  0.97622  0.36651  1.0000
  O   O32       1.0  0.5673  0.15939000000000003  0.21329  1.0000
  O   O33       1.0  0.4059499999999998  0.05655  0.0585  1.0000
  O   O34       1.0  0.16050999999999999  0.68308  0.014270000000000003  1.0000
  O   O35       1.0  0.16557  0.65083  0.15447  1.0000
  O   O36       1.0  0.5189499999999999  0.15281000000000003  0.3634800000000001  1.0000
