data_image0
_chemical_formula_structural       Ce4P4H44C28N4O20
_chemical_formula_sum              "Ce4 P4 H44 C28 N4 O20"
_cell_length_a       4.22061
_cell_length_b       13.81505
_cell_length_c       20.93099
_cell_angle_alpha    89.88291
_cell_angle_beta     86.09567
_cell_angle_gamma    90.14334000000001

_symmetry_space_group_name_H-M    'P 1'
_symmetry_Int_Tables_number       1

loop_
  _symmetry_equiv_pos_as_xyz
  'x,y,z'

loop_
  _atom_site_type_symbol
  _atom_site_label
  _atom_site_symmetry_multiplicity
  _atom_site_fract_x
  _atom_site_fract_y
  _atom_site_fract_z
  _atom_site_occupancy
  Ce  Ce1       1.0  0.72921  0.11616999999999998  0.95413  1.0000
  Ce  Ce2       1.0  0.2886699999999999  0.61667  0.54507  1.0000
  Ce  Ce3       1.0  0.26887  0.88367  0.04668  1.0000
  Ce  Ce4       1.0  0.7239  0.3835399999999999  0.4547  1.0000
  P   P1        1.0  0.84982  0.0608  0.09705  1.0000
  P   P2        1.0  0.14845  0.56078  0.40384999999999993  1.0000
  P   P3        1.0  0.14997000000000008  0.93926  0.9033699999999998  1.0000
  P   P4        1.0  0.8663900000000001  0.43942  0.59586  1.0000
  H   H1        1.0  0.67886  0.9778399999999998  0.19292  1.0000
  H   H2        1.0  0.43512000000000006  0.08249999999999999  0.19229999999999997  1.0000
  H   H3        1.0  0.65783  0.09294  0.30795  1.0000
  H   H4        1.0  0.8998799999999999  0.9893099999999998  0.28756  1.0000
  H   H5        1.0  0.37426  0.08588999999999997  0.30614  1.0000
  H   H6        1.0  0.09665  0.08783  0.37516  1.0000
  H   H7        1.0  0.8858699999999999  0.24795  0.33182  1.0000
  H   H8        1.0  0.19823000000000002  0.32864  0.24078999999999998  1.0000
  H   H9        1.0  0.43709  0.22361  0.22891999999999998  1.0000
  H   H10       1.0  0.9767300000000001  0.22375  0.16019  1.0000
  H   H11       1.0  0.72055  0.23742999999999995  0.23155999999999996  1.0000
  H   H12       1.0  0.3137  0.47702  0.30853  1.0000
  H   H13       1.0  0.56188  0.58137  0.3082  1.0000
  H   H14       1.0  0.34082  0.59501  0.19292  1.0000
  H   H15       1.0  0.09736000000000002  0.49081  0.21215999999999996  1.0000
  H   H16       1.0  0.62443  0.58713  0.19434  1.0000
  H   H17       1.0  0.90219  0.59151  0.12536  1.0000
  H   H18       1.0  0.10861  0.75191  0.16969  1.0000
  H   H19       1.0  0.79892  0.8287  0.26183  1.0000
  H   H20       1.0  0.55949  0.72331  0.27288  1.0000
  H   H21       1.0  0.019819999999999997  0.72215  0.34125  1.0000
  H   H22       1.0  0.2763  0.73753  0.27004999999999996  1.0000
  H   H23       1.0  0.32134000000000007  0.02262  0.8077099999999999  1.0000
  H   H24       1.0  0.56559  0.9180299999999999  0.8082  1.0000
  H   H25       1.0  0.34399  0.9071799999999999  0.6924299999999999  1.0000
  H   H26       1.0  0.101  0.01086  0.71257  1.0000
  H   H27       1.0  0.62757  0.9141  0.6940599999999999  1.0000
  H   H28       1.0  0.9056399999999999  0.91206  0.62504  1.0000
  H   H29       1.0  0.11658000000000002  0.752  0.66841  1.0000
  H   H30       1.0  0.8032199999999999  0.6715499999999998  0.75973  1.0000
  H   H31       1.0  0.56469  0.7765799999999998  0.77145  1.0000
  H   H32       1.0  0.02399999999999998  0.77664  0.84007  1.0000
  H   H33       1.0  0.28120999999999985  0.76296  0.76885  1.0000
  H   H34       1.0  0.69814  0.52312  0.69111  1.0000
  H   H35       1.0  0.45114  0.41866  0.69125  1.0000
  H   H36       1.0  0.6724400000000001  0.40748  0.80692  1.0000
  H   H37       1.0  0.9161099999999999  0.5113  0.78663  1.0000
  H   H38       1.0  0.38888000000000006  0.4150399999999999  0.80538  1.0000
  H   H39       1.0  0.11074000000000006  0.41203  0.8743299999999999  1.0000
  H   H40       1.0  0.90005  0.25201  0.8307299999999999  1.0000
  H   H41       1.0  0.21280000000000004  0.17249999999999996  0.7398299999999999  1.0000
  H   H42       1.0  0.45286  0.27757  0.7280099999999999  1.0000
  H   H43       1.0  0.9926800000000001  0.27772  0.65922  1.0000
  H   H44       1.0  0.7360999999999999  0.26326999999999995  0.73056  1.0000
  C   C1        1.0  0.69057  0.055629999999999985  0.18164999999999998  1.0000
  C   C2        1.0  0.90028  0.06887  0.2852  1.0000
  C   C3        1.0  0.13074000000000005  0.11257  0.3252  1.0000
  C   C4        1.0  0.13233  0.2236  0.31882  1.0000
  C   C5        1.0  0.19501  0.24985  0.24812  1.0000
  C   C6        1.0  0.9533100000000001  0.20460999999999993  0.21119  1.0000
  C   C7        1.0  0.31791  0.27571  0.36493999999999993  1.0000
  C   C8        1.0  0.30535  0.55504  0.31913  1.0000
  C   C9        1.0  0.09773  0.57028  0.21529  1.0000
  C   C10       1.0  0.86785  0.61479  0.17555  1.0000
  C   C11       1.0  0.86304  0.72572  0.18275  1.0000
  C   C12       1.0  0.80143  0.75013  0.25368  1.0000
  C   C13       1.0  0.043300000000000026  0.7041199999999999  0.29014999999999996  1.0000
  C   C14       1.0  0.67562  0.7774499999999998  0.13685  1.0000
  C   C15       1.0  0.30994  0.94473  0.81878  1.0000
  C   C16       1.0  0.10134999999999997  0.9313399999999997  0.71505  1.0000
  C   C17       1.0  0.87137  0.88749  0.6750399999999999  1.0000
  C   C18       1.0  0.8701799999999998  0.77649  0.68141  1.0000
  C   C19       1.0  0.8067000000000001  0.7503099999999998  0.7521599999999999  1.0000
  C   C20       1.0  0.04807000000000002  0.7957299999999998  0.7890799999999999  1.0000
  C   C21       1.0  0.6851000000000002  0.72456  0.63516  1.0000
  C   C22       1.0  0.70746  0.44519  0.6804299999999999  1.0000
  C   C23       1.0  0.9153900000000001  0.43177  0.7842499999999999  1.0000
  C   C24       1.0  0.14511  0.3879199999999999  0.82431  1.0000
  C   C25       1.0  0.14655  0.27697  0.81773  1.0000
  C   C26       1.0  0.21007000000000003  0.25124  0.7471  1.0000
  C   C27       1.0  0.96887  0.29651  0.7101899999999999  1.0000
  C   C28       1.0  0.33168  0.22444  0.86362  1.0000
  N   N1        1.0  0.9377  0.09819  0.2174  1.0000
  N   N2        1.0  0.05894999999999999  0.5978199999999998  0.28332  1.0000
  N   N3        1.0  0.06338000000000003  0.9021599999999997  0.7828699999999998  1.0000
  N   N4        1.0  0.95358  0.40286  0.71644  1.0000
  O   O1        1.0  0.74692  0.97787  0.04735  1.0000
  O   O2        1.0  0.79415  0.15659  0.06297  1.0000
  O   O3        1.0  0.20215999999999998  0.03361  0.10463999999999998  1.0000
  O   O4        1.0  0.20977  0.28119  0.42516  1.0000
  O   O5        1.0  0.56979  0.32079  0.3461199999999999  1.0000
  O   O6        1.0  0.25210000000000005  0.47799  0.45350999999999997  1.0000
  O   O7        1.0  0.20661000000000002  0.65667  0.43764  1.0000
  O   O8        1.0  0.7955400000000001  0.53382  0.39672999999999997  1.0000
  O   O9        1.0  0.77829  0.7814  0.0762  1.0000
  O   O10       1.0  0.4277000000000001  0.82381  0.15581  1.0000
  O   O11       1.0  0.25260000000000005  0.02221  0.9530699999999999  1.0000
  O   O12       1.0  0.20616999999999994  0.8435499999999999  0.93762  1.0000
  O   O13       1.0  0.79795  0.9664399999999997  0.89558  1.0000
  O   O14       1.0  0.79348  0.71883  0.57489  1.0000
  O   O15       1.0  0.43284999999999996  0.67971  0.65393  1.0000
  O   O16       1.0  0.7628  0.5222699999999999  0.54615  1.0000
  O   O17       1.0  0.80936  0.34347  0.56207  1.0000
  O   O18       1.0  0.21921000000000002  0.4663399999999999  0.60317  1.0000
  O   O19       1.0  0.22373999999999997  0.21839999999999996  0.9238999999999999  1.0000
  O   O20       1.0  0.5823800000000001  0.17945  0.8446699999999998  1.0000
