data_image0
_chemical_formula_structural       Eu4H26C50O28
_chemical_formula_sum              "Eu4 H26 C50 O28"
_cell_length_a       8.53504
_cell_length_b       10.67042
_cell_length_c       17.69869
_cell_angle_alpha    99.90799
_cell_angle_beta     97.30156
_cell_angle_gamma    99.66861

_symmetry_space_group_name_H-M    'P 1'
_symmetry_Int_Tables_number       1

loop_
  _symmetry_equiv_pos_as_xyz
  'x,y,z'

loop_
  _atom_site_type_symbol
  _atom_site_label
  _atom_site_symmetry_multiplicity
  _atom_site_fract_x
  _atom_site_fract_y
  _atom_site_fract_z
  _atom_site_occupancy
  Eu  Eu1       1.0  0.47505  0.8547599999999999  0.19652  1.0000
  Eu  Eu2       1.0  0.9646300000000001  0.8039499999999999  0.26015  1.0000
  Eu  Eu3       1.0  0.5251  0.14524  0.80337  1.0000
  Eu  Eu4       1.0  0.03535999999999996  0.19603999999999983  0.73977  1.0000
  H   H1        1.0  0.13754  0.50385  0.43775  1.0000
  H   H2        1.0  0.12815999999999994  0.2914  0.47997999999999996  1.0000
  H   H3        1.0  0.96141  0.09039  0.39463  1.0000
  H   H4        1.0  0.79571  0.31669  0.23259  1.0000
  H   H5        1.0  0.08364999999999999  0.85993  0.85936  1.0000
  H   H6        1.0  0.13789  0.7007  0.94278  1.0000
  H   H7        1.0  0.9683399999999999  0.66508  0.04574  1.0000
  H   H8        1.0  0.69075  0.9401999999999999  0.9775700000000002  1.0000
  H   H9        1.0  0.37985  0.87401  0.61433  1.0000
  H   H10       1.0  0.2205  0.7260899999999999  0.49434  1.0000
  H   H11       1.0  0.3515  0.67693  0.37771  1.0000
  H   H12       1.0  0.7913799999999999  0.9335  0.49894  1.0000
  H   H13       1.0  0.12067999999999997  0.5291199999999999  0.14399  1.0000
  H   H14       1.0  0.8621599999999998  0.49651  0.56208  1.0000
  H   H15       1.0  0.87178  0.70904  0.51984  1.0000
  H   H16       1.0  0.03872999999999997  0.9099199999999998  0.60531  1.0000
  H   H17       1.0  0.20403999999999994  0.68333  0.76729  1.0000
  H   H18       1.0  0.91654  0.14008  0.14063  1.0000
  H   H19       1.0  0.8622499999999997  0.29927  0.05719  1.0000
  H   H20       1.0  0.03172999999999993  0.33487999999999996  0.9542199999999998  1.0000
  H   H21       1.0  0.30945  0.059829999999999994  0.02239  1.0000
  H   H22       1.0  0.62047  0.12615  0.38574  1.0000
  H   H23       1.0  0.77969  0.27395  0.50577  1.0000
  H   H24       1.0  0.64866  0.32318  0.62236  1.0000
  H   H25       1.0  0.20882  0.06664  0.50104  1.0000
  H   H26       1.0  0.8792199999999999  0.47096999999999994  0.856  1.0000
  C   C1        1.0  0.9764200000000001  0.54784  0.30576  1.0000
  C   C2        1.0  0.9702299999999999  0.42256999999999995  0.33184  1.0000
  C   C3        1.0  0.06275  0.41564999999999996  0.40197  1.0000
  C   C4        1.0  0.05833000000000001  0.29663  0.42512  1.0000
  C   C5        1.0  0.96367  0.18396999999999994  0.37782  1.0000
  C   C6        1.0  0.8691199999999999  0.19103999999999993  0.30831  1.0000
  C   C7        1.0  0.87111  0.31072  0.28574  1.0000
  C   C8        1.0  0.75863  0.07416  0.2599  1.0000
  C   C9        1.0  0.84721  0.0018000000000000303  0.86139  1.0000
  C   C10       1.0  0.88158  0.90757  0.91172  1.0000
  C   C11       1.0  0.008569999999999953  0.8407899999999998  0.90287  1.0000
  C   C12       1.0  0.039199999999999964  0.7520799999999999  0.9500999999999998  1.0000
  C   C13       1.0  0.94543  0.73197  0.00759  1.0000
  C   C14       1.0  0.82046  0.8006599999999999  0.01782  1.0000
  C   C15       1.0  0.7876399999999999  0.8873199999999999  0.9692799999999999  1.0000
  C   C16       1.0  0.72578  0.7874499999999999  0.0821  1.0000
  C   C17       1.0  0.68438  0.005119999999999995  0.63677  1.0000
  C   C18       1.0  0.5952600000000001  0.9124499999999999  0.56458  1.0000
  C   C19       1.0  0.43446000000000007  0.85277  0.56264  1.0000
  C   C20       1.0  0.34629999999999994  0.7684099999999999  0.49566  1.0000
  C   C21       1.0  0.41908999999999996  0.7409799999999999  0.43044  1.0000
  C   C22       1.0  0.58038  0.79944  0.43205  1.0000
  C   C23       1.0  0.6587799999999999  0.7705099999999998  0.36241  1.0000
  C   C24       1.0  0.6678299999999999  0.88693  0.49885  1.0000
  C   C25       1.0  0.21203999999999998  0.6197999999999999  0.15907  1.0000
  C   C26       1.0  0.02368000000000002  0.45226  0.69413  1.0000
  C   C27       1.0  0.029629999999999993  0.5776  0.66805  1.0000
  C   C28       1.0  0.93708  0.58462  0.59791  1.0000
  C   C29       1.0  0.94151  0.70365  0.57473  1.0000
  C   C30       1.0  0.036199999999999934  0.8162899999999997  0.62209  1.0000
  C   C31       1.0  0.13064  0.80919  0.69162  1.0000
  C   C32       1.0  0.12868999999999994  0.68946  0.71416  1.0000
  C   C33       1.0  0.24126  0.9260099999999999  0.74009  1.0000
  C   C34       1.0  0.15307000000000004  0.99823  0.13856  1.0000
  C   C35       1.0  0.11861999999999999  0.09245999999999997  0.08824  1.0000
  C   C36       1.0  0.9916100000000001  0.1592  0.0971  1.0000
  C   C37       1.0  0.96095  0.2479  0.04987  1.0000
  C   C38       1.0  0.05472  0.26802  0.99238  1.0000
  C   C39       1.0  0.17969999999999997  0.19934999999999997  0.9821299999999998  1.0000
  C   C40       1.0  0.21256  0.11272  0.03067  1.0000
  C   C41       1.0  0.27418000000000003  0.21257999999999988  0.91777  1.0000
  C   C42       1.0  0.31569  0.99494  0.3632  1.0000
  C   C43       1.0  0.40478  0.08778999999999998  0.43536  1.0000
  C   C44       1.0  0.56566  0.14737  0.43736  1.0000
  C   C45       1.0  0.65387  0.23163  0.5044  1.0000
  C   C46       1.0  0.5811  0.2591  0.56962  1.0000
  C   C47       1.0  0.4198  0.20066  0.56798  1.0000
  C   C48       1.0  0.34131  0.22954  0.6376  1.0000
  C   C49       1.0  0.33232999999999985  0.11327  0.50114  1.0000
  C   C50       1.0  0.7879400000000001  0.38026  0.84096  1.0000
  O   O1        1.0  0.07110000000000001  0.65051  0.34497  1.0000
  O   O2        1.0  0.88905  0.55623  0.24322  1.0000
  O   O3        1.0  0.64193  0.08716999999999998  0.21196  1.0000
  O   O4        1.0  0.7763499999999999  0.95985  0.2694  1.0000
  O   O5        1.0  0.94232  0.03071  0.81444  1.0000
  O   O6        1.0  0.7217199999999999  0.050419999999999986  0.86792  1.0000
  O   O7        1.0  0.59474  0.8305999999999999  0.07952  1.0000
  O   O8        1.0  0.77736  0.73728  0.13844  1.0000
  O   O9        1.0  0.8325699999999998  0.05127000000000003  0.63979  1.0000
  O   O10       1.0  0.60188  0.031309999999999984  0.69049  1.0000
  O   O11       1.0  0.57018  0.7364499999999999  0.29569  1.0000
  O   O12       1.0  0.81052  0.78126  0.37148  1.0000
  O   O13       1.0  0.34259  0.62469  0.1321  1.0000
  O   O14       1.0  0.18326999999999996  0.7185699999999999  0.20359  1.0000
  O   O15       1.0  0.92888  0.34967999999999994  0.65492  1.0000
  O   O16       1.0  0.11111  0.44373  0.75661  1.0000
  O   O17       1.0  0.3578999999999999  0.9128499999999998  0.78802  1.0000
  O   O18       1.0  0.22380999999999993  0.04042999999999997  0.73066  1.0000
  O   O19       1.0  0.05818  0.96932  0.18559  1.0000
  O   O20       1.0  0.27847  0.9495099999999999  0.13196  1.0000
  O   O21       1.0  0.40519  0.16936  0.9203  1.0000
  O   O22       1.0  0.22246  0.26291999999999993  0.86154  1.0000
  O   O23       1.0  0.16751  0.94856  0.36021  1.0000
  O   O24       1.0  0.39815999999999996  0.9688399999999999  0.30945  1.0000
  O   O25       1.0  0.42985  0.26366  0.70433  1.0000
  O   O26       1.0  0.18955  0.21871  0.6285  1.0000
  O   O27       1.0  0.65736  0.37536  0.86791  1.0000
  O   O28       1.0  0.8168199999999998  0.28145  0.79651  1.0000
