data_image0
_chemical_formula_structural       K4H44C36S4N4O18
_chemical_formula_sum              "K4 H44 C36 S4 N4 O18"
_cell_length_a       10.41549
_cell_length_b       13.86832
_cell_length_c       13.82182
_cell_angle_alpha    113.42871
_cell_angle_beta     103.47416
_cell_angle_gamma    103.20498

_symmetry_space_group_name_H-M    'P 1'
_symmetry_Int_Tables_number       1

loop_
  _symmetry_equiv_pos_as_xyz
  'x,y,z'

loop_
  _atom_site_type_symbol
  _atom_site_label
  _atom_site_symmetry_multiplicity
  _atom_site_fract_x
  _atom_site_fract_y
  _atom_site_fract_z
  _atom_site_occupancy
  K   K1        1.0  0.55324  0.3983699999999999  0.32638  1.0000
  K   K2        1.0  0.94664  0.67227  0.60328  1.0000
  K   K3        1.0  0.44676  0.60163  0.67362  1.0000
  K   K4        1.0  0.053360000000000005  0.32773  0.39672  1.0000
  H   H1        1.0  0.35938999999999993  0.20310999999999996  0.7911  1.0000
  H   H2        1.0  0.29944  0.2702999999999999  0.6478  1.0000
  H   H3        1.0  0.6181399999999999  0.17647  0.52411  1.0000
  H   H4        1.0  0.75414  0.1005799999999999  0.7485199999999997  1.0000
  H   H5        1.0  0.6319099999999999  0.9867699999999998  0.6223399999999999  1.0000
  H   H6        1.0  0.80016  0.93264  0.5432  1.0000
  H   H7        1.0  0.94493  0.03739999999999993  0.6654  1.0000
  H   H8        1.0  0.01976999999999995  0.12525999999999995  0.5466499999999999  1.0000
  H   H9        1.0  0.87676  0.014199999999999956  0.4264799999999999  1.0000
  H   H10       1.0  0.8451  0.17433999999999988  0.62909  1.0000
  H   H11       1.0  0.6761200000000002  0.44997  0.55738  1.0000
  H   H12       1.0  0.14062999999999995  0.20779999999999987  0.7981799999999999  1.0000
  H   H13       1.0  0.20102  0.3502499999999999  0.73058  1.0000
  H   H14       1.0  0.8820499999999998  0.4743399999999999  0.8228099999999999  1.0000
  H   H15       1.0  0.74584  0.25202999999999987  0.8998  1.0000
  H   H16       1.0  0.8682400000000002  0.3775199999999999  0.013979999999999996  1.0000
  H   H17       1.0  0.7001600000000001  0.45684  0.06785  1.0000
  H   H18       1.0  0.5554799999999999  0.33527999999999986  0.9624999999999998  1.0000
  H   H19       1.0  0.4798899999999998  0.45361999999999997  0.8741799999999998  1.0000
  H   H20       1.0  0.6228799999999999  0.5731699999999997  0.98592  1.0000
  H   H21       1.0  0.65492  0.3710999999999999  0.82516  1.0000
  H   H22       1.0  0.8236900000000001  0.4417799999999999  0.54951  1.0000
  H   H23       1.0  0.64061  0.79689  0.2089  1.0000
  H   H24       1.0  0.7005599999999998  0.7296999999999998  0.3522  1.0000
  H   H25       1.0  0.38185999999999987  0.8235299999999997  0.4758799999999999  1.0000
  H   H26       1.0  0.24585999999999983  0.8994199999999996  0.25148  1.0000
  H   H27       1.0  0.3680999999999999  0.013229999999999983  0.37765  1.0000
  H   H28       1.0  0.19984  0.06736000000000002  0.4568  1.0000
  H   H29       1.0  0.055069999999999966  0.9625999999999998  0.3346  1.0000
  H   H30       1.0  0.98023  0.8747399999999997  0.45335  1.0000
  H   H31       1.0  0.12323999999999996  0.9857999999999998  0.57352  1.0000
  H   H32       1.0  0.15490999999999996  0.8256599999999998  0.37091  1.0000
  H   H33       1.0  0.32389000000000007  0.55003  0.44263  1.0000
  H   H34       1.0  0.85937  0.7921999999999998  0.20182  1.0000
  H   H35       1.0  0.7989800000000001  0.6497499999999998  0.26942  1.0000
  H   H36       1.0  0.11794999999999994  0.5256599999999999  0.17718999999999996  1.0000
  H   H37       1.0  0.25416  0.7479699999999999  0.1002  1.0000
  H   H38       1.0  0.13175999999999988  0.6224799999999998  0.9860199999999999  1.0000
  H   H39       1.0  0.29984999999999995  0.5431599999999999  0.9321499999999999  1.0000
  H   H40       1.0  0.44452  0.6647199999999998  0.0375  1.0000
  H   H41       1.0  0.52011  0.54638  0.12582  1.0000
  H   H42       1.0  0.37712000000000007  0.4268299999999999  0.01408  1.0000
  H   H43       1.0  0.34508  0.6289  0.17483999999999997  1.0000
  H   H44       1.0  0.17632000000000003  0.55821  0.45049  1.0000
  C   C1        1.0  0.59459  0.13931  0.65832  1.0000
  C   C2        1.0  0.5246  0.15134  0.74045  1.0000
  C   C3        1.0  0.41360000000000025  0.19717000000000007  0.73169  1.0000
  C   C4        1.0  0.38267  0.23569999999999988  0.65503  1.0000
  C   C5        1.0  0.45957000000000003  0.23087  0.58238  1.0000
  C   C6        1.0  0.5640699999999998  0.18315999999999993  0.58381  1.0000
  C   C7        1.0  0.69346  0.07716  0.65798  1.0000
  C   C8        1.0  0.87207  0.020410000000000005  0.58339  1.0000
  C   C9        1.0  0.9534000000000001  0.03580000000000001  0.50854  1.0000
  C   C10       1.0  0.9052699999999999  0.3407799999999999  0.8608199999999999  1.0000
  C   C11       1.0  0.97521  0.2587499999999998  0.8491799999999999  1.0000
  C   C12       1.0  0.08641999999999998  0.2670999999999999  0.80365  1.0000
  C   C13       1.0  0.11764999999999996  0.3433499999999999  0.76497  1.0000
  C   C14       1.0  0.04047999999999987  0.41570999999999986  0.7691199999999998  1.0000
  C   C15       1.0  0.9359000000000001  0.41465  0.81662  1.0000
  C   C16       1.0  0.8065599999999999  0.34191999999999984  0.9231099999999998  1.0000
  C   C17       1.0  0.62818  0.4168599999999999  0.97962  1.0000
  C   C18       1.0  0.5464899999999999  0.49147999999999975  0.9640599999999998  1.0000
  C   C19       1.0  0.40541  0.8606899999999998  0.34168  1.0000
  C   C20       1.0  0.4754000000000001  0.8486599999999999  0.25954  1.0000
  C   C21       1.0  0.5864  0.8028299999999998  0.26831  1.0000
  C   C22       1.0  0.61733  0.7642999999999999  0.34497  1.0000
  C   C23       1.0  0.5404300000000001  0.7691299999999999  0.41762  1.0000
  C   C24       1.0  0.4359299999999998  0.8168399999999996  0.4161899999999999  1.0000
  C   C25       1.0  0.3065399999999999  0.9228399999999999  0.34202  1.0000
  C   C26       1.0  0.12793999999999994  0.9795899999999997  0.41661  1.0000
  C   C27       1.0  0.04660999999999997  0.9642  0.49146  1.0000
  C   C28       1.0  0.09472999999999994  0.6592199999999998  0.13917999999999997  1.0000
  C   C29       1.0  0.024789999999999975  0.74125  0.15082  1.0000
  C   C30       1.0  0.91358  0.7329  0.19635  1.0000
  C   C31       1.0  0.88235  0.6566499999999998  0.23502999999999996  1.0000
  C   C32       1.0  0.9595200000000002  0.5842899999999998  0.23088  1.0000
  C   C33       1.0  0.06409999999999995  0.5853499999999999  0.18338  1.0000
  C   C34       1.0  0.19344000000000003  0.6580799999999999  0.07689  1.0000
  C   C35       1.0  0.37183  0.58314  0.020379999999999995  1.0000
  C   C36       1.0  0.45352  0.50852  0.03594  1.0000
  S   S1        1.0  0.41992  0.29315  0.49461  1.0000
  S   S2        1.0  0.07945000000000003  0.5034  0.70688  1.0000
  S   S3        1.0  0.5800800000000002  0.70685  0.50539  1.0000
  S   S4        1.0  0.9205500000000001  0.4965899999999997  0.29312  1.0000
  N   N1        1.0  0.7869  0.09162  0.59944  1.0000
  N   N2        1.0  0.71327  0.40064  0.9083  1.0000
  N   N3        1.0  0.21311  0.9083799999999999  0.40055999999999997  1.0000
  N   N4        1.0  0.28673  0.5993599999999998  0.09169999999999999  1.0000
  O   O1        1.0  0.5648  0.1277699999999999  0.8196599999999998  1.0000
  O   O2        1.0  0.26665999999999995  0.2721299999999999  0.46473  1.0000
  O   O3        1.0  0.5072  0.41630999999999996  0.57058  1.0000
  O   O4        1.0  0.46346000000000004  0.24313999999999994  0.39763999999999994  1.0000
  O   O5        1.0  0.9349600000000001  0.18009  0.87301  1.0000
  O   O6        1.0  0.23277  0.53312  0.72811  1.0000
  O   O7        1.0  0.9921600000000002  0.42845  0.58307  1.0000
  O   O8        1.0  0.0355699999999999  0.5998799999999996  0.7577599999999999  1.0000
  O   O9        1.0  0.4352  0.8722299999999997  0.18034  1.0000
  O   O10       1.0  0.7333499999999998  0.7278699999999999  0.53527  1.0000
  O   O11       1.0  0.4928  0.5836899999999999  0.42943  1.0000
  O   O12       1.0  0.5365499999999999  0.7568699999999998  0.60236  1.0000
  O   O13       1.0  0.06504000000000003  0.81991  0.12699  1.0000
  O   O14       1.0  0.7672400000000001  0.46688  0.27188999999999997  1.0000
  O   O15       1.0  0.00784  0.57154  0.41693  1.0000
  O   O16       1.0  0.9644300000000001  0.4001099999999999  0.24224  1.0000
  O   O17       1.0  0.74998  0.4712399999999999  0.52833  1.0000
  O   O18       1.0  0.25003000000000003  0.5287599999999998  0.47167  1.0000
