data_image0
_chemical_formula_structural       Ag24H20C48O24F12
_chemical_formula_sum              "Ag24 H20 C48 O24 F12"
_cell_length_a       4.95826
_cell_length_b       18.93109
_cell_length_c       22.95503
_cell_angle_alpha    90.57578
_cell_angle_beta     80.30396
_cell_angle_gamma    91.18487

_space_group_name_H-M_alt    "P 1"
_space_group_IT_number       1

loop_
  _space_group_symop_operation_xyz
  'x, y, z'

loop_
  _atom_site_type_symbol
  _atom_site_label
  _atom_site_symmetry_multiplicity
  _atom_site_fract_x
  _atom_site_fract_y
  _atom_site_fract_z
  _atom_site_occupancy
  Ag  Ag1       1.0  0.85754  0.8917600000000001  0.55639  1.0000
  Ag  Ag2       1.0  0.8576300000000001  0.9613800000000001  0.69274  1.0000
  Ag  Ag3       1.0  0.42513  0.8596000000000001  0.48638000000000003  1.0000
  Ag  Ag4       1.0  0.35455  0.017  0.57995  1.0000
  Ag  Ag5       1.0  0.03272000000000002  0.14011  0.56944  1.0000
  Ag  Ag6       1.0  0.31828  0.9520700000000001  0.74088  1.0000
  Ag  Ag7       1.0  0.6086599999999999  0.39616000000000007  0.9508300000000001  1.0000
  Ag  Ag8       1.0  0.6372  0.4608  0.80279  1.0000
  Ag  Ag9       1.0  0.04180000000000001  0.36051000000000005  0.01575  1.0000
  Ag  Ag10      1.0  0.15093999999999982  0.51859  0.9201200000000002  1.0000
  Ag  Ag11      1.0  0.50039  0.64227  0.9267  1.0000
  Ag  Ag12      1.0  0.17353000000000016  0.44717  0.75552  1.0000
  Ag  Ag13      1.0  0.15149999999999997  0.10971  0.44333  1.0000
  Ag  Ag14      1.0  0.13880999999999996  0.04138  0.30507  1.0000
  Ag  Ag15      1.0  0.5812800000000001  0.14195  0.51471  1.0000
  Ag  Ag16      1.0  0.6372  0.98353  0.42291  1.0000
  Ag  Ag17      1.0  0.9775499999999999  0.86072  0.42963  1.0000
  Ag  Ag18      1.0  0.6777599999999999  0.047839999999999994  0.25672  1.0000
  Ag  Ag19      1.0  0.37218000000000007  0.60583  0.05025  1.0000
  Ag  Ag20      1.0  0.35866  0.53893  0.19827000000000003  1.0000
  Ag  Ag21      1.0  0.9453499999999999  0.63896  0.9847100000000001  1.0000
  Ag  Ag22      1.0  0.84491  0.48251  0.08047  1.0000
  Ag  Ag23      1.0  0.48649  0.35954  0.07421  1.0000
  Ag  Ag24      1.0  0.82237  0.55256  0.24562  1.0000
  H   H1        1.0  0.23198000000000016  0.66356  0.58048  1.0000
  H   H2        1.0  0.39792999999999995  0.56324  0.63381  1.0000
  H   H3        1.0  0.5300500000000001  0.5838900000000001  0.73276  1.0000
  H   H4        1.0  0.34156000000000003  0.80485  0.72303  1.0000
  H   H5        1.0  0.11392000000000006  0.7502  0.8136299999999999  1.0000
  H   H6        1.0  0.15610999999999997  0.17262  0.9238200000000001  1.0000
  H   H7        1.0  0.002880000000000007  0.07108  0.86568  1.0000
  H   H8        1.0  0.9453099999999999  0.08964  0.7611300000000001  1.0000
  H   H9        1.0  0.19664  0.30846  0.77411  1.0000
  H   H10       1.0  0.4188700000000001  0.25609  0.68733  1.0000
  H   H11       1.0  0.75414  0.33407000000000003  0.421  1.0000
  H   H12       1.0  0.5984399999999999  0.43601  0.36760000000000004  1.0000
  H   H13       1.0  0.46921999999999997  0.41651  0.26813  1.0000
  H   H14       1.0  0.65007  0.19475  0.27715  1.0000
  H   H15       1.0  0.8793799999999999  0.24846000000000001  0.18687  1.0000
  H   H16       1.0  0.8151599999999997  0.82784  0.07767  1.0000
  H   H17       1.0  0.97855  0.92947  0.13407  1.0000
  H   H18       1.0  0.062109999999999985  0.91041  0.23693  1.0000
  H   H19       1.0  0.80443  0.69204  0.22713  1.0000
  H   H20       1.0  0.58506  0.75135  0.32143  1.0000
  C   C1        1.0  0.72853  0.012429999999999998  0.57932  1.0000
  C   C2        1.0  0.9791499999999999  0.02254  0.58066  1.0000
  C   C3        1.0  0.8310799999999999  0.7211700000000001  0.47663  1.0000
  C   C4        1.0  0.8495  0.63975  0.48163  1.0000
  C   C5        1.0  0.26166  0.80249  0.60957  1.0000
  C   C6        1.0  0.28585  0.74023  0.648  1.0000
  C   C7        1.0  0.28747999999999985  0.67169  0.62401  1.0000
  C   C8        1.0  0.3803700000000001  0.61574  0.65394  1.0000
  C   C9        1.0  0.45526  0.62701  0.70904  1.0000
  C   C10       1.0  0.4219099999999999  0.694  0.7362  1.0000
  C   C11       1.0  0.34459000000000006  0.75114  0.70496  1.0000
  C   C12       1.0  0.45189  0.69926  0.79901  1.0000
  C   C13       1.0  0.77505  0.51429  0.92171  1.0000
  C   C14       1.0  0.52834  0.52454  0.91837  1.0000
  C   C15       1.0  0.62528  0.22178000000000003  0.0281  1.0000
  C   C16       1.0  0.62485  0.13969  0.02841  1.0000
  C   C17       1.0  0.19839999999999994  0.30849  0.89272  1.0000
  C   C18       1.0  0.17705999999999997  0.24617000000000003  0.85274  1.0000
  C   C19       1.0  0.13464999999999996  0.17882  0.87783  1.0000
  C   C20       1.0  0.047869999999999954  0.12263  0.8453499999999999  1.0000
  C   C21       1.0  0.014960000000000038  0.13265  0.78712  1.0000
  C   C22       1.0  0.08472000000000002  0.19833  0.76006  1.0000
  C   C23       1.0  0.16131000000000006  0.25559  0.79309  1.0000
  C   C24       1.0  0.07928000000000006  0.20344  0.69635  1.0000
  C   C25       1.0  0.26296  0.9887899999999998  0.42347  1.0000
  C   C26       1.0  0.012720000000000044  0.9779500000000001  0.42238  1.0000
  C   C27       1.0  0.15911  0.27884  0.52278  1.0000
  C   C28       1.0  0.13967999999999983  0.36012  0.51763  1.0000
  C   C29       1.0  0.7349399999999999  0.19598  0.39006  1.0000
  C   C30       1.0  0.7049699999999999  0.25875  0.35269  1.0000
  C   C31       1.0  0.7022299999999998  0.32702  0.3770800000000001  1.0000
  C   C32       1.0  0.61284  0.38358  0.34729  1.0000
  C   C33       1.0  0.5405199999999999  0.37296  0.29193  1.0000
  C   C34       1.0  0.57329  0.30602  0.26465  1.0000
  C   C35       1.0  0.64759  0.24833  0.29559  1.0000
  C   C36       1.0  0.54563  0.30132  0.20189  1.0000
  C   C37       1.0  0.22023000000000004  0.48713  0.07918  1.0000
  C   C38       1.0  0.4677799999999999  0.47733  0.08221  1.0000
  C   C39       1.0  0.3554899999999999  0.77935  0.97407  1.0000
  C   C40       1.0  0.3529900000000001  0.86075  0.97475  1.0000
  C   C41       1.0  0.7886  0.69121  0.10873  1.0000
  C   C42       1.0  0.80906  0.75396  0.14853  1.0000
  C   C43       1.0  0.84361  0.82146  0.12334  1.0000
  C   C44       1.0  0.9366999999999999  0.8778800000000001  0.15484  1.0000
  C   C45       1.0  0.98278  0.8676  0.2122  1.0000
  C   C46       1.0  0.91572  0.80211  0.24003  1.0000
  C   C47       1.0  0.8342200000000001  0.74476  0.20786999999999997  1.0000
  C   C48       1.0  0.93881  0.79835  0.30305  1.0000
  O   O1        1.0  0.6130899999999998  0.74779  0.50241  1.0000
  O   O2        1.0  0.03687000000000001  0.74941  0.44436  1.0000
  O   O3        1.0  0.4146500000000001  0.85571  0.61482  1.0000
  O   O4        1.0  0.09631000000000002  0.79595  0.57183  1.0000
  O   O5        1.0  0.25928000000000007  0.73651  0.83498  1.0000
  O   O6        1.0  0.62909  0.66849  0.82068  1.0000
  O   O7        1.0  0.8412399999999999  0.25083  0.00143  1.0000
  O   O8        1.0  0.41424  0.24690000000000004  0.05973  1.0000
  O   O9        1.0  0.049229999999999996  0.36074  0.88791  1.0000
  O   O10       1.0  0.35625999999999985  0.30203  0.9317800000000002  1.0000
  O   O11       1.0  0.28169999999999995  0.24209999999999998  0.66317  1.0000
  O   O12       1.0  0.90614  0.17197  0.67209  1.0000
  O   O13       1.0  0.3792299999999999  0.25197  0.4984100000000001  1.0000
  O   O14       1.0  0.94891  0.25104  0.55405  1.0000
  O   O15       1.0  0.5865799999999999  0.14225  0.38381  1.0000
  O   O16       1.0  0.89926  0.20221  0.4281  1.0000
  O   O17       1.0  0.7356899999999998  0.2637  0.1656  1.0000
  O   O18       1.0  0.36925  0.33284  0.18066  1.0000
  O   O19       1.0  0.14029999999999992  0.74947  0.99996  1.0000
  O   O20       1.0  0.56731  0.75442  0.94281  1.0000
  O   O21       1.0  0.93719  0.63912  0.11451  1.0000
  O   O22       1.0  0.63132  0.69734  0.06939  1.0000
  O   O23       1.0  0.74359  0.76189  0.34049  1.0000
  O   O24       1.0  0.1247799999999999  0.82965  0.32342  1.0000
  F   F1        1.0  0.6974  0.61415  0.53189  1.0000
  F   F2        1.0  0.10731999999999996  0.61794  0.48149  1.0000
  F   F3        1.0  0.74994  0.61072  0.43408  1.0000
  F   F4        1.0  0.783  0.11078999999999999  0.98011  1.0000
  F   F5        1.0  0.37328  0.11048999999999999  0.03152  1.0000
  F   F6        1.0  0.73266  0.12100000000000001  0.07708  1.0000
  F   F7        1.0  0.29434  0.38629  0.46821  1.0000
  F   F8        1.0  0.8817499999999999  0.38218  0.51809  1.0000
  F   F9        1.0  0.23654  0.38946000000000003  0.56514  1.0000
  F   F10       1.0  0.20058999999999996  0.88912  0.02398  1.0000
  F   F11       1.0  0.60686  0.88987  0.96917  1.0000
  F   F12       1.0  0.24011999999999997  0.87916  0.92637  1.0000
