data_image0
_chemical_formula_structural       Mn12H12C48S12O24
_chemical_formula_sum              "Mn12 H12 C48 S12 O24"
_cell_length_a       15.15514
_cell_length_b       16.54236
_cell_length_c       16.54238
_cell_angle_alpha    111.05707
_cell_angle_beta     107.78182
_cell_angle_gamma    107.78089

_symmetry_space_group_name_H-M    'P 1'
_symmetry_Int_Tables_number       1

loop_
  _symmetry_equiv_pos_as_xyz
  'x,y,z'

loop_
  _atom_site_type_symbol
  _atom_site_label
  _atom_site_symmetry_multiplicity
  _atom_site_fract_x
  _atom_site_fract_y
  _atom_site_fract_z
  _atom_site_occupancy
  Mn  Mn1       1.0  0.40708  0.31407  0.65707  1.0000
  Mn  Mn2       1.0  0.7499999999999999  0.34276  0.65722  1.0000
  Mn  Mn3       1.0  0.09292000000000004  0.3429200000000001  0.68591  1.0000
  Mn  Mn4       1.0  0.59292  0.6859200000000002  0.34293000000000007  1.0000
  Mn  Mn5       1.0  0.25000000000000006  0.6572400000000003  0.3427700000000001  1.0000
  Mn  Mn6       1.0  0.90708  0.6570800000000002  0.31408  1.0000
  Mn  Mn7       1.0  0.6477499999999998  0.39765  0.79604  1.0000
  Mn  Mn8       1.0  0.85224  0.20396000000000006  0.60235  1.0000
  Mn  Mn9       1.0  0.24999999999999994  0.39799  0.60202  1.0000
  Mn  Mn10      1.0  0.35224  0.60235  0.20396000000000003  1.0000
  Mn  Mn11      1.0  0.14775000000000005  0.79604  0.39765  1.0000
  Mn  Mn12      1.0  0.74999  0.60201  0.39798  1.0000
  H   H1        1.0  0.6884199999999998  0.54732  0.5775  1.0000
  H   H2        1.0  0.11088000000000002  0.42246000000000006  0.96967  1.0000
  H   H3        1.0  0.14104999999999995  0.029959999999999994  0.45254  1.0000
  H   H4        1.0  0.3891199999999999  0.030329999999999975  0.57754  1.0000
  H   H5        1.0  0.3589500000000001  0.5474700000000001  0.9700400000000001  1.0000
  H   H6        1.0  0.81158  0.4225  0.45268  1.0000
  H   H7        1.0  0.31157999999999997  0.45268000000000014  0.4225  1.0000
  H   H8        1.0  0.8891199999999998  0.57754  0.030330000000000003  1.0000
  H   H9        1.0  0.8589399999999999  0.97004  0.54746  1.0000
  H   H10       1.0  0.6108699999999998  0.96967  0.42246  1.0000
  H   H11       1.0  0.64105  0.4525300000000001  0.02996  1.0000
  H   H12       1.0  0.18842  0.5775  0.54731  1.0000
  C   C1        1.0  0.53714  0.4600900000000001  0.55646  1.0000
  C   C2        1.0  0.42885  0.4322800000000001  0.51331  1.0000
  C   C3        1.0  0.60543  0.52632  0.54225  1.0000
  C   C4        1.0  0.5873699999999997  0.4241  0.61834  1.0000
  C   C5        1.0  0.98052  0.4435200000000002  0.90368  1.0000
  C   C6        1.0  0.9153899999999999  0.48667000000000005  0.91908  1.0000
  C   C7        1.0  0.06318999999999995  0.45775  0.984  1.0000
  C   C8        1.0  0.96878  0.38167  0.80585  1.0000
  C   C9        1.0  0.07709999999999997  0.09623999999999995  0.53985  1.0000
  C   C10       1.0  0.9966699999999998  0.08098  0.56773  1.0000
  C   C11       1.0  0.07910999999999994  0.01583999999999999  0.47362  1.0000
  C   C12       1.0  0.16330999999999998  0.19403  0.57587  1.0000
  C   C13       1.0  0.51948  0.09632000000000002  0.55648  1.0000
  C   C14       1.0  0.5846100000000001  0.08092000000000002  0.51333  1.0000
  C   C15       1.0  0.43681  0.016000000000000025  0.54225  1.0000
  C   C16       1.0  0.53121  0.19415  0.61833  1.0000
  C   C17       1.0  0.4228899999999999  0.4601500000000001  0.90375  1.0000
  C   C18       1.0  0.50332  0.4322700000000001  0.91901  1.0000
  C   C19       1.0  0.4208899999999998  0.52638  0.98416  1.0000
  C   C20       1.0  0.33668999999999977  0.42413  0.80596  1.0000
  C   C21       1.0  0.96285  0.4435300000000001  0.5399  1.0000
  C   C22       1.0  0.07114000000000004  0.4866800000000001  0.56771  1.0000
  C   C23       1.0  0.8945699999999996  0.45776  0.47368  1.0000
  C   C24       1.0  0.9126199999999997  0.38166  0.5759  1.0000
  C   C25       1.0  0.46284999999999993  0.53991  0.44353  1.0000
  C   C26       1.0  0.57114  0.56772  0.48668  1.0000
  C   C27       1.0  0.3945599999999999  0.47368  0.45775  1.0000
  C   C28       1.0  0.4126199999999999  0.5759  0.38165999999999994  1.0000
  C   C29       1.0  0.019470000000000005  0.55648  0.09632  1.0000
  C   C30       1.0  0.08460999999999996  0.51333  0.08092  1.0000
  C   C31       1.0  0.9368000000000001  0.5422400000000003  0.016  1.0000
  C   C32       1.0  0.031210000000000005  0.61833  0.19415  1.0000
  C   C33       1.0  0.9228900000000001  0.9037500000000003  0.46015  1.0000
  C   C34       1.0  0.0033300000000000903  0.9190200000000002  0.43227  1.0000
  C   C35       1.0  0.9208899999999998  0.98416  0.52638  1.0000
  C   C36       1.0  0.83668  0.80597  0.42413  1.0000
  C   C37       1.0  0.48052000000000017  0.9036800000000005  0.44352  1.0000
  C   C38       1.0  0.41539000000000004  0.9190800000000001  0.48667000000000005  1.0000
  C   C39       1.0  0.5631900000000001  0.9840000000000002  0.45775  1.0000
  C   C40       1.0  0.46878  0.80585  0.38167  1.0000
  C   C41       1.0  0.5770999999999998  0.53984  0.09625  1.0000
  C   C42       1.0  0.49667  0.56773  0.08098  1.0000
  C   C43       1.0  0.5790999999999997  0.47362  0.01584  1.0000
  C   C44       1.0  0.6632999999999998  0.57587  0.19404  1.0000
  C   C45       1.0  0.037140000000000006  0.55647  0.46009000000000005  1.0000
  C   C46       1.0  0.92885  0.51332  0.43229  1.0000
  C   C47       1.0  0.10543  0.5422400000000003  0.52631  1.0000
  C   C48       1.0  0.08737000000000002  0.61834  0.42410000000000003  1.0000
  S   S1        1.0  0.33232000000000006  0.33730000000000004  0.51221  1.0000
  S   S2        1.0  0.81983  0.48778  0.8253  1.0000
  S   S3        1.0  0.9952599999999997  0.17477000000000012  0.6628300000000001  1.0000
  S   S4        1.0  0.68016  0.17468000000000006  0.51221  1.0000
  S   S5        1.0  0.5047299999999998  0.33717  0.82522  1.0000
  S   S6        1.0  0.16768  0.48779  0.6627  1.0000
  S   S7        1.0  0.66768  0.6627  0.48779  1.0000
  S   S8        1.0  0.18016  0.51222  0.17469000000000004  1.0000
  S   S9        1.0  0.004730000000000108  0.8252300000000002  0.33717  1.0000
  S   S10       1.0  0.31983  0.82532  0.48779  1.0000
  S   S11       1.0  0.49527  0.66283  0.17478000000000002  1.0000
  S   S12       1.0  0.83232  0.51221  0.3373  1.0000
  O   O1        1.0  0.56178  0.42141  0.6861  1.0000
  O   O2        1.0  0.65618  0.40215  0.60448  1.0000
  O   O3        1.0  0.87541  0.31411  0.7354  1.0000
  O   O4        1.0  0.05136000000000006  0.39524000000000004  0.7977000000000001  1.0000
  O   O5        1.0  0.14037  0.26451  0.57878  1.0000
  O   O6        1.0  0.25401  0.20203  0.59763  1.0000
  O   O7        1.0  0.6245899999999998  0.2646  0.68589  1.0000
  O   O8        1.0  0.44862999999999986  0.20228999999999994  0.60477  1.0000
  O   O9        1.0  0.35963000000000006  0.42122  0.7354900000000001  1.0000
  O   O10       1.0  0.24598  0.40237  0.79796  1.0000
  O   O11       1.0  0.93823  0.31391  0.57861  1.0000
  O   O12       1.0  0.8437999999999998  0.3955  0.59783  1.0000
  O   O13       1.0  0.43821000000000004  0.5785900000000003  0.3139  1.0000
  O   O14       1.0  0.3438099999999999  0.59785  0.39552  1.0000
  O   O15       1.0  0.12459000000000006  0.6858900000000002  0.26459  1.0000
  O   O16       1.0  0.94863  0.60476  0.2023  1.0000
  O   O17       1.0  0.8596199999999998  0.73549  0.42122  1.0000
  O   O18       1.0  0.7459800000000001  0.7979700000000002  0.40236  1.0000
  O   O19       1.0  0.37539999999999996  0.7354  0.31411  1.0000
  O   O20       1.0  0.5513600000000001  0.7977100000000004  0.39523  1.0000
  O   O21       1.0  0.64036  0.57878  0.26451  1.0000
  O   O22       1.0  0.75401  0.59763  0.20204  1.0000
  O   O23       1.0  0.061770000000000005  0.68609  0.42139  1.0000
  O   O24       1.0  0.15619999999999995  0.6045  0.40217  1.0000
