data_image0
_chemical_formula_structural       Li4H64C16N16
_chemical_formula_sum              "Li4 H64 C16 N16"
_cell_length_a       6.42506
_cell_length_b       12.47021
_cell_length_c       15.297030000000001
_cell_angle_alpha    105.2947
_cell_angle_beta     90.0
_cell_angle_gamma    90.00459

_space_group_name_H-M_alt    "P 1"
_space_group_IT_number       1

loop_
  _space_group_symop_operation_xyz
  'x, y, z'

loop_
  _atom_site_type_symbol
  _atom_site_label
  _atom_site_symmetry_multiplicity
  _atom_site_fract_x
  _atom_site_fract_y
  _atom_site_fract_z
  _atom_site_occupancy
  Li  Li1       1.0  0.9701599999999999  0.49374000000000007  0.24897  1.0000
  Li  Li2       1.0  0.4701  0.006199999999999981  0.75099  1.0000
  Li  Li3       1.0  0.029840000000000002  0.50626  0.75103  1.0000
  Li  Li4       1.0  0.5299  0.9938  0.24901  1.0000
  H   H1        1.0  0.02905  0.29792  0.15058  1.0000
  H   H2        1.0  0.25358  0.3643199999999999  0.15913  1.0000
  H   H3        1.0  0.43381  0.18132  0.34534  1.0000
  H   H4        1.0  0.21679  0.10811  0.33262  1.0000
  H   H5        1.0  0.83811  0.5977800000000001  0.12981  1.0000
  H   H6        1.0  0.74766  0.47059999999999996  0.10161  1.0000
  H   H7        1.0  0.7466  0.53497  0.40085  1.0000
  H   H8        1.0  0.82104  0.40483  0.37395  1.0000
  H   H9        1.0  0.32573  0.34916  0.30177999999999994  1.0000
  H   H10       1.0  0.07286  0.29942  0.31468  1.0000
  H   H11       1.0  0.14428  0.12675  0.19166  1.0000
  H   H12       1.0  0.39595  0.17765999999999998  0.17921  1.0000
  H   H13       1.0  0.17687  0.47048999999999996  0.43061  1.0000
  H   H14       1.0  0.06481  0.60263  0.46934  1.0000
  H   H15       1.0  0.18488000000000002  0.5164  0.0648  1.0000
  H   H16       1.0  0.0465  0.3919299999999999  0.02614  1.0000
  H   H17       1.0  0.52893  0.20206999999999994  0.8494099999999999  1.0000
  H   H18       1.0  0.75332  0.13561999999999988  0.8407999999999998  1.0000
  H   H19       1.0  0.9339299999999999  0.31867  0.65467  1.0000
  H   H20       1.0  0.71691  0.39196  0.66747  1.0000
  H   H21       1.0  0.3381  0.90217  0.87019  1.0000
  H   H22       1.0  0.24765000000000004  0.029370000000000018  0.89838  1.0000
  H   H23       1.0  0.24681000000000003  0.96509  0.59918  1.0000
  H   H24       1.0  0.32107  0.09512000000000004  0.62604  1.0000
  H   H25       1.0  0.82565  0.15081999999999995  0.69824  1.0000
  H   H26       1.0  0.57287  0.20061  0.68531  1.0000
  H   H27       1.0  0.6443699999999999  0.37326  0.8083499999999998  1.0000
  H   H28       1.0  0.89598  0.32231  0.82081  1.0000
  H   H29       1.0  0.67687  0.029510000000000005  0.56939  1.0000
  H   H30       1.0  0.56479  0.89737  0.53066  1.0000
  H   H31       1.0  0.68492  0.98359  0.9352  1.0000
  H   H32       1.0  0.54652  0.10805999999999999  0.97384  1.0000
  H   H33       1.0  0.97095  0.7020699999999999  0.84942  1.0000
  H   H34       1.0  0.74642  0.6356699999999998  0.84087  1.0000
  H   H35       1.0  0.56619  0.81867  0.65467  1.0000
  H   H36       1.0  0.78321  0.89188  0.66739  1.0000
  H   H37       1.0  0.16188999999999998  0.40222  0.87019  1.0000
  H   H38       1.0  0.25234  0.5294  0.89839  1.0000
  H   H39       1.0  0.2534  0.4650199999999999  0.59915  1.0000
  H   H40       1.0  0.17897  0.59517  0.62605  1.0000
  H   H41       1.0  0.67427  0.65084  0.69822  1.0000
  H   H42       1.0  0.92714  0.70058  0.68533  1.0000
  H   H43       1.0  0.85573  0.87325  0.80834  1.0000
  H   H44       1.0  0.60405  0.8223399999999998  0.82079  1.0000
  H   H45       1.0  0.82313  0.5295  0.56939  1.0000
  H   H46       1.0  0.93519  0.39736  0.53066  1.0000
  H   H47       1.0  0.81512  0.48358999999999996  0.9352  1.0000
  H   H48       1.0  0.9535000000000001  0.60806  0.97386  1.0000
  H   H49       1.0  0.47108  0.7979199999999999  0.15059  1.0000
  H   H50       1.0  0.24667999999999998  0.86437  0.15919999999999998  1.0000
  H   H51       1.0  0.06607  0.68133  0.34534  1.0000
  H   H52       1.0  0.28309  0.60803  0.33253  1.0000
  H   H53       1.0  0.6619  0.09783  0.12981  1.0000
  H   H54       1.0  0.75235  0.97062  0.10162  1.0000
  H   H55       1.0  0.7532  0.034910000000000004  0.40083  1.0000
  H   H56       1.0  0.6789299999999999  0.9048699999999998  0.37396  1.0000
  H   H57       1.0  0.17435  0.8491699999999999  0.30177  1.0000
  H   H58       1.0  0.42713  0.79938  0.3147  1.0000
  H   H59       1.0  0.35563999999999996  0.62674  0.19164999999999996  1.0000
  H   H60       1.0  0.10402999999999998  0.67768  0.17919  1.0000
  H   H61       1.0  0.32313  0.97049  0.43062  1.0000
  H   H62       1.0  0.43521999999999994  0.10263  0.46934  1.0000
  H   H63       1.0  0.31508  0.016400000000000005  0.0648  1.0000
  H   H64       1.0  0.45349  0.89194  0.02616  1.0000
  C   C1        1.0  0.19740999999999997  0.29798  0.26554  1.0000
  C   C2        1.0  0.27164  0.17852  0.22825999999999996  1.0000
  C   C3        1.0  0.030159999999999996  0.48262  0.04272999999999999  1.0000
  C   C4        1.0  0.03094  0.51344  0.45566  1.0000
  C   C5        1.0  0.69729  0.2019799999999999  0.7344699999999997  1.0000
  C   C6        1.0  0.77171  0.32145  0.77175  1.0000
  C   C7        1.0  0.53013  0.01737000000000002  0.95724  1.0000
  C   C8        1.0  0.53105  0.98656  0.5443  1.0000
  C   C9        1.0  0.80259  0.70201  0.73446  1.0000
  C   C10       1.0  0.72836  0.82147  0.77174  1.0000
  C   C11       1.0  0.96984  0.51738  0.9572799999999998  1.0000
  C   C12       1.0  0.96906  0.48655  0.54434  1.0000
  C   C13       1.0  0.30271  0.79801  0.26553  1.0000
  C   C14       1.0  0.22829  0.67854  0.22825  1.0000
  C   C15       1.0  0.46987  0.98262  0.04276  1.0000
  C   C16       1.0  0.46895999999999993  0.01342999999999999  0.45569999999999994  1.0000
  N   N1        1.0  0.12665  0.35058  0.19510999999999998  1.0000
  N   N2        1.0  0.34332  0.12635  0.29885  1.0000
  N   N3        1.0  0.88181  0.51588  0.11867  1.0000
  N   N4        1.0  0.87415  0.48493  0.38273  1.0000
  N   N5        1.0  0.6262499999999999  0.14926999999999996  0.80484  1.0000
  N   N6        1.0  0.84352  0.3737  0.70119  1.0000
  N   N7        1.0  0.38195  0.98404  0.88126  1.0000
  N   N8        1.0  0.37401  0.015040000000000026  0.61726  1.0000
  N   N9        1.0  0.87336  0.64941  0.8049  1.0000
  N   N10       1.0  0.65668  0.8736399999999999  0.70115  1.0000
  N   N11       1.0  0.11819  0.48410999999999993  0.88133  1.0000
  N   N12       1.0  0.12586  0.51507  0.61727  1.0000
  N   N13       1.0  0.37376  0.85072  0.19516  1.0000
  N   N14       1.0  0.15648999999999996  0.62629  0.29881  1.0000
  N   N15       1.0  0.61805  0.01596  0.11875  1.0000
  N   N16       1.0  0.62599  0.9849499999999999  0.38274  1.0000
