data_image0
_chemical_formula_structural       Gd4H28C60N8O24
_chemical_formula_sum              "Gd4 H28 C60 N8 O24"
_cell_length_a       13.46428
_cell_length_b       15.01279
_cell_length_c       15.98372
_cell_angle_alpha    117.78605999999999
_cell_angle_beta     93.59708
_cell_angle_gamma    89.93938

_symmetry_space_group_name_H-M    'P 1'
_symmetry_Int_Tables_number       1

loop_
  _symmetry_equiv_pos_as_xyz
  'x,y,z'

loop_
  _atom_site_type_symbol
  _atom_site_label
  _atom_site_symmetry_multiplicity
  _atom_site_fract_x
  _atom_site_fract_y
  _atom_site_fract_z
  _atom_site_occupancy
  Gd  Gd1       1.0  0.51581  0.024780000000000146  0.6257000000000003  1.0000
  Gd  Gd2       1.0  0.98335  0.40005  0.37447  1.0000
  Gd  Gd3       1.0  0.48417999999999994  0.97521  0.37429000000000007  1.0000
  Gd  Gd4       1.0  0.01665  0.59994  0.62553  1.0000
  H   H1        1.0  0.08832999999999999  0.18212  0.06474  1.0000
  H   H2        1.0  0.029259999999999998  0.48687  0.12568  1.0000
  H   H3        1.0  0.07146  0.40099  0.6925900000000001  1.0000
  H   H4        1.0  0.21401  0.18996  0.44438  1.0000
  H   H5        1.0  0.09795999999999998  0.45622  0.97182  1.0000
  H   H6        1.0  0.26746  0.18287  0.71  1.0000
  H   H7        1.0  0.15724  0.15116000000000007  0.9100000000000003  1.0000
  H   H8        1.0  0.40963999999999995  0.11813000000000011  0.9369500000000002  1.0000
  H   H9        1.0  0.4702600000000001  0.35976000000000014  0.8727000000000003  1.0000
  H   H10       1.0  0.4292799999999999  0.70911  0.30692  1.0000
  H   H11       1.0  0.2849  0.7449999999999998  0.55438  1.0000
  H   H12       1.0  0.4044999999999999  0.48409  0.02736  1.0000
  H   H13       1.0  0.23411  0.47329  0.28907  1.0000
  H   H14       1.0  0.34352  0.24321999999999988  0.09231  1.0000
  H   H15       1.0  0.91167  0.81788  0.9352600000000002  1.0000
  H   H16       1.0  0.9707399999999999  0.5131300000000001  0.8743200000000001  1.0000
  H   H17       1.0  0.92854  0.599  0.3074  1.0000
  H   H18       1.0  0.78599  0.81003  0.55562  1.0000
  H   H19       1.0  0.9020399999999998  0.54377  0.028180000000000004  1.0000
  H   H20       1.0  0.73254  0.81712  0.29000000000000004  1.0000
  H   H21       1.0  0.8427499999999998  0.8488299999999999  0.09  1.0000
  H   H22       1.0  0.59036  0.88186  0.06304  1.0000
  H   H23       1.0  0.52974  0.64023  0.1273  1.0000
  H   H24       1.0  0.57072  0.29088000000000014  0.6930800000000003  1.0000
  H   H25       1.0  0.7150999999999998  0.25499  0.44562  1.0000
  H   H26       1.0  0.5954999999999998  0.5159  0.97263  1.0000
  H   H27       1.0  0.7658899999999997  0.5266999999999997  0.71093  1.0000
  H   H28       1.0  0.6564799999999997  0.7567700000000002  0.9076800000000003  1.0000
  C   C1        1.0  0.3242999999999999  0.09863000000000001  0.53202  1.0000
  C   C2        1.0  0.009890000000000001  0.35136  0.19121000000000002  1.0000
  C   C3        1.0  0.05321999999999999  0.3351899999999999  0.10230000000000003  1.0000
  C   C4        1.0  0.09068  0.24076  0.04304  1.0000
  C   C5        1.0  0.05698999999999999  0.41369  0.07753  1.0000
  C   C6        1.0  0.08525999999999997  0.33942  0.50261  1.0000
  C   C7        1.0  0.13719999999999993  0.29929  0.56196  1.0000
  C   C8        1.0  0.12049  0.33831  0.65836  1.0000
  C   C9        1.0  0.20149  0.21943999999999997  0.51904  1.0000
  C   C10       1.0  0.25042  0.17928999999999998  0.57326  1.0000
  C   C11       1.0  0.16504999999999997  0.2938  0.71076  1.0000
  C   C12       1.0  0.12814  0.30063000000000006  0.9312400000000001  1.0000
  C   C13       1.0  0.09456000000000002  0.39691000000000015  0.9925500000000003  1.0000
  C   C14       1.0  0.23142  0.21559999999999996  0.66852  1.0000
  C   C15       1.0  0.12865  0.22376000000000004  0.95812  1.0000
  C   C16       1.0  0.17565  0.5662499999999998  0.46689  1.0000
  C   C17       1.0  0.48801  0.16002  0.80835  1.0000
  C   C18       1.0  0.44542  0.2325099999999999  0.89756  1.0000
  C   C19       1.0  0.40832  0.19819  0.95788  1.0000
  C   C20       1.0  0.44271  0.3355  0.92168  1.0000
  C   C21       1.0  0.41417  0.83673  0.49613  1.0000
  C   C22       1.0  0.36243  0.7375  0.43711  1.0000
  C   C23       1.0  0.38006  0.6803999999999999  0.34094  1.0000
  C   C24       1.0  0.29803  0.70023  0.47986  1.0000
  C   C25       1.0  0.24969  0.60593  0.4257600000000001  1.0000
  C   C26       1.0  0.33616  0.5836  0.28874  1.0000
  C   C27       1.0  0.37331  0.37009  0.06926  1.0000
  C   C28       1.0  0.4067  0.40424  0.007020000000000001  1.0000
  C   C29       1.0  0.26953  0.54741  0.33074  1.0000
  C   C30       1.0  0.37178  0.26674  0.04317  1.0000
  C   C31       1.0  0.6756999999999997  0.90136  0.46798  1.0000
  C   C32       1.0  0.99011  0.64863  0.80878  1.0000
  C   C33       1.0  0.94678  0.6648  0.8977  1.0000
  C   C34       1.0  0.90932  0.75923  0.95696  1.0000
  C   C35       1.0  0.94301  0.5862999999999998  0.92247  1.0000
  C   C36       1.0  0.91474  0.66057  0.49739  1.0000
  C   C37       1.0  0.8627900000000001  0.7007  0.4380300000000001  1.0000
  C   C38       1.0  0.87951  0.66168  0.34164  1.0000
  C   C39       1.0  0.79851  0.78055  0.48096  1.0000
  C   C40       1.0  0.74958  0.8207  0.42673  1.0000
  C   C41       1.0  0.8349499999999997  0.70619  0.28924  1.0000
  C   C42       1.0  0.8718599999999997  0.69936  0.06875  1.0000
  C   C43       1.0  0.90544  0.60309  0.007450000000000001  1.0000
  C   C44       1.0  0.7685799999999999  0.7844000000000001  0.33147  1.0000
  C   C45       1.0  0.87135  0.77623  0.04188  1.0000
  C   C46       1.0  0.82434  0.43374  0.5331  1.0000
  C   C47       1.0  0.51199  0.83997  0.19165  1.0000
  C   C48       1.0  0.5545799999999999  0.7674799999999998  0.10244  1.0000
  C   C49       1.0  0.59168  0.8018  0.042110000000000015  1.0000
  C   C50       1.0  0.5572899999999998  0.66449  0.07832  1.0000
  C   C51       1.0  0.58582  0.16326  0.50387  1.0000
  C   C52       1.0  0.63757  0.2624899999999999  0.56289  1.0000
  C   C53       1.0  0.61993  0.31959000000000004  0.6590500000000001  1.0000
  C   C54       1.0  0.7019699999999999  0.29976  0.52014  1.0000
  C   C55       1.0  0.7503099999999999  0.39406  0.57424  1.0000
  C   C56       1.0  0.66384  0.41639000000000004  0.7112600000000001  1.0000
  C   C57       1.0  0.62669  0.6299000000000001  0.9307300000000002  1.0000
  C   C58       1.0  0.5933  0.5957499999999999  0.99298  1.0000
  C   C59       1.0  0.73046  0.45258  0.66925  1.0000
  C   C60       1.0  0.6282199999999998  0.7332499999999998  0.95682  1.0000
  N   N1        1.0  0.13596  0.32977  0.80487  1.0000
  N   N2        1.0  0.16033999999999995  0.27121  0.83985  1.0000
  N   N3        1.0  0.36544999999999994  0.52565  0.19473000000000004  1.0000
  N   N4        1.0  0.34206  0.4323000000000001  0.16082000000000005  1.0000
  N   N5        1.0  0.86404  0.67022  0.19513000000000003  1.0000
  N   N6        1.0  0.83965  0.72879  0.16015  1.0000
  N   N7        1.0  0.63455  0.47435000000000005  0.8052700000000002  1.0000
  N   N8        1.0  0.65794  0.56769  0.8391800000000001  1.0000
  O   O1        1.0  0.3639199999999999  0.06707000000000002  0.58757  1.0000
  O   O2        1.0  0.34535  0.06643000000000006  0.4457200000000001  1.0000
  O   O3        1.0  0.014770000000000004  0.2821199999999999  0.21734000000000006  1.0000
  O   O4        1.0  0.9700699999999999  0.43557000000000007  0.24391000000000004  1.0000
  O   O5        1.0  0.07474  0.28585  0.41321  1.0000
  O   O6        1.0  0.04975999999999999  0.42895000000000005  0.54276  1.0000
  O   O7        1.0  0.13548  0.4799800000000001  0.41104  1.0000
  O   O8        1.0  0.155  0.61946  0.55341  1.0000
  O   O9        1.0  0.4850799999999999  0.06503000000000003  0.78336  1.0000
  O   O10       1.0  0.52509  0.19156000000000017  0.7542900000000002  1.0000
  O   O11       1.0  0.42439  0.8725000000000003  0.5856400000000003  1.0000
  O   O12       1.0  0.45003  0.8856  0.45546000000000003  1.0000
  O   O13       1.0  0.63608  0.93292  0.41243  1.0000
  O   O14       1.0  0.65465  0.93357  0.55427  1.0000
  O   O15       1.0  0.98522  0.71787  0.7826600000000002  1.0000
  O   O16       1.0  0.02993  0.56442  0.75609  1.0000
  O   O17       1.0  0.9252599999999999  0.71414  0.58679  1.0000
  O   O18       1.0  0.9502399999999995  0.57104  0.45724  1.0000
  O   O19       1.0  0.86452  0.52001  0.58896  1.0000
  O   O20       1.0  0.8449900000000001  0.38053000000000003  0.4465900000000001  1.0000
  O   O21       1.0  0.51492  0.93496  0.21664  1.0000
  O   O22       1.0  0.47491  0.80843  0.2457  1.0000
  O   O23       1.0  0.57561  0.12749000000000002  0.41436000000000006  1.0000
  O   O24       1.0  0.54997  0.11439000000000003  0.54453  1.0000
