data_image0
_chemical_formula_structural       V4H24C72O24
_chemical_formula_sum              "V4 H24 C72 O24"
_cell_length_a       17.98718
_cell_length_b       18.00375
_cell_length_c       18.0269
_cell_angle_alpha    90.0
_cell_angle_beta     90.0
_cell_angle_gamma    90.0

_space_group_name_H-M_alt    "P 1"
_space_group_IT_number       1

loop_
  _space_group_symop_operation_xyz
  'x, y, z'

loop_
  _atom_site_type_symbol
  _atom_site_label
  _atom_site_symmetry_multiplicity
  _atom_site_fract_x
  _atom_site_fract_y
  _atom_site_fract_z
  _atom_site_occupancy
  V   V1        1.0  0.87421  0.62562  0.37423  1.0000
  V   V2        1.0  0.6257900000000002  0.37438  0.87423  1.0000
  V   V3        1.0  0.12579  0.12562  0.12577  1.0000
  V   V4        1.0  0.3742100000000001  0.87438  0.62577  1.0000
  H   H1        1.0  0.47096000000000005  0.6695  0.74066  1.0000
  H   H2        1.0  0.029040000000000003  0.3305  0.24066  1.0000
  H   H3        1.0  0.5290400000000001  0.1695  0.75934  1.0000
  H   H4        1.0  0.9709600000000002  0.8305  0.25934  1.0000
  H   H5        1.0  0.74073  0.4708800000000001  0.66962  1.0000
  H   H6        1.0  0.24073000000000003  0.02912  0.33038  1.0000
  H   H7        1.0  0.75927  0.52912  0.16962  1.0000
  H   H8        1.0  0.25927  0.9708800000000001  0.83038  1.0000
  H   H9        1.0  0.66952  0.74069  0.47102  1.0000
  H   H10       1.0  0.33048  0.24069  0.028980000000000002  1.0000
  H   H11       1.0  0.16952  0.7593  0.52898  1.0000
  H   H12       1.0  0.8304800000000002  0.2593  0.97102  1.0000
  H   H13       1.0  0.9201500000000001  0.22086  0.00992  1.0000
  H   H14       1.0  0.57985  0.77914  0.50992  1.0000
  H   H15       1.0  0.42015  0.27914  0.99008  1.0000
  H   H16       1.0  0.07985  0.72086  0.49008  1.0000
  H   H17       1.0  0.7208  0.49013000000000007  0.07972  1.0000
  H   H18       1.0  0.2792  0.99013  0.42028  1.0000
  H   H19       1.0  0.7792000000000002  0.50987  0.57972  1.0000
  H   H20       1.0  0.22080000000000002  0.00987  0.9202899999999999  1.0000
  H   H21       1.0  0.99012  0.42036  0.27927  1.0000
  H   H22       1.0  0.49012  0.07964  0.72073  1.0000
  H   H23       1.0  0.00988  0.9203600000000001  0.22073  1.0000
  H   H24       1.0  0.50988  0.57963  0.77927  1.0000
  C   C1        1.0  0.46531000000000006  0.75441  0.6592  1.0000
  C   C2        1.0  0.55958  0.65793  0.65826  1.0000
  C   C3        1.0  0.49654  0.69134  0.69076  1.0000
  C   C4        1.0  0.03469  0.24559  0.1592  1.0000
  C   C5        1.0  0.9404200000000001  0.34207  0.15826  1.0000
  C   C6        1.0  0.003460000000000001  0.30866  0.19076  1.0000
  C   C7        1.0  0.53469  0.25441  0.8407999999999999  1.0000
  C   C8        1.0  0.44042  0.15793  0.84174  1.0000
  C   C9        1.0  0.5034600000000001  0.19134  0.80925  1.0000
  C   C10       1.0  0.9653100000000001  0.74559  0.3408  1.0000
  C   C11       1.0  0.05958000000000001  0.84207  0.34174  1.0000
  C   C12       1.0  0.99654  0.80866  0.30925  1.0000
  C   C13       1.0  0.6591400000000001  0.46512000000000003  0.75446  1.0000
  C   C14       1.0  0.6581100000000001  0.55948  0.65821  1.0000
  C   C15       1.0  0.69071  0.4963600000000001  0.69149  1.0000
  C   C16       1.0  0.15914  0.03488  0.24554  1.0000
  C   C17       1.0  0.15811  0.94051  0.34179  1.0000
  C   C18       1.0  0.19072000000000006  0.00364  0.30851  1.0000
  C   C19       1.0  0.84086  0.53488  0.25446  1.0000
  C   C20       1.0  0.84189  0.44051  0.15821  1.0000
  C   C21       1.0  0.8092800000000002  0.50363  0.19149  1.0000
  C   C22       1.0  0.3408600000000001  0.96512  0.74555  1.0000
  C   C23       1.0  0.34189000000000014  0.059480000000000005  0.84179  1.0000
  C   C24       1.0  0.30928  0.9963600000000001  0.80851  1.0000
  C   C25       1.0  0.75426  0.65903  0.46502  1.0000
  C   C26       1.0  0.6581  0.6581300000000001  0.55965  1.0000
  C   C27       1.0  0.6915100000000001  0.6907  0.49636  1.0000
  C   C28       1.0  0.24574000000000001  0.15903  0.03498  1.0000
  C   C29       1.0  0.3419  0.15813  0.9403499999999999  1.0000
  C   C30       1.0  0.30849  0.1907  0.0036399999999999996  1.0000
  C   C31       1.0  0.25426  0.84097  0.53498  1.0000
  C   C32       1.0  0.1581  0.84186  0.44035  1.0000
  C   C33       1.0  0.19151  0.8093  0.50364  1.0000
  C   C34       1.0  0.74574  0.34097000000000005  0.96502  1.0000
  C   C35       1.0  0.8419000000000002  0.34187  0.059649999999999995  1.0000
  C   C36       1.0  0.80849  0.3093  0.9963599999999999  1.0000
  C   C37       1.0  0.00512  0.21567000000000003  0.0916  1.0000
  C   C38       1.0  0.9081  0.3094700000000001  0.09226  1.0000
  C   C39       1.0  0.9419400000000001  0.24632  0.05991  1.0000
  C   C40       1.0  0.49488  0.78433  0.5916  1.0000
  C   C41       1.0  0.5919  0.69053  0.59226  1.0000
  C   C42       1.0  0.55805  0.7536800000000001  0.55991  1.0000
  C   C43       1.0  0.5051200000000001  0.28433  0.9084  1.0000
  C   C44       1.0  0.4081000000000001  0.19053  0.90774  1.0000
  C   C45       1.0  0.4419500000000001  0.25368  0.9400899999999999  1.0000
  C   C46       1.0  0.99488  0.71567  0.4084  1.0000
  C   C47       1.0  0.0919  0.80947  0.40774  1.0000
  C   C48       1.0  0.05805000000000001  0.74632  0.44009  1.0000
  C   C49       1.0  0.71579  0.40847  0.9946199999999998  1.0000
  C   C50       1.0  0.80935  0.4078  0.09182  1.0000
  C   C51       1.0  0.7464300000000003  0.44011  0.05803  1.0000
  C   C52       1.0  0.28421000000000013  0.90847  0.50538  1.0000
  C   C53       1.0  0.19065  0.9078  0.40818  1.0000
  C   C54       1.0  0.25357  0.9401100000000001  0.44197  1.0000
  C   C55       1.0  0.7842100000000001  0.59152  0.49462  1.0000
  C   C56       1.0  0.6906500000000002  0.5922  0.59182  1.0000
  C   C57       1.0  0.75357  0.55988  0.55803  1.0000
  C   C58       1.0  0.21579  0.09152  0.00538  1.0000
  C   C59       1.0  0.30935  0.0922  0.90818  1.0000
  C   C60       1.0  0.24643000000000004  0.05989  0.94197  1.0000
  C   C61       1.0  0.9080800000000001  0.50519  0.2844  1.0000
  C   C62       1.0  0.9076200000000001  0.4084  0.19061999999999998  1.0000
  C   C63       1.0  0.93999  0.44208  0.25378  1.0000
  C   C64       1.0  0.40808  0.9948000000000001  0.7156  1.0000
  C   C65       1.0  0.4076200000000001  0.0916  0.80938  1.0000
  C   C66       1.0  0.4399900000000001  0.05792  0.74622  1.0000
  C   C67       1.0  0.09192  0.0052  0.2156  1.0000
  C   C68       1.0  0.09238000000000002  0.9084  0.30938  1.0000
  C   C69       1.0  0.06001  0.94207  0.24622  1.0000
  C   C70       1.0  0.5919100000000003  0.4948000000000001  0.7844  1.0000
  C   C71       1.0  0.59237  0.5916  0.69062  1.0000
  C   C72       1.0  0.56001  0.55792  0.75378  1.0000
  O   O1        1.0  0.4084500000000001  0.79271  0.68557  1.0000
  O   O2        1.0  0.09155000000000002  0.20729  0.18557  1.0000
  O   O3        1.0  0.59155  0.29271  0.81443  1.0000
  O   O4        1.0  0.9084500000000001  0.70729  0.31443  1.0000
  O   O5        1.0  0.68536  0.40798  0.7928  1.0000
  O   O6        1.0  0.18536  0.09202  0.2072  1.0000
  O   O7        1.0  0.8146400000000001  0.59202  0.2928  1.0000
  O   O8        1.0  0.31464  0.9079799999999999  0.7072  1.0000
  O   O9        1.0  0.79279  0.68522  0.40796  1.0000
  O   O10       1.0  0.20721  0.18522  0.09204  1.0000
  O   O11       1.0  0.29279  0.8147800000000002  0.59204  1.0000
  O   O12       1.0  0.70721  0.31478  0.9079599999999999  1.0000
  O   O13       1.0  0.04467000000000001  0.15946  0.06536  1.0000
  O   O14       1.0  0.45533000000000007  0.84053  0.56536  1.0000
  O   O15       1.0  0.54467  0.34053  0.9346399999999999  1.0000
  O   O16       1.0  0.9553300000000001  0.65946  0.43464  1.0000
  O   O17       1.0  0.6595900000000002  0.43504  0.9554299999999999  1.0000
  O   O18       1.0  0.34041000000000005  0.93504  0.54457  1.0000
  O   O19       1.0  0.8404  0.56496  0.45543  1.0000
  O   O20       1.0  0.15959000000000007  0.06496  0.04457  1.0000
  O   O21       1.0  0.93421  0.54474  0.34077  1.0000
  O   O22       1.0  0.43421  0.9552500000000002  0.65923  1.0000
  O   O23       1.0  0.06579000000000003  0.04474  0.15923  1.0000
  O   O24       1.0  0.56579  0.45526000000000005  0.84078  1.0000
