data_image0
_chemical_formula_structural       Mn3H24W2C46N28
_chemical_formula_sum              "Mn3 H24 W2 C46 N28"
_cell_length_a       10.15187
_cell_length_b       16.24327
_cell_length_c       16.43563
_cell_angle_alpha    104.62221
_cell_angle_beta     111.41756
_cell_angle_gamma    110.36110000000001

_symmetry_space_group_name_H-M    'P 1'
_symmetry_Int_Tables_number       1

loop_
  _symmetry_equiv_pos_as_xyz
  'x,y,z'

loop_
  _atom_site_type_symbol
  _atom_site_label
  _atom_site_symmetry_multiplicity
  _atom_site_fract_x
  _atom_site_fract_y
  _atom_site_fract_z
  _atom_site_occupancy
  Mn  Mn1       1.0  0.4075  0.12777  0.11953999999999997  1.0000
  Mn  Mn2       1.0  0.49379999999999996  0.49586999999999987  0.49493  1.0000
  Mn  Mn3       1.0  0.6023099999999998  0.8784199999999998  0.8912499999999999  1.0000
  H   H1        1.0  0.69862  0.9814699999999997  0.3302099999999999  1.0000
  H   H2        1.0  0.70527  0.45856999999999976  0.11310999999999997  1.0000
  H   H3        1.0  0.8199900000000001  0.8134699999999998  0.9990999999999999  1.0000
  H   H4        1.0  0.26442  0.6579099999999998  0.28088  1.0000
  H   H5        1.0  0.25822999999999985  0.5323799999999997  0.3421099999999999  1.0000
  H   H6        1.0  0.29551999999999984  0.54053  0.8989099999999998  1.0000
  H   H7        1.0  0.21362000000000003  0.1701  0.51395  1.0000
  H   H8        1.0  0.8195300000000001  0.67903  0.04567  1.0000
  H   H9        1.0  0.68882  0.10258999999999997  0.26433  1.0000
  H   H10       1.0  0.31591999999999976  0.6773699999999998  0.8533799999999998  1.0000
  H   H11       1.0  0.7308199999999999  0.3432099999999999  0.71502  1.0000
  H   H12       1.0  0.23203999999999994  0.3022799999999999  0.46144  1.0000
  H   H13       1.0  0.31717999999999974  0.9015199999999998  0.7370499999999998  1.0000
  H   H14       1.0  0.17999999999999974  0.3178299999999999  0.9612899999999998  1.0000
  H   H15       1.0  0.73188  0.46950999999999987  0.65533  1.0000
  H   H16       1.0  0.6844300000000001  0.3225299999999999  0.15865  1.0000
  H   H17       1.0  0.78481  0.8215199999999999  0.47277999999999987  1.0000
  H   H18       1.0  0.7604199999999998  0.6913699999999998  0.5292499999999999  1.0000
  H   H19       1.0  0.82838  0.15845999999999993  0.80154  1.0000
  H   H20       1.0  0.18507999999999986  0.9679499999999998  0.1311  1.0000
  H   H21       1.0  0.17479999999999993  0.8406299999999998  0.19185  1.0000
  H   H22       1.0  0.8193499999999999  0.032759999999999914  0.8645899999999997  1.0000
  H   H23       1.0  0.17877  0.18436  0.00897  1.0000
  H   H24       1.0  0.30626999999999993  0.020760000000000004  0.66831  1.0000
  W   W1        1.0  0.9950699999999999  0.21157999999999988  0.19900999999999994  1.0000
  W   W2        1.0  0.006479999999999805  0.7905499999999996  0.8014199999999998  1.0000
  C   C1        1.0  0.4354099999999999  0.9015999999999997  0.26615  1.0000
  C   C2        1.0  0.00029999999999992094  0.12181999999999994  0.27487999999999996  1.0000
  C   C3        1.0  0.7063000000000001  0.6778999999999998  0.0057799999999999995  1.0000
  C   C4        1.0  0.7065499999999998  0.7522699999999999  0.9786299999999998  1.0000
  C   C5        1.0  0.52609  0.7500199999999999  0.3730199999999999  1.0000
  C   C6        1.0  0.016789999999999927  0.76579  0.92407  1.0000
  C   C7        1.0  0.66689  0.7585399999999998  0.44268  1.0000
  C   C8        1.0  0.29236  0.24576999999999993  0.030169999999999992  1.0000
  C   C9        1.0  0.5752499999999999  0.32335999999999976  0.11455  1.0000
  C   C10       1.0  0.23284999999999992  0.32567  0.3000499999999999  1.0000
  C   C11       1.0  0.56831  0.09865999999999994  0.72942  1.0000
  C   C12       1.0  0.7135  0.10144999999999998  0.78477  1.0000
  C   C13       1.0  0.035179999999999725  0.7434299999999998  0.6780399999999999  1.0000
  C   C14       1.0  0.70844  0.031970000000000026  0.82044  1.0000
  C   C15       1.0  0.2901499999999999  0.8984799999999997  0.21010999999999994  1.0000
  C   C16       1.0  0.32975999999999983  0.2356799999999999  0.5473099999999999  1.0000
  C   C17       1.0  0.9892999999999998  0.8817799999999997  0.7294899999999997  1.0000
  C   C18       1.0  0.9842999999999998  0.3428799999999999  0.20505999999999994  1.0000
  C   C19       1.0  0.5866599999999998  0.3993899999999999  0.08869  1.0000
  C   C20       1.0  0.5827900000000001  0.9763099999999998  0.28704  1.0000
  C   C21       1.0  0.8629800000000001  0.06584  0.08788  1.0000
  C   C22       1.0  0.37594  0.66757  0.33598  1.0000
  C   C23       1.0  0.17018999999999995  0.17493999999999996  0.18329999999999996  1.0000
  C   C24       1.0  0.37269  0.59782  0.37075999999999987  1.0000
  C   C25       1.0  0.4217  0.025410000000000012  0.71115  1.0000
  C   C26       1.0  0.5777400000000001  0.04377999999999996  0.24997999999999995  1.0000
  C   C27       1.0  0.6528499999999998  0.6861699999999997  0.47482999999999986  1.0000
  C   C28       1.0  0.016069999999999574  0.6578199999999995  0.7865999999999997  1.0000
  C   C29       1.0  0.6192699999999998  0.4022599999999998  0.6250699999999998  1.0000
  C   C30       1.0  0.5574599999999995  0.6008899999999996  0.9785199999999997  1.0000
  C   C31       1.0  0.4134899999999997  0.5999299999999995  0.9227599999999998  1.0000
  C   C32       1.0  0.61893  0.33208  0.6588  1.0000
  C   C33       1.0  0.34035  0.30892999999999987  0.51672  1.0000
  C   C34       1.0  0.25861999999999985  0.8404299999999998  0.86521  1.0000
  C   C35       1.0  0.44270000000000004  0.39738  0.030979999999999994  1.0000
  C   C36       1.0  0.9753700000000002  0.22669999999999998  0.07035  1.0000
  C   C37       1.0  0.42493999999999965  0.6762299999999998  0.89713  1.0000
  C   C38       1.0  0.29352000000000006  0.31995  0.0026999999999999993  1.0000
  C   C39       1.0  0.14051999999999984  0.9348299999999998  0.91881  1.0000
  C   C40       1.0  0.8316499999999999  0.8248799999999995  0.8194999999999998  1.0000
  C   C41       1.0  0.74416  0.16348  0.14221  1.0000
  C   C42       1.0  0.2954799999999999  0.9686199999999998  0.1757  1.0000
  C   C43       1.0  0.42787999999999987  0.9592399999999998  0.7497799999999999  1.0000
  C   C44       1.0  0.76956  0.6742699999999998  0.6935599999999998  1.0000
  C   C45       1.0  0.4712299999999998  0.24657999999999994  0.6188899999999999  1.0000
  C   C46       1.0  0.9769199999999999  0.2716499999999998  0.3245899999999999  1.0000
  N   N1        1.0  0.60682  0.14421999999999993  0.11025  1.0000
  N   N2        1.0  0.9639299999999997  0.2337499999999999  0.99889  1.0000
  N   N3        1.0  0.26538  0.15297999999999998  0.17505999999999994  1.0000
  N   N4        1.0  0.025459999999999754  0.7554899999999997  0.9938499999999999  1.0000
  N   N5        1.0  0.5851  0.17303999999999997  0.69709  1.0000
  N   N6        1.0  0.5687899999999998  0.9619799999999997  0.8041199999999998  1.0000
  N   N7        1.0  0.7891999999999999  0.9870499999999998  0.02432  1.0000
  N   N8        1.0  0.41686999999999985  0.8264399999999997  0.2974599999999999  1.0000
  N   N9        1.0  0.36389999999999983  0.3927999999999998  0.3571699999999999  1.0000
  N   N10       1.0  0.56617  0.5274  0.00845  1.0000
  N   N11       1.0  0.96612  0.30378  0.3929999999999999  1.0000
  N   N12       1.0  0.43043  0.24727999999999994  0.08539  1.0000
  N   N13       1.0  0.9802399999999999  0.9324599999999997  0.6899299999999998  1.0000
  N   N14       1.0  0.6415  0.60817  0.6322399999999999  1.0000
  N   N15       1.0  0.5484099999999997  0.8264599999999998  0.34327  1.0000
  N   N16       1.0  0.21823999999999988  0.012019999999999875  0.9852399999999998  1.0000
  N   N17       1.0  0.43408999999999986  0.4704299999999999  0.0003699999999999999  1.0000
  N   N18       1.0  0.97949  0.4153299999999998  0.21094999999999994  1.0000
  N   N19       1.0  0.45167000000000007  0.16975  0.6479  1.0000
  N   N20       1.0  0.43637999999999993  0.03998999999999997  0.19454999999999995  1.0000
  N   N21       1.0  0.0004300000000000022  0.07236  0.31635  1.0000
  N   N22       1.0  0.0492499999999999  0.7180499999999997  0.60953  1.0000
  N   N23       1.0  0.39840999999999993  0.8687699999999998  0.89903  1.0000
  N   N24       1.0  0.56902  0.75174  0.9245299999999997  1.0000
  N   N25       1.0  0.5086099999999999  0.6070199999999999  0.44001999999999997  1.0000
  N   N26       1.0  0.017990000000000048  0.58413  0.77694  1.0000
  N   N27       1.0  0.7345699999999996  0.8424699999999996  0.8294899999999997  1.0000
  N   N28       1.0  0.4823700000000001  0.39106  0.55436  1.0000
