data_image0
_chemical_formula_structural       Zn8H24C64O32
_chemical_formula_sum              "Zn8 H24 C64 O32"
_cell_length_a       13.57393
_cell_length_b       13.98387
_cell_length_c       18.73028
_cell_angle_alpha    97.17592999999998
_cell_angle_beta     90.14423
_cell_angle_gamma    89.82334

_symmetry_space_group_name_H-M    'P 1'
_symmetry_Int_Tables_number       1

loop_
  _symmetry_equiv_pos_as_xyz
  'x,y,z'

loop_
  _atom_site_type_symbol
  _atom_site_label
  _atom_site_symmetry_multiplicity
  _atom_site_fract_x
  _atom_site_fract_y
  _atom_site_fract_z
  _atom_site_occupancy
  Zn  Zn1       1.0  0.4454900000000001  0.00932  0.28756  1.0000
  Zn  Zn2       1.0  0.33198  0.9149900000000002  0.17248000000000005  1.0000
  Zn  Zn3       1.0  0.94691  0.49201000000000006  0.21440000000000006  1.0000
  Zn  Zn4       1.0  0.83178  0.58528  0.32908  1.0000
  Zn  Zn5       1.0  0.55451  0.9906700000000002  0.7124400000000001  1.0000
  Zn  Zn6       1.0  0.6680100000000001  0.08501000000000003  0.8275200000000001  1.0000
  Zn  Zn7       1.0  0.05308  0.50799  0.7856  1.0000
  Zn  Zn8       1.0  0.16822  0.41471  0.67092  1.0000
  H   H1        1.0  0.12373  0.7566700000000001  0.27335000000000004  1.0000
  H   H2        1.0  0.05076  0.7035300000000002  0.48743  1.0000
  H   H3        1.0  0.30707  0.8733300000000003  0.4503  1.0000
  H   H4        1.0  0.1318  0.65542  0.5668500000000002  1.0000
  H   H5        1.0  0.29368  0.76843  0.75613  1.0000
  H   H6        1.0  0.3167  0.9050500000000001  0.56417  1.0000
  H   H7        1.0  0.62248  0.7435500000000003  0.22747  1.0000
  H   H8        1.0  0.55041  0.7973  0.012910000000000001  1.0000
  H   H9        1.0  0.80689  0.6267  0.0517  1.0000
  H   H10       1.0  0.6309600000000001  0.8450800000000002  0.9334800000000001  1.0000
  H   H11       1.0  0.7934200000000001  0.7315  0.74498  1.0000
  H   H12       1.0  0.8168700000000002  0.5949800000000002  0.93714  1.0000
  H   H13       1.0  0.87626  0.24333000000000005  0.72665  1.0000
  H   H14       1.0  0.9492300000000001  0.2964700000000001  0.51257  1.0000
  H   H15       1.0  0.69292  0.12667  0.5497  1.0000
  H   H16       1.0  0.8682  0.34458000000000005  0.43315000000000003  1.0000
  H   H17       1.0  0.7063200000000001  0.23157000000000005  0.24387  1.0000
  H   H18       1.0  0.6833  0.09495000000000002  0.43583  1.0000
  H   H19       1.0  0.37752  0.25645  0.77253  1.0000
  H   H20       1.0  0.44959000000000005  0.20270000000000002  0.9870800000000001  1.0000
  H   H21       1.0  0.19311  0.37330000000000013  0.9483000000000001  1.0000
  H   H22       1.0  0.36904  0.15492  0.06652  1.0000
  H   H23       1.0  0.20658  0.2685  0.25502  1.0000
  H   H24       1.0  0.18313  0.4050200000000001  0.06286  1.0000
  C   C1        1.0  0.21883  0.82364  0.35822  1.0000
  C   C2        1.0  0.1399  0.7660800000000001  0.33062  1.0000
  C   C3        1.0  0.0804  0.72326  0.37836  1.0000
  C   C4        1.0  0.10114  0.7354399999999999  0.45213  1.0000
  C   C5        1.0  0.18517  0.78581  0.47973000000000005  1.0000
  C   C6        1.0  0.24231  0.8317700000000002  0.43173000000000006  1.0000
  C   C7        1.0  0.27849  0.87574  0.30885  1.0000
  C   C8        1.0  0.9929500000000002  0.6661100000000002  0.35194  1.0000
  C   C9        1.0  0.21355000000000002  0.7853  0.55622  1.0000
  C   C10       1.0  0.17810000000000006  0.71204  0.59376  1.0000
  C   C11       1.0  0.20465  0.7057  0.66538  1.0000
  C   C12       1.0  0.26998  0.77285  0.70111  1.0000
  C   C13       1.0  0.31156  0.84261  0.6624500000000001  1.0000
  C   C14       1.0  0.28225  0.84968  0.59148  1.0000
  C   C15       1.0  0.17071  0.6171  0.6950800000000001  1.0000
  C   C16       1.0  0.39601  0.9025499999999999  0.69357  1.0000
  C   C17       1.0  0.7174200000000002  0.67594  0.14301000000000003  1.0000
  C   C18       1.0  0.63876  0.7343000000000002  0.17026000000000002  1.0000
  C   C19       1.0  0.57992  0.77812  0.12233000000000001  1.0000
  C   C20       1.0  0.6009200000000002  0.76568  0.048590000000000015  1.0000
  C   C21       1.0  0.6851  0.71494  0.021370000000000007  1.0000
  C   C22       1.0  0.74187  0.66845  0.06970000000000001  1.0000
  C   C23       1.0  0.77641  0.6226800000000002  0.1925  1.0000
  C   C24       1.0  0.4918800000000001  0.83513  0.14817  1.0000
  C   C25       1.0  0.71349  0.71523  0.9448200000000001  1.0000
  C   C26       1.0  0.67768  0.78839  0.9069300000000001  1.0000
  C   C27       1.0  0.70421  0.79419  0.83528  1.0000
  C   C28       1.0  0.76978  0.7269400000000001  0.7999200000000002  1.0000
  C   C29       1.0  0.81167  0.65728  0.8388  1.0000
  C   C30       1.0  0.7823000000000001  0.65048  0.90974  1.0000
  C   C31       1.0  0.67078  0.88248  0.80457  1.0000
  C   C32       1.0  0.89647  0.5973700000000002  0.80801  1.0000
  C   C33       1.0  0.78116  0.17636000000000004  0.64178  1.0000
  C   C34       1.0  0.8601  0.23392000000000004  0.66938  1.0000
  C   C35       1.0  0.91959  0.27674  0.62164  1.0000
  C   C36       1.0  0.8988600000000001  0.26456  0.54786  1.0000
  C   C37       1.0  0.81483  0.21419  0.52027  1.0000
  C   C38       1.0  0.75769  0.16823000000000002  0.56827  1.0000
  C   C39       1.0  0.7215100000000001  0.12426  0.69114  1.0000
  C   C40       1.0  0.00705  0.33389  0.64805  1.0000
  C   C41       1.0  0.7864500000000001  0.2147  0.44378  1.0000
  C   C42       1.0  0.8219000000000001  0.28796  0.40623000000000004  1.0000
  C   C43       1.0  0.7953400000000002  0.2943  0.33462  1.0000
  C   C44       1.0  0.73002  0.22715  0.29889  1.0000
  C   C45       1.0  0.68843  0.15739  0.33754  1.0000
  C   C46       1.0  0.7177500000000002  0.15032  0.40852  1.0000
  C   C47       1.0  0.82929  0.38290000000000013  0.30491000000000007  1.0000
  C   C48       1.0  0.60399  0.09745000000000002  0.30643  1.0000
  C   C49       1.0  0.28258  0.32406  0.8569900000000001  1.0000
  C   C50       1.0  0.36124000000000006  0.26569000000000004  0.8297400000000001  1.0000
  C   C51       1.0  0.42008  0.2218800000000001  0.87767  1.0000
  C   C52       1.0  0.39907000000000004  0.23432  0.9514100000000001  1.0000
  C   C53       1.0  0.3149  0.28506  0.97863  1.0000
  C   C54       1.0  0.25813  0.33155000000000007  0.9303000000000001  1.0000
  C   C55       1.0  0.22359  0.3773200000000001  0.8075  1.0000
  C   C56       1.0  0.50812  0.16487000000000002  0.8518300000000002  1.0000
  C   C57       1.0  0.28651  0.2847700000000001  0.05518000000000001  1.0000
  C   C58       1.0  0.32232  0.21161000000000005  0.09307  1.0000
  C   C59       1.0  0.29579  0.20581  0.16472000000000003  1.0000
  C   C60       1.0  0.23022  0.27306  0.20008  1.0000
  C   C61       1.0  0.18832  0.34272000000000014  0.1612  1.0000
  C   C62       1.0  0.2177  0.34952  0.09026  1.0000
  C   C63       1.0  0.32922  0.11752000000000005  0.19543  1.0000
  C   C64       1.0  0.10352  0.4026300000000001  0.19199  1.0000
  O   O1        1.0  0.3509600000000001  0.92606  0.3347200000000001  1.0000
  O   O2        1.0  0.25036  0.86604  0.24232000000000004  1.0000
  O   O3        1.0  0.9900900000000002  0.6231  0.28746000000000005  1.0000
  O   O4        1.0  0.91992  0.6633700000000002  0.39566  1.0000
  O   O5        1.0  0.16571  0.54272  0.64645  1.0000
  O   O6        1.0  0.14895000000000003  0.6151700000000002  0.76062  1.0000
  O   O7        1.0  0.42532  0.9004600000000003  0.75707  1.0000
  O   O8        1.0  0.44208  0.9529500000000002  0.6498800000000002  1.0000
  O   O9        1.0  0.85082  0.57492  0.16721000000000003  1.0000
  O   O10       1.0  0.7462300000000002  0.62914  0.25849  1.0000
  O   O11       1.0  0.4863600000000001  0.8762100000000003  0.21333  1.0000
  O   O12       1.0  0.42007  0.83918  0.10353  1.0000
  O   O13       1.0  0.66596  0.9573600000000001  0.85269  1.0000
  O   O14       1.0  0.64975  0.88329  0.7386600000000002  1.0000
  O   O15       1.0  0.92506  0.59912  0.7441700000000001  1.0000
  O   O16       1.0  0.9438600000000003  0.54741  0.8514600000000002  1.0000
  O   O17       1.0  0.6490400000000002  0.07394000000000006  0.6652800000000002  1.0000
  O   O18       1.0  0.74964  0.13396  0.75768  1.0000
  O   O19       1.0  0.00991  0.3769000000000001  0.71254  1.0000
  O   O20       1.0  0.08007000000000004  0.3366300000000001  0.6043400000000002  1.0000
  O   O21       1.0  0.8342800000000001  0.45728  0.35354  1.0000
  O   O22       1.0  0.8510400000000001  0.38483  0.23938  1.0000
  O   O23       1.0  0.57468  0.09953  0.24293  1.0000
  O   O24       1.0  0.55792  0.04705000000000003  0.3501100000000001  1.0000
  O   O25       1.0  0.14918  0.42507  0.83279  1.0000
  O   O26       1.0  0.25377  0.37086  0.7415100000000002  1.0000
  O   O27       1.0  0.51364  0.12379  0.78667  1.0000
  O   O28       1.0  0.57993  0.16082  0.8964600000000001  1.0000
  O   O29       1.0  0.33404  0.04264  0.14731  1.0000
  O   O30       1.0  0.35025  0.11671  0.26134  1.0000
  O   O31       1.0  0.07493  0.40087  0.25583  1.0000
  O   O32       1.0  0.05613  0.45259  0.14854  1.0000
