data_image0
_chemical_formula_structural       Pr4H18C48N6O36
_chemical_formula_sum              "Pr4 H18 C48 N6 O36"
_cell_length_a       13.80556
_cell_length_b       13.85038
_cell_length_c       16.58629
_cell_angle_alpha    66.59466
_cell_angle_beta     66.94184
_cell_angle_gamma    71.98184

_symmetry_space_group_name_H-M    'P 1'
_symmetry_Int_Tables_number       1

loop_
  _symmetry_equiv_pos_as_xyz
  'x,y,z'

loop_
  _atom_site_type_symbol
  _atom_site_label
  _atom_site_symmetry_multiplicity
  _atom_site_fract_x
  _atom_site_fract_y
  _atom_site_fract_z
  _atom_site_occupancy
  Pr  Pr1       1.0  0.44493  0.15796999999999994  0.4977900000000001  1.0000
  Pr  Pr2       1.0  0.8459900000000001  0.5568  0.9990500000000001  1.0000
  Pr  Pr3       1.0  0.5583499999999999  0.84376  0.5003500000000001  1.0000
  Pr  Pr4       1.0  0.15531999999999987  0.44346000000000013  0.9999800000000001  1.0000
  H   H1        1.0  0.5407299999999999  0.10085999999999996  0.7106100000000002  1.0000
  H   H2        1.0  0.6557599999999999  0.9112100000000001  0.94501  1.0000
  H   H3        1.0  0.6636499999999997  0.7625700000000001  0.7582700000000002  1.0000
  H   H4        1.0  0.1287099999999999  0.08534999999999991  0.6460600000000002  1.0000
  H   H5        1.0  0.9007499999999998  0.45837999999999995  0.7884500000000002  1.0000
  H   H6        1.0  0.08766999999999994  0.3444200000000001  0.55521  1.0000
  H   H7        1.0  0.23943999999999993  0.3356399999999999  0.7414600000000002  1.0000
  H   H8        1.0  0.9162399999999996  0.87256  0.8526200000000003  1.0000
  H   H9        1.0  0.45914999999999995  0.89938  0.28973  1.0000
  H   H10       1.0  0.34459999999999996  0.08798  0.05474  1.0000
  H   H11       1.0  0.3356499999999999  0.23783  0.24083000000000004  1.0000
  H   H12       1.0  0.8721400000000002  0.91573  0.35288  1.0000
  H   H13       1.0  0.10032000000000003  0.54143  0.21159  1.0000
  H   H14       1.0  0.91229  0.6551300000000001  0.44443  1.0000
  H   H15       1.0  0.7614799999999999  0.6638000000000001  0.25753  1.0000
  H   H16       1.0  0.08543999999999999  0.12791000000000005  0.14664  1.0000
  H   H17       1.0  0.2529399999999999  0.7482499999999999  0.7496800000000001  1.0000
  H   H18       1.0  0.7486999999999999  0.25283999999999995  0.24959000000000006  1.0000
  C   C1        1.0  0.5741199999999999  0.93686  0.6454  1.0000
  C   C2        1.0  0.5993200000000001  0.9322499999999999  0.72621  1.0000
  C   C3        1.0  0.576  0.024499999999999984  0.7511400000000001  1.0000
  C   C4        1.0  0.5979500000000002  0.01578999999999999  0.82924  1.0000
  C   C5        1.0  0.6404600000000001  0.9180599999999999  0.8833400000000002  1.0000
  C   C6        1.0  0.6643900000000001  0.8267100000000002  0.8571000000000002  1.0000
  C   C7        1.0  0.6444900000000002  0.8336999999999999  0.7784600000000003  1.0000
  C   C8        1.0  0.70803  0.7216900000000002  0.91585  1.0000
  C   C9        1.0  0.31115999999999994  0.9334300000000002  0.62146  1.0000
  C   C10       1.0  0.20241000000000006  0.9177  0.68894  1.0000
  C   C11       1.0  0.11689999999999993  0.004860000000000009  0.69066  1.0000
  C   C12       1.0  0.06643999999999982  0.42585  0.8531000000000002  1.0000
  C   C13       1.0  0.06975  0.39998000000000006  0.77326  1.0000
  C   C14       1.0  0.97697  0.42322  0.74831  1.0000
  C   C15       1.0  0.9844500000000002  0.40174000000000004  0.67043  1.0000
  C   C16       1.0  0.0817799999999999  0.35935000000000006  0.6166600000000002  1.0000
  C   C17       1.0  0.17361999999999989  0.33522000000000013  0.6430100000000001  1.0000
  C   C18       1.0  0.16789999999999988  0.3547200000000001  0.7213200000000002  1.0000
  C   C19       1.0  0.27785999999999994  0.2914399999999999  0.5844600000000001  1.0000
  C   C20       1.0  0.06664  0.6908899999999999  0.8768900000000002  1.0000
  C   C21       1.0  0.0834299999999999  0.79931  0.8098700000000002  1.0000
  C   C22       1.0  0.99661  0.8847699999999998  0.8081400000000002  1.0000
  C   C23       1.0  0.42630999999999997  0.06635999999999997  0.3536200000000001  1.0000
  C   C24       1.0  0.40043999999999996  0.06853999999999999  0.27352000000000004  1.0000
  C   C25       1.0  0.42372999999999994  0.9757800000000002  0.24915  1.0000
  C   C26       1.0  0.4018999999999999  0.9840500000000002  0.17097  1.0000
  C   C27       1.0  0.35951  0.08156000000000002  0.11643  1.0000
  C   C28       1.0  0.33518  0.17331000000000002  0.14221  1.0000
  C   C29       1.0  0.35486000000000006  0.16657999999999998  0.22089000000000006  1.0000
  C   C30       1.0  0.2916  0.27837000000000006  0.08353  1.0000
  C   C31       1.0  0.69095  0.06656  0.37721  1.0000
  C   C32       1.0  0.79926  0.08331  0.31023  1.0000
  C   C33       1.0  0.88451  0.99614  0.30848  1.0000
  C   C34       1.0  0.9357499999999999  0.57461  0.14593  1.0000
  C   C35       1.0  0.9313299999999999  0.5997600000000002  0.22662  1.0000
  C   C36       1.0  0.02392999999999994  0.5764200000000002  0.25177  1.0000
  C   C37       1.0  0.015909999999999893  0.5978400000000001  0.32967000000000013  1.0000
  C   C38       1.0  0.9182500000000001  0.6402000000000002  0.38308  1.0000
  C   C39       1.0  0.82657  0.6644100000000002  0.35648000000000013  1.0000
  C   C40       1.0  0.8327199999999999  0.6447700000000001  0.27817  1.0000
  C   C41       1.0  0.7221700000000002  0.70863  0.41443  1.0000
  C   C42       1.0  0.93294  0.31075  0.12193000000000002  1.0000
  C   C43       1.0  0.9180099999999999  0.20171000000000008  0.18934  1.0000
  C   C44       1.0  0.004969999999999998  0.1161  0.19119  1.0000
  C   C45       1.0  0.18610999999999986  0.8152400000000002  0.7495700000000002  1.0000
  C   C46       1.0  0.014929999999999864  0.9866900000000003  0.74944  1.0000
  C   C47       1.0  0.81546  0.18581  0.24987000000000006  1.0000
  C   C48       1.0  0.98645  0.014149999999999977  0.24990000000000007  1.0000
  N   N1        1.0  0.5732799999999999  0.11298999999999987  0.8561300000000002  1.0000
  N   N2        1.0  0.8866400000000002  0.42666  0.64315  1.0000
  N   N3        1.0  0.42678000000000005  0.88687  0.14384  1.0000
  N   N4        1.0  0.11343999999999997  0.5732300000000002  0.35697  1.0000
  N   N5        1.0  0.92304  0.07835999999999999  0.74938  1.0000
  N   N6        1.0  0.07793999999999994  0.9220900000000002  0.25  1.0000
  O   O1        1.0  0.55025  0.20033000000000012  0.79975  1.0000
  O   O2        1.0  0.57664  0.10016999999999994  0.9335200000000001  1.0000
  O   O3        1.0  0.5366099999999999  0.027889999999999904  0.5956400000000002  1.0000
  O   O4        1.0  0.59068  0.8501700000000002  0.62869  1.0000
  O   O5        1.0  0.7428999999999999  0.63907  0.8882300000000002  1.0000
  O   O6        1.0  0.7139299999999998  0.7166400000000002  0.9929  1.0000
  O   O7        1.0  0.3292499999999999  0.028869999999999972  0.5812100000000001  1.0000
  O   O8        1.0  0.37885999999999975  0.8499900000000002  0.6077400000000002  1.0000
  O   O9        1.0  0.9427499999999998  0.16990999999999992  0.7048300000000002  1.0000
  O   O10       1.0  0.7996099999999997  0.4496100000000001  0.6992100000000002  1.0000
  O   O11       1.0  0.8989399999999999  0.42339000000000004  0.5658500000000002  1.0000
  O   O12       1.0  0.9757599999999996  0.46522000000000024  0.90149  1.0000
  O   O13       1.0  0.15289999999999998  0.40867999999999993  0.8705900000000001  1.0000
  O   O14       1.0  0.36213999999999985  0.25834  0.6103200000000002  1.0000
  O   O15       1.0  0.28048000000000023  0.28419  0.5087  1.0000
  O   O16       1.0  0.9707299999999999  0.67381  0.91673  1.0000
  O   O17       1.0  0.1498899999999998  0.6226400000000002  0.8906800000000002  1.0000
  O   O18       1.0  0.8318799999999998  0.05753999999999998  0.7941000000000001  1.0000
  O   O19       1.0  0.44993999999999995  0.79947  0.20011000000000007  1.0000
  O   O20       1.0  0.42345  0.8996  0.06645  1.0000
  O   O21       1.0  0.46462  0.9761200000000001  0.404  1.0000
  O   O22       1.0  0.4097299999999999  0.15373999999999993  0.3687600000000001  1.0000
  O   O23       1.0  0.25700999999999996  0.36091000000000006  0.11125000000000002  1.0000
  O   O24       1.0  0.28581  0.28381000000000006  0.00623  1.0000
  O   O25       1.0  0.67405  0.9710600000000003  0.41729  1.0000
  O   O26       1.0  0.62267  0.14985  0.39068  1.0000
  O   O27       1.0  0.05725999999999992  0.8308300000000002  0.29469  1.0000
  O   O28       1.0  0.20056999999999997  0.5502400000000001  0.3008700000000001  1.0000
  O   O29       1.0  0.10129999999999997  0.57664  0.4341000000000001  1.0000
  O   O30       1.0  0.027440000000000006  0.53785  0.09705000000000003  1.0000
  O   O31       1.0  0.8488600000000001  0.59089  0.1289  1.0000
  O   O32       1.0  0.63868  0.74377  0.3876100000000001  1.0000
  O   O33       1.0  0.71885  0.71451  0.49106  1.0000
  O   O34       1.0  0.028489999999999956  0.32923000000000013  0.08149  1.0000
  O   O35       1.0  0.84909  0.37778000000000006  0.10830000000000002  1.0000
  O   O36       1.0  0.16930999999999996  0.9417500000000002  0.20561000000000004  1.0000
