data_image0
_chemical_formula_structural       Co8H24C64O36
_chemical_formula_sum              "Co8 H24 C64 O36"
_cell_length_a       10.00208
_cell_length_b       17.70095
_cell_length_c       23.30254
_cell_angle_alpha    90.06250000000001
_cell_angle_beta     90.14436
_cell_angle_gamma    90.13475

_symmetry_space_group_name_H-M    'P 1'
_symmetry_Int_Tables_number       1

loop_
  _symmetry_equiv_pos_as_xyz
  'x,y,z'

loop_
  _atom_site_type_symbol
  _atom_site_label
  _atom_site_symmetry_multiplicity
  _atom_site_fract_x
  _atom_site_fract_y
  _atom_site_fract_z
  _atom_site_occupancy
  Co  Co1       1.0  0.9698199999999998  0.87698  0.65191  1.0000
  Co  Co2       1.0  0.8281799999999999  0.83228  0.72106  1.0000
  Co  Co3       1.0  0.53145  0.12506  0.15119000000000002  1.0000
  Co  Co4       1.0  0.67279  0.16816  0.22122  1.0000
  Co  Co5       1.0  0.02968  0.37589  0.8501400000000002  1.0000
  Co  Co6       1.0  0.17117999999999997  0.33298  0.78042  1.0000
  Co  Co7       1.0  0.4695599999999999  0.62416  0.34987  1.0000
  Co  Co8       1.0  0.32587  0.6677100000000001  0.2809  1.0000
  H   H1        1.0  0.9764899999999997  0.91902  0.87131  1.0000
  H   H2        1.0  0.03868  0.10644000000000002  0.75603  1.0000
  H   H3        1.0  0.052499999999999984  0.14145  0.9395300000000002  1.0000
  H   H4        1.0  0.8203999999999998  0.03752  0.02728  1.0000
  H   H5        1.0  0.07122  0.13497  0.15947  1.0000
  H   H6        1.0  0.24987999999999994  0.03294  0.01053  1.0000
  H   H7        1.0  0.52591  0.08131  0.37150000000000005  1.0000
  H   H8        1.0  0.4653199999999999  0.89407  0.25539  1.0000
  H   H9        1.0  0.44741999999999993  0.85909  0.43879  1.0000
  H   H10       1.0  0.6797  0.96517  0.52821  1.0000
  H   H11       1.0  0.42984999999999995  0.86687  0.6597000000000001  1.0000
  H   H12       1.0  0.25048000000000004  0.9642900000000001  0.50884  1.0000
  H   H13       1.0  0.02381  0.41908  0.63131  1.0000
  H   H14       1.0  0.96506  0.60795  0.74581  1.0000
  H   H15       1.0  0.9485  0.6406  0.56217  1.0000
  H   H16       1.0  0.17993  0.5378  0.47532000000000013  1.0000
  H   H17       1.0  0.9295499999999998  0.63413  0.34298  1.0000
  H   H18       1.0  0.7503399999999999  0.5315200000000001  0.49158  1.0000
  H   H19       1.0  0.46987999999999996  0.58063  0.13086000000000003  1.0000
  H   H20       1.0  0.5339999999999999  0.393  0.24576  1.0000
  H   H21       1.0  0.5546499999999999  0.35980000000000006  0.06217000000000002  1.0000
  H   H22       1.0  0.32011999999999996  0.46322  0.97422  1.0000
  H   H23       1.0  0.56995  0.3676  0.84187  1.0000
  H   H24       1.0  0.74981  0.46792  0.99184  1.0000
  C   C1        1.0  0.02144  0.02561  0.9111800000000002  1.0000
  C   C2        1.0  0.9982899999999999  0.97838  0.86416  1.0000
  C   C3        1.0  0.0018899999999999998  0.007509999999999999  0.8084  1.0000
  C   C4        1.0  0.03238  0.08381  0.79926  1.0000
  C   C5        1.0  0.04831999999999999  0.13129  0.84702  1.0000
  C   C6        1.0  0.04125  0.10308  0.90334  1.0000
  C   C7        1.0  0.03346999999999999  0.03226  0.01356  1.0000
  C   C8        1.0  0.91898  0.05167  0.04391  1.0000
  C   C9        1.0  0.93268  0.0886  0.09703000000000002  1.0000
  C   C10       1.0  0.059959999999999986  0.10649  0.11841  1.0000
  C   C11       1.0  0.17372999999999997  0.08677  0.08695  1.0000
  C   C12       1.0  0.16089999999999996  0.04921  0.034230000000000003  1.0000
  C   C13       1.0  0.9654099999999999  0.95574  0.7607000000000002  1.0000
  C   C14       1.0  0.07126999999999999  0.21313000000000001  0.8375  1.0000
  C   C15       1.0  0.8111099999999999  0.10745  0.13022  1.0000
  C   C16       1.0  0.30927  0.10325  0.11022000000000001  1.0000
  C   C17       1.0  0.4798199999999999  0.9747999999999999  0.41081  1.0000
  C   C18       1.0  0.50382  0.02203  0.36398000000000014  1.0000
  C   C19       1.0  0.5007  0.993  0.30807  1.0000
  C   C20       1.0  0.47068  0.91662  0.29872  1.0000
  C   C21       1.0  0.45411999999999997  0.86911  0.34637000000000007  1.0000
  C   C22       1.0  0.4601499999999999  0.8973600000000002  0.40274  1.0000
  C   C23       1.0  0.46658  0.96777  0.51325  1.0000
  C   C24       1.0  0.5812500000000002  0.9501  0.54432  1.0000
  C   C25       1.0  0.5679199999999999  0.9136500000000001  0.59753  1.0000
  C   C26       1.0  0.44085  0.89477  0.61845  1.0000
  C   C27       1.0  0.3267399999999999  0.91263  0.58632  1.0000
  C   C28       1.0  0.33935999999999994  0.9494900000000001  0.53333  1.0000
  C   C29       1.0  0.53743  0.04505  0.26058  1.0000
  C   C30       1.0  0.42984999999999995  0.78725  0.33710000000000007  1.0000
  C   C31       1.0  0.6896199999999998  0.8959500000000002  0.63122  1.0000
  C   C32       1.0  0.19126  0.89511  0.60922  1.0000
  C   C33       1.0  0.98003  0.52527  0.59097  1.0000
  C   C34       1.0  0.00275  0.47855  0.63821  1.0000
  C   C35       1.0  0.9993099999999999  0.50835  0.6939  1.0000
  C   C36       1.0  0.97032  0.58484  0.70266  1.0000
  C   C37       1.0  0.95424  0.63166  0.65459  1.0000
  C   C38       1.0  0.9605599999999999  0.60275  0.5985  1.0000
  C   C39       1.0  0.9666699999999998  0.5317  0.4886300000000001  1.0000
  C   C40       1.0  0.08144999999999998  0.55146  0.45848  1.0000
  C   C41       1.0  0.06797  0.58837  0.40544  1.0000
  C   C42       1.0  0.9406499999999999  0.6057900000000002  0.38402  1.0000
  C   C43       1.0  0.82654  0.5856  0.41514  1.0000
  C   C44       1.0  0.83923  0.54816  0.46787  1.0000
  C   C45       1.0  0.03495  0.45693  0.74186  1.0000
  C   C46       1.0  0.9296799999999997  0.71342  0.6633200000000001  1.0000
  C   C47       1.0  0.18909999999999993  0.60727  0.37188000000000004  1.0000
  C   C48       1.0  0.69101  0.60168  0.39165  1.0000
  C   C49       1.0  0.51937  0.4749  0.09077  1.0000
  C   C50       1.0  0.49336  0.5214900000000001  0.13787  1.0000
  C   C51       1.0  0.49671999999999994  0.49203  0.1936  1.0000
  C   C52       1.0  0.52809  0.41586  0.20257  1.0000
  C   C53       1.0  0.54593  0.36892  0.15466  1.0000
  C   C54       1.0  0.5406899999999999  0.39761  0.09846000000000003  1.0000
  C   C55       1.0  0.53349  0.46849  0.98831  1.0000
  C   C56       1.0  0.41863999999999996  0.44939  0.9576800000000001  1.0000
  C   C57       1.0  0.43194999999999995  0.41311  0.9043500000000002  1.0000
  C   C58       1.0  0.5590899999999998  0.39558  0.88309  1.0000
  C   C59       1.0  0.6733  0.4149  0.91473  1.0000
  C   C60       1.0  0.66085  0.4518100000000001  0.9677600000000001  1.0000
  C   C61       1.0  0.45971999999999996  0.54326  0.24152  1.0000
  C   C62       1.0  0.5702399999999997  0.28719  0.16374  1.0000
  C   C63       1.0  0.31045  0.39443  0.8707  1.0000
  C   C64       1.0  0.8087  0.3985  0.89152  1.0000
  O   O1        1.0  0.01952  0.98933  0.9635100000000002  1.0000
  O   O2        1.0  0.8999399999999999  0.89533  0.7770000000000001  1.0000
  O   O3        1.0  0.99259  0.96909  0.70883  1.0000
  O   O4        1.0  0.12612  0.23097000000000004  0.7885400000000001  1.0000
  O   O5        1.0  0.03981  0.26188  0.87471  1.0000
  O   O6        1.0  0.41309999999999997  0.0799  0.08343000000000002  1.0000
  O   O7        1.0  0.32227  0.1398  0.15746000000000002  1.0000
  O   O8        1.0  0.69709  0.09142  0.10979000000000001  1.0000
  O   O9        1.0  0.8272199999999998  0.14016  0.17988  1.0000
  O   O10       1.0  0.48037  0.01081  0.46332000000000007  1.0000
  O   O11       1.0  0.60706  0.10381  0.27731000000000006  1.0000
  O   O12       1.0  0.50695  0.03377  0.20871000000000003  1.0000
  O   O13       1.0  0.37427999999999995  0.76929  0.28819000000000006  1.0000
  O   O14       1.0  0.4603499999999999  0.73856  0.37453  1.0000
  O   O15       1.0  0.08684999999999998  0.91273  0.58029  1.0000
  O   O16       1.0  0.17891999999999994  0.86395  0.6586800000000002  1.0000
  O   O17       1.0  0.8037799999999999  0.91244  0.61135  1.0000
  O   O18       1.0  0.6732199999999999  0.86315  0.6807  1.0000
  O   O19       1.0  0.9805  0.48885  0.53862  1.0000
  O   O20       1.0  0.10094999999999997  0.39698  0.7253400000000001  1.0000
  O   O21       1.0  0.007339999999999999  0.46956000000000003  0.79375  1.0000
  O   O22       1.0  0.87382  0.7309  0.71217  1.0000
  O   O23       1.0  0.9598799999999998  0.76208  0.6259000000000001  1.0000
  O   O24       1.0  0.58701  0.58019  0.41918  1.0000
  O   O25       1.0  0.6783499999999998  0.63622  0.34348  1.0000
  O   O26       1.0  0.30372  0.59089  0.39133000000000007  1.0000
  O   O27       1.0  0.17169999999999994  0.6404400000000001  0.32259  1.0000
  O   O28       1.0  0.5195799999999999  0.5112100000000002  0.03842  1.0000
  O   O29       1.0  0.38852  0.60167  0.22554  1.0000
  O   O30       1.0  0.49208999999999997  0.53145  0.29307  1.0000
  O   O31       1.0  0.6243499999999996  0.26936  0.21298  1.0000
  O   O32       1.0  0.54065  0.23859  0.12594  1.0000
  O   O33       1.0  0.91283  0.4198  0.9193200000000002  1.0000
  O   O34       1.0  0.82123  0.3639  0.8433200000000001  1.0000
  O   O35       1.0  0.19631999999999994  0.40877  0.8913600000000002  1.0000
  O   O36       1.0  0.32691999999999993  0.36346  0.82046  1.0000
