data_image0
_chemical_formula_structural       Cd4H28C52N4O16
_chemical_formula_sum              "Cd4 H28 C52 N4 O16"
_cell_length_a       9.25705
_cell_length_b       8.29527
_cell_length_c       18.35667
_cell_angle_alpha    90.04690000000001
_cell_angle_beta     90.05087
_cell_angle_gamma    98.00062000000001

_symmetry_space_group_name_H-M    'P 1'
_symmetry_Int_Tables_number       1

loop_
  _symmetry_equiv_pos_as_xyz
  'x,y,z'

loop_
  _atom_site_type_symbol
  _atom_site_label
  _atom_site_symmetry_multiplicity
  _atom_site_fract_x
  _atom_site_fract_y
  _atom_site_fract_z
  _atom_site_occupancy
  Cd  Cd1       1.0  0.36185999999999996  0.04985  0.42921  1.0000
  Cd  Cd2       1.0  0.6378199999999999  0.4503  0.9292000000000001  1.0000
  Cd  Cd3       1.0  0.63815  0.9501700000000002  0.57078  1.0000
  Cd  Cd4       1.0  0.36219  0.54971  0.07079000000000002  1.0000
  H   H1        1.0  0.89684  0.7968900000000002  0.71002  1.0000
  H   H2        1.0  0.74134  0.46032  0.37092  1.0000
  H   H3        1.0  0.9480499999999998  0.64377  0.9658800000000001  1.0000
  H   H4        1.0  0.85041  0.67057  0.40963000000000005  1.0000
  H   H5        1.0  0.49402  0.21733000000000005  0.68164  1.0000
  H   H6        1.0  0.71311  0.6019500000000002  0.7726000000000002  1.0000
  H   H7        1.0  0.14976  0.8268  0.90953  1.0000
  H   H8        1.0  0.28541000000000005  0.8957800000000002  0.27201  1.0000
  H   H9        1.0  0.25917  0.03562  0.8712500000000002  1.0000
  H   H10       1.0  0.8939300000000001  0.62254  0.15645  1.0000
  H   H11       1.0  0.05280999999999999  0.85411  0.4657200000000001  1.0000
  H   H12       1.0  0.10055  0.70087  0.20962000000000006  1.0000
  H   H13       1.0  0.50405  0.2802  0.18146000000000007  1.0000
  H   H14       1.0  0.10266  0.8775  0.65654  1.0000
  H   H15       1.0  0.28691  0.39806  0.22740000000000002  1.0000
  H   H16       1.0  0.71461  0.10423  0.7279900000000002  1.0000
  H   H17       1.0  0.506  0.78269  0.31836  1.0000
  H   H18       1.0  0.05196  0.35624  0.03412  1.0000
  H   H19       1.0  0.1496  0.3294400000000001  0.59037  1.0000
  H   H20       1.0  0.8973500000000001  0.12250999999999998  0.3434600000000001  1.0000
  H   H21       1.0  0.8994699999999999  0.29914  0.7903800000000002  1.0000
  H   H22       1.0  0.9472  0.14589  0.53428  1.0000
  H   H23       1.0  0.49597  0.71981  0.81854  1.0000
  H   H24       1.0  0.10609  0.37748  0.84355  1.0000
  H   H25       1.0  0.10318  0.20312  0.28998  1.0000
  H   H26       1.0  0.25869  0.53969  0.62908  1.0000
  H   H27       1.0  0.85026  0.17321  0.09047  1.0000
  H   H28       1.0  0.74084  0.9643900000000001  0.12875  1.0000
  C   C1        1.0  0.18849  0.84061  0.3008300000000001  1.0000
  C   C2        1.0  0.9462799999999999  0.7123  0.37709  1.0000
  C   C3        1.0  0.83482  0.55827  0.26856000000000013  1.0000
  C   C4        1.0  0.16402  0.93964  0.7686200000000002  1.0000
  C   C5        1.0  0.81753  0.55013  0.19253  1.0000
  C   C6        1.0  0.08183  0.73335  0.26586  1.0000
  C   C7        1.0  0.91663  0.76462  0.7661700000000002  1.0000
  C   C8        1.0  0.69824  0.45168  0.16128  1.0000
  C   C9        1.0  0.05348  0.78544  0.8771100000000001  1.0000
  C   C10       1.0  0.29977  0.04656  0.6612900000000002  1.0000
  C   C11       1.0  0.38649  0.13387000000000004  0.78135  1.0000
  C   C12       1.0  0.73111  0.4626000000000001  0.31198  1.0000
  C   C13       1.0  0.6784  0.44535000000000013  0.08067000000000002  1.0000
  C   C14       1.0  0.5953700000000001  0.3587700000000001  0.20558  1.0000
  C   C15       1.0  0.32099  0.05395  0.58079  1.0000
  C   C16       1.0  0.05815000000000001  0.81707  0.4091  1.0000
  C   C17       1.0  0.2683  0.03459  0.8122300000000002  1.0000
  C   C18       1.0  0.8103300000000001  0.65744  0.80124  1.0000
  C   C19       1.0  0.40276  0.13895000000000005  0.70575  1.0000
  C   C20       1.0  0.04379000000000003  0.8307700000000002  0.80359  1.0000
  C   C21       1.0  0.50715  0.26019  0.32948  1.0000
  C   C22       1.0  0.9552299999999999  0.66708  0.30352  1.0000
  C   C23       1.0  0.9419600000000001  0.68085  0.9093  1.0000
  C   C24       1.0  0.18036  0.94856  0.6925300000000001  1.0000
  C   C25       1.0  0.49218  0.23904  0.8289600000000001  1.0000
  C   C26       1.0  0.61228  0.36387  0.28121  1.0000
  C   C27       1.0  0.49285  0.73982  0.67051  1.0000
  C   C28       1.0  0.32161  0.55466  0.9193200000000001  1.0000
  C   C29       1.0  0.94186  0.18294  0.5909  1.0000
  C   C30       1.0  0.7317200000000001  0.9654200000000002  0.18777  1.0000
  C   C31       1.0  0.04479000000000002  0.3329300000000001  0.69648  1.0000
  C   C32       1.0  0.67902  0.94606  0.41921  1.0000
  C   C33       1.0  0.08339  0.2354  0.23383  1.0000
  C   C34       1.0  0.95623  0.16924  0.19641  1.0000
  C   C35       1.0  0.50784  0.76097  0.17104000000000003  1.0000
  C   C36       1.0  0.30178  0.54833  0.83871  1.0000
  C   C37       1.0  0.5972499999999998  0.8610700000000002  0.29425  1.0000
  C   C38       1.0  0.053739999999999996  0.28771  0.62291  1.0000
  C   C39       1.0  0.40464  0.64124  0.79442  1.0000
  C   C40       1.0  0.81966  0.05146000000000001  0.30747000000000013  1.0000
  C   C41       1.0  0.61352  0.8661400000000002  0.21865  1.0000
  C   C42       1.0  0.38772999999999996  0.63615  0.7187900000000003  1.0000
  C   C43       1.0  0.83599  0.06037  0.23138  1.0000
  C   C44       1.0  0.70024  0.95346  0.33871000000000007  1.0000
  C   C45       1.0  0.058060000000000014  0.3191700000000001  0.0907  1.0000
  C   C46       1.0  0.18968000000000004  0.3425700000000001  0.19875  1.0000
  C   C47       1.0  0.26891  0.53741  0.68802  1.0000
  C   C48       1.0  0.18248  0.44988  0.80747  1.0000
  C   C49       1.0  0.16519999999999999  0.44174000000000013  0.7314400000000001  1.0000
  C   C50       1.0  0.9181899999999998  0.26666  0.73414  1.0000
  C   C51       1.0  0.94653  0.21457000000000007  0.12288000000000002  1.0000
  C   C52       1.0  0.81153  0.15941  0.6991700000000002  1.0000
  N   N1        1.0  0.17783999999999997  0.8822300000000002  0.3717000000000001  1.0000
  N   N2        1.0  0.8217700000000001  0.6159300000000001  0.87207  1.0000
  N   N3        1.0  0.17824  0.38409  0.12792000000000003  1.0000
  N   N4        1.0  0.82218  0.11778  0.6283000000000001  1.0000
  O   O1        1.0  0.60034  0.32617000000000007  0.8000700000000002  1.0000
  O   O2        1.0  0.21489  0.0085  0.53812  1.0000
  O   O3        1.0  0.78559  0.49107000000000006  0.03896  1.0000
  O   O4        1.0  0.46556999999999993  0.23866000000000007  0.89772  1.0000
  O   O5        1.0  0.44868  0.11058  0.5562100000000002  1.0000
  O   O6        1.0  0.55125  0.3898  0.05489000000000001  1.0000
  O   O7        1.0  0.53565  0.26121  0.39803  1.0000
  O   O8        1.0  0.39724  0.17368  0.30163  1.0000
  O   O9        1.0  0.39967  0.67384  0.19993  1.0000
  O   O10       1.0  0.21441  0.50894  0.96103  1.0000
  O   O11       1.0  0.44876  0.6102000000000002  0.9451100000000001  1.0000
  O   O12       1.0  0.53444  0.7613500000000002  0.10228000000000002  1.0000
  O   O13       1.0  0.78512  0.9915099999999999  0.46188000000000007  1.0000
  O   O14       1.0  0.55133  0.8894400000000002  0.44378  1.0000
  O   O15       1.0  0.46436  0.7388  0.6019600000000002  1.0000
  O   O16       1.0  0.60275  0.8263300000000002  0.6983700000000003  1.0000
