data_image0
_chemical_formula_structural       Cu4H42C42N6O18
_chemical_formula_sum              "Cu4 H42 C42 N6 O18"
_cell_length_a       8.54164
_cell_length_b       11.81938
_cell_length_c       13.176
_cell_angle_alpha    101.9964
_cell_angle_beta     91.37976
_cell_angle_gamma    108.17800000000001

_space_group_name_H-M_alt    "P 1"
_space_group_IT_number       1

loop_
  _space_group_symop_operation_xyz
  'x, y, z'

loop_
  _atom_site_type_symbol
  _atom_site_label
  _atom_site_symmetry_multiplicity
  _atom_site_fract_x
  _atom_site_fract_y
  _atom_site_fract_z
  _atom_site_occupancy
  Cu  Cu1       1.0  0.49067999999999995  0.59625  0.97318  1.0000
  Cu  Cu2       1.0  0.9942500000000001  0.59562  0.56484  1.0000
  Cu  Cu3       1.0  0.50934  0.40373000000000003  0.026810000000000007  1.0000
  Cu  Cu4       1.0  0.005770000000000027  0.4043800000000001  0.43516  1.0000
  H   H1        1.0  0.21994  0.047950000000000007  0.01844  1.0000
  H   H2        1.0  0.4245999999999999  0.35921  0.4461800000000001  1.0000
  H   H3        1.0  0.47323  0.23608000000000007  0.4805200000000001  1.0000
  H   H4        1.0  0.4638  0.47245  0.6296800000000001  1.0000
  H   H5        1.0  0.31215  0.32772  0.6120100000000002  1.0000
  H   H6        1.0  0.67731  0.38692999999999994  0.68956  1.0000
  H   H7        1.0  0.5194  0.24822000000000008  0.6892300000000002  1.0000
  H   H8        1.0  0.07199000000000005  0.64015  0.00343  1.0000
  H   H9        1.0  0.02938000000000002  0.7660800000000001  0.08177  1.0000
  H   H10       1.0  0.032090000000000014  0.52975  0.14496  1.0000
  H   H11       1.0  0.18682000000000004  0.67452  0.18385  1.0000
  H   H12       1.0  0.8242599999999999  0.62523  0.23211  1.0000
  H   H13       1.0  0.9922000000000001  0.7587200000000001  0.28736  1.0000
  H   H14       1.0  0.4009599999999999  0.81621  0.07767  1.0000
  H   H15       1.0  0.23937000000000003  0.97392  0.8434300000000002  1.0000
  H   H16       1.0  0.3230799999999999  0.82436  0.70855  1.0000
  H   H17       1.0  0.44063  0.67727  0.76707  1.0000
  H   H18       1.0  0.13620000000000002  0.99248  0.33668000000000003  1.0000
  H   H19       1.0  0.018390000000000004  0.14782  0.43985  1.0000
  H   H20       1.0  0.09481  0.34674  0.21156  1.0000
  H   H21       1.0  0.21014999999999998  0.20548999999999998  0.09993000000000002  1.0000
  H   H22       1.0  0.78007  0.95202  0.9815500000000003  1.0000
  H   H23       1.0  0.5754  0.64078  0.55381  1.0000
  H   H24       1.0  0.52677  0.76392  0.51948  1.0000
  H   H25       1.0  0.53622  0.52755  0.37031  1.0000
  H   H26       1.0  0.68785  0.67228  0.38798000000000005  1.0000
  H   H27       1.0  0.3227  0.61307  0.31044  1.0000
  H   H28       1.0  0.4806000000000001  0.75178  0.31076  1.0000
  H   H29       1.0  0.92801  0.35983000000000004  0.9965600000000002  1.0000
  H   H30       1.0  0.9706200000000001  0.23391000000000006  0.9182300000000001  1.0000
  H   H31       1.0  0.96792  0.47024000000000005  0.85504  1.0000
  H   H32       1.0  0.8131799999999999  0.32547  0.81614  1.0000
  H   H33       1.0  0.17575  0.37477  0.76789  1.0000
  H   H34       1.0  0.0078099999999999715  0.24125999999999997  0.71263  1.0000
  H   H35       1.0  0.59906  0.18377000000000007  0.9223300000000002  1.0000
  H   H36       1.0  0.76064  0.026080000000000002  0.15659  1.0000
  H   H37       1.0  0.67691  0.17564  0.29146  1.0000
  H   H38       1.0  0.55937  0.32272  0.23292  1.0000
  H   H39       1.0  0.86381  0.007510000000000032  0.6633300000000001  1.0000
  H   H40       1.0  0.9816300000000001  0.85217  0.56015  1.0000
  H   H41       1.0  0.90521  0.65325  0.78845  1.0000
  H   H42       1.0  0.78987  0.7945  0.90008  1.0000
  C   C1        1.0  0.68013  0.39789  0.49448000000000003  1.0000
  C   C2        1.0  0.49769  0.33521  0.50341  1.0000
  C   C3        1.0  0.44537  0.37419  0.61229  1.0000
  C   C4        1.0  0.54431  0.3467  0.69725  1.0000
  C   C5        1.0  0.52087  0.40206  0.8080700000000001  1.0000
  C   C6        1.0  0.8183  0.60644  0.03292  1.0000
  C   C7        1.0  0.0012299999999999612  0.66684  0.06769  1.0000
  C   C8        1.0  0.05342000000000001  0.62842  0.16393  1.0000
  C   C9        1.0  0.95811  0.65958  0.25712  1.0000
  C   C10       1.0  0.97621  0.60064  0.34667  1.0000
  C   C11       1.0  0.3822799999999999  0.82172  0.99734  1.0000
  C   C12       1.0  0.31103  0.90539  0.9714300000000002  1.0000
  C   C13       1.0  0.2919300000000001  0.9088  0.8661100000000002  1.0000
  C   C14       1.0  0.33954  0.8274  0.79121  1.0000
  C   C15       1.0  0.40541  0.7448599999999999  0.8227800000000002  1.0000
  C   C16       1.0  0.12564  0.06909  0.30659  1.0000
  C   C17       1.0  0.18053  0.08379000000000002  0.20916000000000004  1.0000
  C   C18       1.0  0.06076000000000002  0.15424000000000002  0.36332000000000003  1.0000
  C   C19       1.0  0.10318  0.26602  0.23574  1.0000
  C   C20       1.0  0.16753000000000004  0.18411000000000002  0.17313  1.0000
  C   C21       1.0  0.25370000000000004  0.99151  0.15173  1.0000
  C   C22       1.0  0.31987999999999994  0.6021  0.50552  1.0000
  C   C23       1.0  0.50232  0.6647900000000002  0.49659  1.0000
  C   C24       1.0  0.5546299999999998  0.6258099999999999  0.38771  1.0000
  C   C25       1.0  0.4557  0.6533  0.30274  1.0000
  C   C26       1.0  0.47914  0.59791  0.19194  1.0000
  C   C27       1.0  0.18171  0.39354  0.96707  1.0000
  C   C28       1.0  0.9987799999999999  0.33316  0.9323  1.0000
  C   C29       1.0  0.94658  0.37157  0.8360600000000001  1.0000
  C   C30       1.0  0.04189999999999999  0.34041  0.74287  1.0000
  C   C31       1.0  0.02378999999999997  0.3993399999999999  0.65332  1.0000
  C   C32       1.0  0.61773  0.17826000000000003  0.00266  1.0000
  C   C33       1.0  0.68897  0.09459  0.02857  1.0000
  C   C34       1.0  0.7080699999999999  0.09119  0.13389  1.0000
  C   C35       1.0  0.6604599999999998  0.17257999999999996  0.20879  1.0000
  C   C36       1.0  0.59459  0.25513  0.17721  1.0000
  C   C37       1.0  0.87437  0.93089  0.69342  1.0000
  C   C38       1.0  0.81948  0.9162  0.7908400000000002  1.0000
  C   C39       1.0  0.9392399999999999  0.84575  0.63668  1.0000
  C   C40       1.0  0.89682  0.73396  0.76427  1.0000
  C   C41       1.0  0.83247  0.8158699999999999  0.8268800000000002  1.0000
  C   C42       1.0  0.74633  0.00845000000000003  0.8482900000000001  1.0000
  N   N1        1.0  0.42848  0.74385  0.92404  1.0000
  N   N2        1.0  0.25823999999999997  0.9858599999999998  0.04614  1.0000
  N   N3        1.0  0.05032  0.25179  0.3291  1.0000
  N   N4        1.0  0.57153  0.25614  0.07596  1.0000
  N   N5        1.0  0.7417500000000001  0.014120000000000035  0.9538600000000002  1.0000
  N   N6        1.0  0.9496900000000001  0.7482  0.67091  1.0000
  O   O1        1.0  0.74596  0.50669  0.54847  1.0000
  O   O2        1.0  0.9842899999999999  0.4923  0.32369000000000003  1.0000
  O   O3        1.0  0.51144  0.51019  0.8278100000000002  1.0000
  O   O4        1.0  0.7551  0.33697  0.43438  1.0000
  O   O5        1.0  0.7541499999999999  0.4963699999999999  0.04066  1.0000
  O   O6        1.0  0.73954  0.66996  0.00014  1.0000
  O   O7        1.0  0.5163599999999999  0.33681  0.87473  1.0000
  O   O8        1.0  0.9768700000000001  0.66279  0.43878  1.0000
  O   O9        1.0  0.30122  0.92514  0.19720000000000001  1.0000
  O   O10       1.0  0.25404  0.49329999999999996  0.4515300000000001  1.0000
  O   O11       1.0  0.015720000000000012  0.50771  0.67631  1.0000
  O   O12       1.0  0.48855  0.48981  0.17218  1.0000
  O   O13       1.0  0.24491000000000002  0.66302  0.56562  1.0000
  O   O14       1.0  0.24584999999999999  0.50363  0.95934  1.0000
  O   O15       1.0  0.26047  0.33002  0.9998500000000001  1.0000
  O   O16       1.0  0.48365999999999987  0.66319  0.12525  1.0000
  O   O17       1.0  0.023140000000000004  0.33722  0.56123  1.0000
  O   O18       1.0  0.69882  0.07489000000000004  0.8027700000000002  1.0000
