data_image0
_chemical_formula_structural       Cu4H36C60N20O16
_chemical_formula_sum              "Cu4 H36 C60 N20 O16"
_cell_length_a       10.0432
_cell_length_b       11.50453
_cell_length_c       17.42197
_cell_angle_alpha    89.99888000000001
_cell_angle_beta     90.13783
_cell_angle_gamma    100.29214

_space_group_name_H-M_alt    "P 1"
_space_group_IT_number       1

loop_
  _space_group_symop_operation_xyz
  'x, y, z'

loop_
  _atom_site_type_symbol
  _atom_site_label
  _atom_site_symmetry_multiplicity
  _atom_site_fract_x
  _atom_site_fract_y
  _atom_site_fract_z
  _atom_site_occupancy
  Cu  Cu1       1.0  0.56853  0.66357  0.44986  1.0000
  Cu  Cu2       1.0  0.93375  0.8362900000000001  0.9492399999999999  1.0000
  Cu  Cu3       1.0  0.43146  0.33642  0.55015  1.0000
  Cu  Cu4       1.0  0.06624  0.1637  0.05077  1.0000
  H   H1        1.0  0.39118  0.8639800000000001  0.94405  1.0000
  H   H2        1.0  0.64348  0.7125000000000001  0.78743  1.0000
  H   H3        1.0  0.21853  0.69861  0.7362  1.0000
  H   H4        1.0  0.2489  0.43731  0.73822  1.0000
  H   H5        1.0  0.40184  0.4696  0.79182  1.0000
  H   H6        1.0  0.37915  0.35076000000000007  0.72333  1.0000
  H   H7        1.0  0.52347  0.90159  0.69326  1.0000
  H   H8        1.0  0.70766  0.10913  0.51551  1.0000
  H   H9        1.0  0.69168  0.92436  0.43061  1.0000
  H   H10       1.0  0.11035  0.63625  0.44404  1.0000
  H   H11       1.0  0.85828  0.78746  0.28639  1.0000
  H   H12       1.0  0.28315  0.8010500000000002  0.23648999999999998  1.0000
  H   H13       1.0  0.25037  0.06375  0.23869  1.0000
  H   H14       1.0  0.09756  0.02951  0.29185  1.0000
  H   H15       1.0  0.11861000000000001  0.14876  0.22366  1.0000
  H   H16       1.0  0.97554  0.59749  0.19323  1.0000
  H   H17       1.0  0.79052  0.39099000000000006  0.014740000000000001  1.0000
  H   H18       1.0  0.80997  0.57566  0.9295500000000001  1.0000
  H   H19       1.0  0.60881  0.13601  0.05595  1.0000
  H   H20       1.0  0.35652  0.2875  0.21257  1.0000
  H   H21       1.0  0.78147  0.30139  0.2638  1.0000
  H   H22       1.0  0.7511  0.56268  0.26178  1.0000
  H   H23       1.0  0.59815  0.53039  0.20818  1.0000
  H   H24       1.0  0.62084  0.64923  0.27668  1.0000
  H   H25       1.0  0.47652  0.0984  0.30674  1.0000
  H   H26       1.0  0.29233  0.8908600000000002  0.48449000000000003  1.0000
  H   H27       1.0  0.30832  0.07564  0.56939  1.0000
  H   H28       1.0  0.8896500000000002  0.36374000000000006  0.55597  1.0000
  H   H29       1.0  0.14171  0.21254  0.71361  1.0000
  H   H30       1.0  0.71684  0.19894000000000006  0.76352  1.0000
  H   H31       1.0  0.74962  0.93625  0.76131  1.0000
  H   H32       1.0  0.90243  0.97049  0.70816  1.0000
  H   H33       1.0  0.88139  0.8512400000000001  0.77635  1.0000
  H   H34       1.0  0.024450000000000006  0.4025000000000001  0.80677  1.0000
  H   H35       1.0  0.20946999999999996  0.60901  0.9852599999999999  1.0000
  H   H36       1.0  0.19002  0.42434  0.07046  1.0000
  C   C1        1.0  0.6516100000000001  0.82954  0.92263  1.0000
  C   C2        1.0  0.14901  0.79485  0.86474  1.0000
  C   C3        1.0  0.40241  0.81695  0.89082  1.0000
  C   C4        1.0  0.53011  0.79315  0.87068  1.0000
  C   C5        1.0  0.29025  0.78023  0.84303  1.0000
  C   C6        1.0  0.54537  0.73377  0.80192  1.0000
  C   C7        1.0  0.30656  0.72465  0.77296  1.0000
  C   C8        1.0  0.43401000000000006  0.70278  0.75339  1.0000
  C   C9        1.0  0.35855  0.43909  0.73593  1.0000
  C   C10       1.0  0.41974  0.52023  0.67488  1.0000
  C   C11       1.0  0.50694  0.68387  0.61434  1.0000
  C   C12       1.0  0.55664  0.8047  0.58998  1.0000
  C   C13       1.0  0.56251  0.9069  0.63487  1.0000
  C   C14       1.0  0.66389  0.02112  0.53621  1.0000
  C   C15       1.0  0.65561  0.92104  0.48958000000000007  1.0000
  C   C16       1.0  0.84957  0.6705200000000001  0.42128  1.0000
  C   C17       1.0  0.35308999999999996  0.70522  0.3644  1.0000
  C   C18       1.0  0.09932  0.68343  0.39078  1.0000
  C   C19       1.0  0.97158  0.7073300000000002  0.37014  1.0000
  C   C20       1.0  0.21145  0.72002  0.34321  1.0000
  C   C21       1.0  0.95641  0.7663600000000002  0.30126  1.0000
  C   C22       1.0  0.19510000000000005  0.7754300000000002  0.27303  1.0000
  C   C23       1.0  0.06774000000000002  0.7971700000000002  0.25304  1.0000
  C   C24       1.0  0.1405  0.06078000000000001  0.23613999999999996  1.0000
  C   C25       1.0  0.08030000000000001  0.9794800000000001  0.17478  1.0000
  C   C26       1.0  0.99479  0.8155500000000001  0.11385  1.0000
  C   C27       1.0  0.94505  0.69468  0.08943  1.0000
  C   C28       1.0  0.9372699999999999  0.59249  0.13456  1.0000
  C   C29       1.0  0.8353799999999999  0.4787500000000001  0.03552  1.0000
  C   C30       1.0  0.84558  0.57875  0.9887  1.0000
  C   C31       1.0  0.34839  0.17046  0.07737  1.0000
  C   C32       1.0  0.8509800000000001  0.20514  0.13526  1.0000
  C   C33       1.0  0.59758  0.18304  0.10918  1.0000
  C   C34       1.0  0.46988  0.20684000000000002  0.12933  1.0000
  C   C35       1.0  0.70974  0.21976  0.15697  1.0000
  C   C36       1.0  0.45462999999999987  0.26622  0.19808  1.0000
  C   C37       1.0  0.69343  0.27535  0.22705  1.0000
  C   C38       1.0  0.56598  0.29722  0.24661  1.0000
  C   C39       1.0  0.64144  0.5609  0.26407  1.0000
  C   C40       1.0  0.58025  0.47976  0.32513  1.0000
  C   C41       1.0  0.49305  0.31612  0.38566  1.0000
  C   C42       1.0  0.44335  0.19529  0.41002  1.0000
  C   C43       1.0  0.43748000000000004  0.09309  0.36513  1.0000
  C   C44       1.0  0.3361  0.97887  0.46379  1.0000
  C   C45       1.0  0.34438  0.07896  0.51042  1.0000
  C   C46       1.0  0.15042  0.32947000000000004  0.57872  1.0000
  C   C47       1.0  0.6469  0.29477  0.6356  1.0000
  C   C48       1.0  0.9006699999999999  0.31656  0.60922  1.0000
  C   C49       1.0  0.028410000000000026  0.29266000000000003  0.62986  1.0000
  C   C50       1.0  0.78854  0.27997  0.65679  1.0000
  C   C51       1.0  0.04358000000000001  0.23363  0.69874  1.0000
  C   C52       1.0  0.8049  0.22456000000000004  0.72697  1.0000
  C   C53       1.0  0.93225  0.20283  0.74696  1.0000
  C   C54       1.0  0.8594899999999999  0.93921  0.76386  1.0000
  C   C55       1.0  0.9197  0.02051  0.82522  1.0000
  C   C56       1.0  0.005199999999999999  0.18444  0.88615  1.0000
  C   C57       1.0  0.05494  0.30532  0.91058  1.0000
  C   C58       1.0  0.06273  0.4075  0.86544  1.0000
  C   C59       1.0  0.16462  0.52124  0.9644799999999999  1.0000
  C   C60       1.0  0.15441000000000002  0.42124000000000006  0.0113  1.0000
  N   N1        1.0  0.45114  0.64081  0.68311  1.0000
  N   N2        1.0  0.4552999999999999  0.49322000000000005  0.60419  1.0000
  N   N3        1.0  0.51013  0.5941  0.56697  1.0000
  N   N4        1.0  0.6014199999999998  0.81402  0.51643  1.0000
  N   N5        1.0  0.61587  0.01426  0.60823  1.0000
  N   N6        1.0  0.050499999999999996  0.85885  0.18271  1.0000
  N   N7        1.0  0.04402  0.00634  0.10412  1.0000
  N   N8        1.0  0.9904  0.9052900000000002  0.06663  1.0000
  N   N9        1.0  0.90108  0.68549  0.01558  1.0000
  N   N10       1.0  0.88271  0.48539  0.10781  1.0000
  N   N11       1.0  0.54885  0.35919000000000006  0.3169  1.0000
  N   N12       1.0  0.54469  0.50677  0.39581  1.0000
  N   N13       1.0  0.4898600000000001  0.40589  0.43303  1.0000
  N   N14       1.0  0.39857  0.18597000000000005  0.48358  1.0000
  N   N15       1.0  0.38412  0.98573  0.39177  1.0000
  N   N16       1.0  0.94949  0.14115  0.81729  1.0000
  N   N17       1.0  0.9559699999999999  0.9936500000000001  0.89588  1.0000
  N   N18       1.0  0.009599999999999997  0.0947  0.9333700000000001  1.0000
  N   N19       1.0  0.09891  0.31451  0.9844300000000001  1.0000
  N   N20       1.0  0.11728  0.51461  0.89219  1.0000
  O   O1        1.0  0.64695  0.8973400000000001  0.9773  1.0000
  O   O2        1.0  0.75529  0.78235  0.90167  1.0000
  O   O3        1.0  0.13186999999999996  0.81732  0.9365300000000001  1.0000
  O   O4        1.0  0.05923000000000003  0.7827900000000001  0.81401  1.0000
  O   O5        1.0  0.8530700000000001  0.59953  0.47427  1.0000
  O   O6        1.0  0.74669  0.7200300000000001  0.40167  1.0000
  O   O7        1.0  0.37268  0.68541  0.43636  1.0000
  O   O8        1.0  0.44094  0.71465  0.31292  1.0000
  O   O9        1.0  0.35304  0.10265  0.02271  1.0000
  O   O10       1.0  0.24471  0.21765000000000004  0.09833  1.0000
  O   O11       1.0  0.8681200000000001  0.18268  0.06347  1.0000
  O   O12       1.0  0.9407600000000002  0.2172  0.18599  1.0000
  O   O13       1.0  0.14692  0.40046  0.52573  1.0000
  O   O14       1.0  0.25331  0.27997  0.59833  1.0000
  O   O15       1.0  0.62731  0.3145800000000001  0.56364  1.0000
  O   O16       1.0  0.55906  0.28534  0.68708  1.0000
