data_image0
_chemical_formula_structural       Ce3H36C63N3O18
_chemical_formula_sum              "Ce3 H36 C63 N3 O18"
_cell_length_a       13.0327
_cell_length_b       14.729369999999998
_cell_length_c       14.72341
_cell_angle_alpha    111.82482
_cell_angle_beta     107.12747000000002
_cell_angle_gamma    107.12650000000001

_symmetry_space_group_name_H-M    'P 1'
_symmetry_Int_Tables_number       1

loop_
  _symmetry_equiv_pos_as_xyz
  'x,y,z'

loop_
  _atom_site_type_symbol
  _atom_site_label
  _atom_site_symmetry_multiplicity
  _atom_site_fract_x
  _atom_site_fract_y
  _atom_site_fract_z
  _atom_site_occupancy
  Ce  Ce1       1.0  0.6793  0.35783  0.67837  1.0000
  Ce  Ce2       1.0  0.0007300000000000516  0.32265  0.6766800000000001  1.0000
  Ce  Ce3       1.0  0.32076  0.32162  0.64216  1.0000
  H   H1        1.0  0.76229  0.026410000000000114  0.6202500000000001  1.0000
  H   H2        1.0  0.67373  0.8225800000000002  0.5186  1.0000
  H   H3        1.0  0.51119  0.014550000000000026  0.34570000000000006  1.0000
  H   H4        1.0  0.4275  0.81227  0.24060000000000004  1.0000
  H   H5        1.0  0.40366  0.6950800000000003  0.4497300000000001  1.0000
  H   H6        1.0  0.39982  0.59013  0.5495  1.0000
  H   H7        1.0  0.14131000000000002  0.38008  0.4053000000000001  1.0000
  H   H8        1.0  0.15492000000000003  0.4812100000000001  0.30314  1.0000
  H   H9        1.0  0.16630000000000017  0.6550800000000001  0.6690200000000002  1.0000
  H   H10       1.0  0.18735  0.76004  0.57206  1.0000
  H   H11       1.0  0.9538199999999999  0.55028  0.24407000000000006  1.0000
  H   H12       1.0  0.8507  0.44991  0.03897  1.0000
  H   H13       1.0  0.7364800000000001  0.5949300000000001  0.9742300000000003  1.0000
  H   H14       1.0  0.85162  0.69647  0.17789000000000002  1.0000
  H   H15       1.0  0.4964500000000001  0.33104000000000006  0.9836000000000001  1.0000
  H   H16       1.0  0.61422  0.42772000000000016  0.18601000000000006  1.0000
  H   H17       1.0  0.70845  0.7542  0.30496000000000006  1.0000
  H   H18       1.0  0.80879  0.95925  0.4099600000000001  1.0000
  H   H19       1.0  0.85871  0.59464  0.61996  1.0000
  H   H20       1.0  0.84498  0.69669  0.51871  1.0000
  H   H21       1.0  0.8339699999999999  0.33109  0.34489  1.0000
  H   H22       1.0  0.8127400000000001  0.4279900000000002  0.23983000000000002  1.0000
  H   H23       1.0  0.04612999999999998  0.7554700000000001  0.44961  1.0000
  H   H24       1.0  0.14954000000000017  0.9605100000000001  0.5498300000000002  1.0000
  H   H25       1.0  0.26329  0.02545  0.40483  1.0000
  H   H26       1.0  0.14827999999999997  0.82189  0.30329000000000006  1.0000
  H   H27       1.0  0.50344  0.016250000000000077  0.6689200000000002  1.0000
  H   H28       1.0  0.38572  0.81395  0.57225  1.0000
  H   H29       1.0  0.29167  0.6951  0.24575  1.0000
  H   H30       1.0  0.19169  0.58997  0.040600000000000004  1.0000
  H   H31       1.0  0.2381  0.37979  0.97364  1.0000
  H   H32       1.0  0.32637  0.48159000000000013  0.17754000000000003  1.0000
  H   H33       1.0  0.48893  0.65426  0.9854100000000001  1.0000
  H   H34       1.0  0.57247  0.75957  0.18778  1.0000
  H   H35       1.0  0.59639  0.55048  0.30501  1.0000
  H   H36       1.0  0.60015  0.4506200000000001  0.4098700000000001  1.0000
  C   C1        1.0  0.54564  0.8030900000000001  0.37206  1.0000
  C   C2        1.0  0.68772  0.9786000000000001  0.5376900000000001  1.0000
  C   C3        1.0  0.6384100000000003  0.8647200000000002  0.48084  1.0000
  C   C4        1.0  0.64378  0.03369  0.48886  1.0000
  C   C5        1.0  0.54786  0.97197  0.3820600000000001  1.0000
  C   C6        1.0  0.5001100000000002  0.8584600000000002  0.32389000000000007  1.0000
  C   C7        1.0  0.693  0.15459  0.54956  1.0000
  C   C8        1.0  0.44594  0.6411200000000001  0.4413900000000001  1.0000
  C   C9        1.0  0.44475  0.58303  0.49751  1.0000
  C   C10       1.0  0.17365000000000005  0.62834  0.4306600000000001  1.0000
  C   C11       1.0  0.15002000000000001  0.4628700000000001  0.44039000000000006  1.0000
  C   C12       1.0  0.15769  0.51949  0.3833100000000001  1.0000
  C   C13       1.0  0.15508000000000005  0.51192  0.5445600000000002  1.0000
  C   C14       1.0  0.16653000000000007  0.61885  0.5899100000000002  1.0000
  C   C15       1.0  0.17686  0.67682  0.53462  1.0000
  C   C16       1.0  0.14252000000000006  0.45192000000000004  0.6050200000000001  1.0000
  C   C17       1.0  0.004709999999999996  0.5586  0.19872  1.0000
  C   C18       1.0  0.94762  0.50209  0.08425  1.0000
  C   C19       1.0  0.7425400000000001  0.5689800000000002  0.19665000000000005  1.0000
  C   C20       1.0  0.7095599999999999  0.5597  0.02156  1.0000
  C   C21       1.0  0.77405  0.61638  0.13547000000000003  1.0000
  C   C22       1.0  0.6102500000000001  0.45561  0.96574  1.0000
  C   C23       1.0  0.57582  0.4101800000000001  0.02693  1.0000
  C   C24       1.0  0.64135  0.46523  0.14051  1.0000
  C   C25       1.0  0.53809  0.3954600000000001  0.84487  1.0000
  C   C26       1.0  0.80465  0.8003300000000001  0.35895  1.0000
  C   C27       1.0  0.86125  0.9147  0.41700000000000004  1.0000
  C   C28       1.0  0.8263  0.56918  0.37156  1.0000
  C   C29       1.0  0.85002  0.55959  0.53714  1.0000
  C   C30       1.0  0.8422399999999999  0.61657  0.4804400000000001  1.0000
  C   C31       1.0  0.84513  0.45552  0.48811  1.0000
  C   C32       1.0  0.8336599999999998  0.41014  0.3811300000000001  1.0000
  C   C33       1.0  0.8232  0.46533000000000013  0.32308  1.0000
  C   C34       1.0  0.85774  0.39509  0.54818  1.0000
  C   C35       1.0  0.99538  0.8008900000000002  0.4412300000000001  1.0000
  C   C36       1.0  0.05264000000000003  0.91533  0.49762  1.0000
  C   C37       1.0  0.2573700000000001  0.8032100000000003  0.43089  1.0000
  C   C38       1.0  0.2902900000000001  0.9781700000000002  0.4400700000000001  1.0000
  C   C39       1.0  0.22585  0.86432  0.38343  1.0000
  C   C40       1.0  0.38962  0.03405999999999999  0.54421  1.0000
  C   C41       1.0  0.4240999999999999  0.97295  0.5897100000000001  1.0000
  C   C42       1.0  0.3585599999999999  0.85941  0.5347  1.0000
  C   C43       1.0  0.46165000000000017  0.15492000000000009  0.6042700000000001  1.0000
  C   C44       1.0  0.19552  0.64094  0.19947  1.0000
  C   C45       1.0  0.13907999999999995  0.58277  0.08502  1.0000
  C   C46       1.0  0.45445  0.62809  0.19702000000000006  1.0000
  C   C47       1.0  0.31261  0.46236  0.02146  1.0000
  C   C48       1.0  0.36178  0.5192800000000001  0.13538  1.0000
  C   C49       1.0  0.35655000000000014  0.5112000000000002  0.9663600000000002  1.0000
  C   C50       1.0  0.45236  0.61799  0.028110000000000003  1.0000
  C   C51       1.0  0.50002  0.6762400000000001  0.14164  1.0000
  C   C52       1.0  0.3077400000000001  0.4506900000000002  0.8455000000000003  1.0000
  C   C53       1.0  0.55409  0.55879  0.35898  1.0000
  C   C54       1.0  0.55523  0.5026  0.41701000000000005  1.0000
  C   C55       1.0  0.50003  0.62884  0.3713300000000001  1.0000
  C   C56       1.0  0.4999799999999999  0.51362  0.4864300000000001  1.0000
  C   C57       1.0  0.4999400000000001  0.45221000000000017  0.5477600000000001  1.0000
  C   C58       1.0  0.12879999999999997  0.62861  0.25686000000000003  1.0000
  C   C59       1.0  0.014420000000000004  0.51324  0.026350000000000002  1.0000
  C   C60       1.0  0.9533499999999998  0.4515800000000001  0.9034600000000002  1.0000
  C   C61       1.0  0.8712500000000001  0.7428700000000003  0.3712900000000001  1.0000
  C   C62       1.0  0.98592  0.97326  0.4864300000000001  1.0000
  C   C63       1.0  0.04689000000000004  0.09606  0.54811  1.0000
  N   N1        1.0  0.5  0.68751  0.3126300000000001  1.0000
  N   N2        1.0  0.18743000000000007  0.68754  0.3745500000000001  1.0000
  N   N3        1.0  0.8125000000000002  0.6252600000000003  0.31235000000000007  1.0000
  O   O1        1.0  0.63287  0.1983400000000001  0.51243  1.0000
  O   O2        1.0  0.7916900000000001  0.21331  0.64097  1.0000
  O   O3        1.0  0.40998  0.42318000000000006  0.56722  1.0000
  O   O4        1.0  0.12028000000000012  0.49034000000000016  0.6863400000000002  1.0000
  O   O5        1.0  0.14786  0.35949  0.57211  1.0000
  O   O6        1.0  0.8437100000000002  0.43158000000000013  0.8546200000000003  1.0000
  O   O7        1.0  0.43415  0.31449  0.80095  1.0000
  O   O8        1.0  0.5778000000000001  0.42855000000000015  0.7863600000000002  1.0000
  O   O9        1.0  0.98533  0.14403000000000002  0.57674  1.0000
  O   O10       1.0  0.88024  0.31394000000000005  0.5097200000000001  1.0000
  O   O11       1.0  0.8521299999999999  0.42779000000000006  0.6404400000000001  1.0000
  O   O12       1.0  0.15644  0.14518000000000003  0.56821  1.0000
  O   O13       1.0  0.5656699999999999  0.19889999999999994  0.68521  1.0000
  O   O14       1.0  0.42169  0.21327  0.5711200000000001  1.0000
  O   O15       1.0  0.014770000000000073  0.4230000000000001  0.8553100000000002  1.0000
  O   O16       1.0  0.36791000000000007  0.48803000000000013  0.8019000000000001  1.0000
  O   O17       1.0  0.20928000000000005  0.3590300000000001  0.7864800000000002  1.0000
  O   O18       1.0  0.58985  0.43267999999999995  0.57678  1.0000
