data_image0
_chemical_formula_structural       Mn9H30C66N12O30
_chemical_formula_sum              "Mn9 H30 C66 N12 O30"
_cell_length_a       11.99898
_cell_length_b       13.26222
_cell_length_c       13.242350000000002
_cell_angle_alpha    111.38739999999999
_cell_angle_beta     107.57703
_cell_angle_gamma    107.51092

_symmetry_space_group_name_H-M    'P 1'
_symmetry_Int_Tables_number       1

loop_
  _symmetry_equiv_pos_as_xyz
  'x,y,z'

loop_
  _atom_site_type_symbol
  _atom_site_label
  _atom_site_symmetry_multiplicity
  _atom_site_fract_x
  _atom_site_fract_y
  _atom_site_fract_z
  _atom_site_occupancy
  Mn  Mn1       1.0  0.24496  0.77603  0.41301  1.0000
  Mn  Mn2       1.0  0.8312900000000002  0.5869  0.36339  1.0000
  Mn  Mn3       1.0  0.4695700000000001  0.63786  0.22472000000000003  1.0000
  Mn  Mn4       1.0  0.7554200000000002  0.22457000000000008  0.588  1.0000
  Mn  Mn5       1.0  0.16806000000000007  0.4132100000000001  0.63693  1.0000
  Mn  Mn6       1.0  0.5307600000000001  0.3626600000000001  0.7753700000000001  1.0000
  Mn  Mn7       1.0  0.49997  0.49996  0.50016  1.0000
  Mn  Mn8       1.0  0.9999600000000001  0.50016  0.0004  1.0000
  Mn  Mn9       1.0  0.00025999999999996875  6.999999999996171e-05  0.49984999999999996  1.0000
  H   H1        1.0  0.9881400000000001  0.8748500000000002  0.84004  1.0000
  H   H2        1.0  0.035750000000000066  0.5602100000000002  0.66268  1.0000
  H   H3        1.0  0.13123  0.9875100000000001  0.77504  1.0000
  H   H4        1.0  0.23521000000000003  0.89064  0.66144  1.0000
  H   H5        1.0  0.8699800000000002  0.6690800000000002  0.8082200000000002  1.0000
  H   H6        1.0  0.1489  0.16239000000000003  0.03613  1.0000
  H   H7        1.0  0.37269000000000013  0.33786  0.8974  1.0000
  H   H8        1.0  0.35758999999999985  0.22596000000000002  0.21332  1.0000
  H   H9        1.0  0.5745500000000001  0.34007000000000004  0.22987  1.0000
  H   H10       1.0  0.06171999999999999  0.19306999999999994  0.86228  1.0000
  H   H11       1.0  0.11542999999999999  0.96591  0.12441999999999999  1.0000
  H   H12       1.0  0.47749000000000014  0.10375  0.43986  1.0000
  H   H13       1.0  0.1456100000000001  0.7877300000000003  0.01174  1.0000
  H   H14       1.0  0.34499  0.7700600000000002  0.10973  1.0000
  H   H15       1.0  0.20423  0.14278000000000005  0.32719  1.0000
  H   H16       1.0  0.011860000000000006  0.12565  0.16044  1.0000
  H   H17       1.0  0.96324  0.43961  0.33732  1.0000
  H   H18       1.0  0.8679100000000002  0.012249999999999987  0.22435  1.0000
  H   H19       1.0  0.7635600000000001  0.10903000000000003  0.33787  1.0000
  H   H20       1.0  0.12959  0.33114  0.19203000000000003  1.0000
  H   H21       1.0  0.85051  0.83774  0.9635999999999999  1.0000
  H   H22       1.0  0.6266800000000001  0.6621300000000002  0.10224999999999998  1.0000
  H   H23       1.0  0.6417800000000001  0.77368  0.78624  1.0000
  H   H24       1.0  0.42486  0.65954  0.76965  1.0000
  H   H25       1.0  0.93765  0.80628  0.13717  1.0000
  H   H26       1.0  0.88435  0.03304000000000004  0.8746200000000001  1.0000
  H   H27       1.0  0.5219600000000001  0.89583  0.56004  1.0000
  H   H28       1.0  0.85534  0.21203000000000002  0.98746  1.0000
  H   H29       1.0  0.6558700000000002  0.23006000000000004  0.8901  1.0000
  H   H30       1.0  0.79452  0.85573  0.67162  1.0000
  C   C1        1.0  0.20365000000000003  0.65756  0.58849  1.0000
  C   C2        1.0  0.1437900000000001  0.7182300000000001  0.65399  1.0000
  C   C3        1.0  0.3897  0.63898  0.42314  1.0000
  C   C4        1.0  0.31457  0.61973  0.48804  1.0000
  C   C5        1.0  0.030470000000000053  0.8308800000000002  0.78689  1.0000
  C   C6        1.0  0.06093  0.65469  0.68853  1.0000
  C   C7        1.0  0.004580000000000126  0.7101100000000004  0.7545700000000001  1.0000
  C   C8        1.0  0.11162000000000001  0.89403  0.75074  1.0000
  C   C9        1.0  0.16858000000000004  0.8392000000000001  0.68502  1.0000
  C   C10       1.0  0.27217  0.52621  0.51399  1.0000
  C   C11       1.0  0.26793  0.40635000000000004  0.4678  1.0000
  C   C12       1.0  0.6148500000000001  0.41181  0.06905  1.0000
  C   C13       1.0  0.4897  0.34692  0.06448  1.0000
  C   C14       1.0  0.96617  0.57696  0.21687  1.0000
  C   C15       1.0  0.82619  0.51212  0.13221  1.0000
  C   C16       1.0  0.24425  0.21487000000000003  0.04507  1.0000
  C   C17       1.0  0.3721200000000001  0.3122800000000001  0.96629  1.0000
  C   C18       1.0  0.25008  0.24683000000000005  0.95615  1.0000
  C   C19       1.0  0.36175  0.25059  0.14415  1.0000
  C   C20       1.0  0.48403  0.31613  0.15477  1.0000
  C   C21       1.0  0.7579900000000003  0.48572000000000004  0.01222  1.0000
  C   C22       1.0  0.80007  0.5315  0.93832  1.0000
  C   C23       1.0  0.5473600000000001  0.93149  0.34318  1.0000
  C   C24       1.0  0.4267200000000001  0.9360200000000001  0.28223  1.0000
  C   C25       1.0  0.7511600000000003  0.7840400000000002  0.36184  1.0000
  C   C26       1.0  0.69611  0.86891  0.3813  1.0000
  C   C27       1.0  0.2014000000000002  0.9564900000000002  0.16851  1.0000
  C   C28       1.0  0.40768  0.034590000000000024  0.34543  1.0000
  C   C29       1.0  0.2961800000000001  0.045280000000000015  0.28948  1.0000
  C   C30       1.0  0.21914  0.8568100000000001  0.10564  1.0000
  C   C31       1.0  0.33040000000000014  0.8456300000000001  0.1611  1.0000
  C   C32       1.0  0.7474500000000002  0.98888  0.47475999999999996  1.0000
  C   C33       1.0  0.86299  0.06291999999999999  0.59503  1.0000
  C   C34       1.0  0.79572  0.3423000000000001  0.4116  1.0000
  C   C35       1.0  0.85526  0.2815100000000001  0.34578  1.0000
  C   C36       1.0  0.6104900000000001  0.36113000000000006  0.5776  1.0000
  C   C37       1.0  0.6852400000000001  0.38029  0.51243  1.0000
  C   C38       1.0  0.9689300000000001  0.16921  0.2131  1.0000
  C   C39       1.0  0.93812  0.34513  0.31133  1.0000
  C   C40       1.0  0.9948  0.2899999999999999  0.24555  1.0000
  C   C41       1.0  0.8874  0.10575000000000004  0.24876000000000004  1.0000
  C   C42       1.0  0.8302800000000002  0.16043000000000002  0.31438  1.0000
  C   C43       1.0  0.72738  0.47372000000000003  0.48625  1.0000
  C   C44       1.0  0.7318200000000001  0.5936  0.53276  1.0000
  C   C45       1.0  0.38455000000000006  0.58815  0.93101  1.0000
  C   C46       1.0  0.5095499999999998  0.65312  0.9352999999999999  1.0000
  C   C47       1.0  0.03348000000000003  0.4229700000000001  0.78387  1.0000
  C   C48       1.0  0.17338000000000006  0.48774  0.86844  1.0000
  C   C49       1.0  0.75515  0.7853300000000001  0.95472  1.0000
  C   C50       1.0  0.6272299999999998  0.68785  0.03348  1.0000
  C   C51       1.0  0.74926  0.7532700000000002  0.04351  1.0000
  C   C52       1.0  0.6376100000000001  0.7492600000000001  0.8555  1.0000
  C   C53       1.0  0.51532  0.68368  0.84492  1.0000
  C   C54       1.0  0.2419200000000001  0.51461  0.98855  1.0000
  C   C55       1.0  0.20010000000000003  0.46917  0.06275  1.0000
  C   C56       1.0  0.4528200000000001  0.06869  0.65701  1.0000
  C   C57       1.0  0.5732900000000001  0.06377000000000005  0.7178  1.0000
  C   C58       1.0  0.24915000000000007  0.21616000000000007  0.63793  1.0000
  C   C59       1.0  0.30433  0.13144999999999998  0.61867  1.0000
  C   C60       1.0  0.79842  0.042619999999999957  0.83077  1.0000
  C   C61       1.0  0.5919300000000001  0.9649999999999999  0.65441  1.0000
  C   C62       1.0  0.70337  0.9540100000000001  0.7098  1.0000
  C   C63       1.0  0.78123  0.14263  0.89384  1.0000
  C   C64       1.0  0.6700800000000001  0.15417  0.83879  1.0000
  C   C65       1.0  0.25275  0.01145999999999997  0.52523  1.0000
  C   C66       1.0  0.13722000000000012  0.9372900000000001  0.40487  1.0000
  N   N1        1.0  0.26724  0.69978  0.53159  1.0000
  N   N2        1.0  0.20400000000000004  0.55134  0.57857  1.0000
  N   N3        1.0  0.73516  0.46888  0.16858  1.0000
  N   N4        1.0  0.6252500000000001  0.42116000000000003  0.97242  1.0000
  N   N5        1.0  0.5686400000000003  0.8322800000000002  0.30122  1.0000
  N   N6        1.0  0.65419  0.02821999999999998  0.44931  1.0000
  N   N7        1.0  0.7327  0.30036  0.46897000000000005  1.0000
  N   N8        1.0  0.79518  0.44843  0.42135  1.0000
  N   N9        1.0  0.2640500000000002  0.53084  0.8317000000000001  1.0000
  N   N10       1.0  0.3745700000000001  0.57901  0.027880000000000002  1.0000
  N   N11       1.0  0.4317400000000001  0.16803  0.69882  1.0000
  N   N12       1.0  0.34592  0.97201  0.55087  1.0000
  O   O1        1.0  0.3788000000000001  0.70825  0.37744  1.0000
  O   O2        1.0  0.4665500000000001  0.5899  0.41258  1.0000
  O   O3        1.0  0.32075  0.37681  0.39572  1.0000
  O   O4        1.0  0.9273400000000003  0.6385  0.78374  1.0000
  O   O5        1.0  0.20495000000000002  0.33173000000000014  0.4937  1.0000
  O   O6        1.0  0.0008500000000000348  0.6224600000000001  0.33205  1.0000
  O   O7        1.0  0.05367000000000006  0.5877700000000001  0.17848  1.0000
  O   O8        1.0  0.92484  0.60387  0.98129  1.0000
  O   O9        1.0  0.14324000000000003  0.2180100000000001  0.85579  1.0000
  O   O10       1.0  0.71119  0.5055600000000002  0.8374700000000002  1.0000
  O   O11       1.0  0.6703900000000002  0.66914  0.29187  1.0000
  O   O12       1.0  0.87693  0.8218300000000001  0.4116099999999999  1.0000
  O   O13       1.0  0.9453100000000002  0.020339999999999987  0.62383  1.0000
  O   O14       1.0  0.29073  0.14656999999999998  0.36049  1.0000
  O   O15       1.0  0.8745100000000001  0.16344  0.67019  1.0000
  O   O16       1.0  0.6217800000000001  0.29226  0.62382  1.0000
  O   O17       1.0  0.53355  0.41009  0.58807  1.0000
  O   O18       1.0  0.67931  0.62274  0.60525  1.0000
  O   O19       1.0  0.07259  0.36194  0.21702  1.0000
  O   O20       1.0  0.79442  0.66842  0.50677  1.0000
  O   O21       1.0  0.9986  0.37722  0.66863  1.0000
  O   O22       1.0  0.9460900000000001  0.41255  0.8223700000000002  1.0000
  O   O23       1.0  0.07539  0.39656  0.01969  1.0000
  O   O24       1.0  0.85618  0.7822  0.14388  1.0000
  O   O25       1.0  0.28903  0.49601  0.16405  1.0000
  O   O26       1.0  0.3296200000000001  0.33110000000000006  0.70774  1.0000
  O   O27       1.0  0.12330000000000006  0.17801000000000008  0.58808  1.0000
  O   O28       1.0  0.054820000000000056  0.97964  0.37543  1.0000
  O   O29       1.0  0.70864  0.8529800000000001  0.63794  1.0000
  O   O30       1.0  0.12576999999999994  0.83652  0.33025  1.0000
