data_image0
_chemical_formula_structural       Cd4Si2H32C56O16
_chemical_formula_sum              "Cd4 Si2 H32 C56 O16"
_cell_length_a       13.19018
_cell_length_b       13.18882
_cell_length_c       15.495
_cell_angle_alpha    114.96
_cell_angle_beta     114.94683
_cell_angle_gamma    90.03277

_space_group_name_H-M_alt    "P 1"
_space_group_IT_number       1

loop_
  _space_group_symop_operation_xyz
  'x, y, z'

loop_
  _atom_site_type_symbol
  _atom_site_label
  _atom_site_symmetry_multiplicity
  _atom_site_fract_x
  _atom_site_fract_y
  _atom_site_fract_z
  _atom_site_occupancy
  Cd  Cd1       1.0  0.67165  0.39325  0.00139  1.0000
  Cd  Cd2       1.0  0.32835  0.60675  0.99861  1.0000
  Cd  Cd3       1.0  0.60729  0.67044  2.0000000000000005e-05  1.0000
  Cd  Cd4       1.0  0.39271  0.3295600000000001  0.9999800000000001  1.0000
  Si  Si1       1.0  0.24994999999999998  0.7507299999999999  0.50005  1.0000
  Si  Si2       1.0  0.7500599999999998  0.24926  0.49995000000000006  1.0000
  H   H1        1.0  0.15895  0.9594399999999997  0.50016  1.0000
  H   H2        1.0  0.9729199999999998  0.98695  0.38665  1.0000
  H   H3        1.0  0.81887  0.8179099999999999  0.23368  1.0000
  H   H4        1.0  0.039809999999999984  0.59309  0.30102  1.0000
  H   H5        1.0  0.34157  0.54269  0.50204  1.0000
  H   H6        1.0  0.41296000000000005  0.40041000000000004  0.3879100000000001  1.0000
  H   H7        1.0  0.41462  0.41521  0.23375000000000007  1.0000
  H   H8        1.0  0.26266  0.7086999999999999  0.3004200000000001  1.0000
  H   H9        1.0  0.54228  0.15977000000000002  0.5016000000000002  1.0000
  H   H10       1.0  0.40012999999999993  0.9749199999999999  0.38794  1.0000
  H   H11       1.0  0.4155599999999999  0.8200699999999997  0.23414  1.0000
  H   H12       1.0  0.70917  0.03833  0.3009  1.0000
  H   H13       1.0  0.9590799999999998  0.34092  0.50026  1.0000
  H   H14       1.0  0.9865199999999997  0.4137199999999999  0.3862400000000001  1.0000
  H   H15       1.0  0.8179  0.4155599999999999  0.23308  1.0000
  H   H16       1.0  0.59281  0.26128000000000007  0.30041000000000007  1.0000
  H   H17       1.0  0.84105  0.040549999999999996  0.49984  1.0000
  H   H18       1.0  0.02708000000000001  0.013039999999999977  0.61335  1.0000
  H   H19       1.0  0.18113999999999997  0.18209000000000003  0.7663200000000001  1.0000
  H   H20       1.0  0.96019  0.4069100000000001  0.6989700000000001  1.0000
  H   H21       1.0  0.65843  0.4573  0.4979600000000001  1.0000
  H   H22       1.0  0.58704  0.59959  0.61208  1.0000
  H   H23       1.0  0.5853900000000001  0.58479  0.7662400000000001  1.0000
  H   H24       1.0  0.73734  0.2913  0.69957  1.0000
  H   H25       1.0  0.4577199999999999  0.84023  0.4984  1.0000
  H   H26       1.0  0.5998799999999999  0.025079999999999936  0.61206  1.0000
  H   H27       1.0  0.58445  0.17993000000000015  0.7658500000000003  1.0000
  H   H28       1.0  0.29084  0.9616699999999998  0.6991  1.0000
  H   H29       1.0  0.04092000000000004  0.6590699999999999  0.4997300000000001  1.0000
  H   H30       1.0  0.013480000000000054  0.5862699999999997  0.61376  1.0000
  H   H31       1.0  0.1821  0.58444  0.76691  1.0000
  H   H32       1.0  0.40719  0.7387199999999998  0.69959  1.0000
  C   C1        1.0  0.11314000000000003  0.77443  0.4110400000000001  1.0000
  C   C2        1.0  0.09232000000000005  0.8850300000000001  0.43269000000000013  1.0000
  C   C3        1.0  0.98757  0.9007999999999999  0.36866  1.0000
  C   C4        1.0  0.9013399999999998  0.80626  0.28237000000000007  1.0000
  C   C5        1.0  0.92057  0.6951399999999998  0.25830000000000003  1.0000
  C   C6        1.0  0.026510000000000002  0.68005  0.32217  1.0000
  C   C7        1.0  0.82895  0.59329  0.16699  1.0000
  C   C8        1.0  0.29861000000000004  0.6379899999999998  0.41164000000000006  1.0000
  C   C9        1.0  0.34071000000000007  0.5491299999999999  0.4339200000000001  1.0000
  C   C10       1.0  0.3810499999999999  0.4687399999999999  0.36964  1.0000
  C   C11       1.0  0.38128  0.47635  0.28263000000000005  1.0000
  C   C12       1.0  0.33854  0.56351  0.25813  1.0000
  C   C13       1.0  0.29668000000000005  0.64295  0.3221400000000001  1.0000
  C   C14       1.0  0.33852  0.57391  0.16610000000000005  1.0000
  C   C15       1.0  0.63783  0.11258000000000004  0.41154000000000013  1.0000
  C   C16       1.0  0.54883  0.09276000000000001  0.43372  1.0000
  C   C17       1.0  0.4685500000000001  0.98861  0.36971000000000004  1.0000
  C   C18       1.0  0.4764899999999999  0.90201  0.28299  1.0000
  C   C19       1.0  0.56368  0.92027  0.25841  1.0000
  C   C20       1.0  0.64318  0.025619999999999966  0.3223  1.0000
  C   C21       1.0  0.57314  0.82836  0.16607  1.0000
  C   C22       1.0  0.7741  0.2974999999999999  0.41084  1.0000
  C   C23       1.0  0.8846600000000001  0.3401  0.43254000000000004  1.0000
  C   C24       1.0  0.90043  0.38108  0.36828  1.0000
  C   C25       1.0  0.8060099999999999  0.38152  0.2818300000000001  1.0000
  C   C26       1.0  0.6949699999999999  0.3383699999999999  0.25797  1.0000
  C   C27       1.0  0.6798600000000001  0.2957  0.3218100000000001  1.0000
  C   C28       1.0  0.59294  0.33938  0.16697  1.0000
  C   C29       1.0  0.8868699999999999  0.22557  0.5889500000000001  1.0000
  C   C30       1.0  0.90769  0.11497000000000004  0.5673000000000001  1.0000
  C   C31       1.0  0.012430000000000054  0.09919000000000008  0.6313300000000001  1.0000
  C   C32       1.0  0.09867000000000004  0.19374000000000005  0.71762  1.0000
  C   C33       1.0  0.07942999999999995  0.30485  0.7417  1.0000
  C   C34       1.0  0.9734899999999997  0.31993999999999995  0.67782  1.0000
  C   C35       1.0  0.1710500000000001  0.40670999999999996  0.8330100000000003  1.0000
  C   C36       1.0  0.7014  0.36200999999999994  0.58836  1.0000
  C   C37       1.0  0.65929  0.45087  0.56608  1.0000
  C   C38       1.0  0.6189499999999999  0.5312599999999997  0.63035  1.0000
  C   C39       1.0  0.6187199999999999  0.52364  0.7173600000000002  1.0000
  C   C40       1.0  0.6614699999999999  0.4364899999999999  0.74186  1.0000
  C   C41       1.0  0.7033199999999998  0.3570499999999999  0.67786  1.0000
  C   C42       1.0  0.6614799999999997  0.42609000000000014  0.8339000000000002  1.0000
  C   C43       1.0  0.3621699999999999  0.8874199999999998  0.58845  1.0000
  C   C44       1.0  0.45117  0.9072399999999999  0.56627  1.0000
  C   C45       1.0  0.5314499999999999  0.011389999999999944  0.63028  1.0000
  C   C46       1.0  0.52351  0.09799000000000005  0.717  1.0000
  C   C47       1.0  0.43633  0.07971999999999992  0.74158  1.0000
  C   C48       1.0  0.35681999999999997  0.97437  0.6776900000000001  1.0000
  C   C49       1.0  0.42686  0.17162999999999992  0.83392  1.0000
  C   C50       1.0  0.22590000000000005  0.7025  0.5891600000000001  1.0000
  C   C51       1.0  0.11535000000000004  0.6599  0.5674600000000001  1.0000
  C   C52       1.0  0.09958000000000004  0.61892  0.63172  1.0000
  C   C53       1.0  0.19399  0.61848  0.71816  1.0000
  C   C54       1.0  0.30503000000000013  0.6616199999999998  0.7420300000000002  1.0000
  C   C55       1.0  0.3201399999999999  0.7042900000000001  0.6781800000000002  1.0000
  C   C56       1.0  0.40706  0.66062  0.83303  1.0000
  O   O1        1.0  0.8514499999999998  0.4937499999999999  0.14291  1.0000
  O   O2        1.0  0.72733  0.60541  0.11545  1.0000
  O   O3        1.0  0.29198  0.64937  0.14178  1.0000
  O   O4        1.0  0.38820999999999994  0.5101  0.11388000000000001  1.0000
  O   O5        1.0  0.64878  0.8495999999999998  0.14137  1.0000
  O   O6        1.0  0.50814  0.7276099999999999  0.11411000000000002  1.0000
  O   O7        1.0  0.4935  0.29288  0.14300000000000002  1.0000
  O   O8        1.0  0.60468  0.3899  0.11526000000000002  1.0000
  O   O9        1.0  0.14856  0.50625  0.85709  1.0000
  O   O10       1.0  0.27267000000000013  0.3945900000000001  0.8845500000000002  1.0000
  O   O11       1.0  0.7080299999999999  0.35061999999999993  0.85821  1.0000
  O   O12       1.0  0.61179  0.4899  0.88611  1.0000
  O   O13       1.0  0.35121999999999975  0.1503899999999999  0.85863  1.0000
  O   O14       1.0  0.4918600000000001  0.27239  0.8858900000000002  1.0000
  O   O15       1.0  0.5065000000000001  0.7071199999999999  0.8569900000000003  1.0000
  O   O16       1.0  0.39532000000000006  0.6101000000000001  0.8847400000000002  1.0000
