data_image0
_chemical_formula_structural       Gd4H28C60O28
_chemical_formula_sum              "Gd4 H28 C60 O28"
_cell_length_a       4.33083
_cell_length_b       11.902190000000001
_cell_length_c       24.21017
_cell_angle_alpha    90.05957
_cell_angle_beta     96.46396
_cell_angle_gamma    89.95141000000001

_symmetry_space_group_name_H-M    'P 1'
_symmetry_Int_Tables_number       1

loop_
  _symmetry_equiv_pos_as_xyz
  'x,y,z'

loop_
  _atom_site_type_symbol
  _atom_site_label
  _atom_site_symmetry_multiplicity
  _atom_site_fract_x
  _atom_site_fract_y
  _atom_site_fract_z
  _atom_site_occupancy
  Gd  Gd1       1.0  0.39352  0.13382  0.04903  1.0000
  Gd  Gd2       1.0  0.1048399999999999  0.63535  0.4515199999999999  1.0000
  Gd  Gd3       1.0  0.60649  0.86618  0.95097  1.0000
  Gd  Gd4       1.0  0.89517  0.3646499999999999  0.54848  1.0000
  H   H1        1.0  0.24414  0.55506  0.07669  1.0000
  H   H2        1.0  0.8448899999999998  0.49098  0.13599999999999998  1.0000
  H   H3        1.0  0.49041999999999997  0.63256  0.17272999999999997  1.0000
  H   H4        1.0  0.75575  0.73061  0.25621  1.0000
  H   H5        1.0  0.049079999999999936  0.8582  0.3483299999999999  1.0000
  H   H6        1.0  0.8341  0.9768100000000001  0.2667999999999999  1.0000
  H   H7        1.0  0.09409  0.96969  0.18016  1.0000
  H   H8        1.0  0.2528499999999999  0.05592  0.42151999999999995  1.0000
  H   H9        1.0  0.65355  0.9926999999999999  0.36223  1.0000
  H   H10       1.0  0.009119999999999986  0.13474  0.3267  1.0000
  H   H11       1.0  0.7427599999999998  0.23149999999999998  0.24498  1.0000
  H   H12       1.0  0.4443999999999999  0.35616  0.15111  1.0000
  H   H13       1.0  0.6618099999999999  0.47655  0.23194999999999996  1.0000
  H   H14       1.0  0.40803999999999996  0.4712100000000001  0.3191399999999999  1.0000
  H   H15       1.0  0.7558799999999999  0.44494  0.9233099999999999  1.0000
  H   H16       1.0  0.15512999999999982  0.50902  0.8639999999999999  1.0000
  H   H17       1.0  0.5095999999999999  0.36744  0.82727  1.0000
  H   H18       1.0  0.24426  0.26938  0.7438  1.0000
  H   H19       1.0  0.9509399999999999  0.14179  0.65167  1.0000
  H   H20       1.0  0.16592  0.02319  0.7332  1.0000
  H   H21       1.0  0.90592  0.030310000000000004  0.81984  1.0000
  H   H22       1.0  0.74716  0.94408  0.57848  1.0000
  H   H23       1.0  0.34647  0.007299999999999999  0.63778  1.0000
  H   H24       1.0  0.9908899999999999  0.86525  0.6733  1.0000
  H   H25       1.0  0.25724999999999976  0.7684999999999998  0.7550199999999999  1.0000
  H   H26       1.0  0.5555899999999998  0.64383  0.8488899999999998  1.0000
  H   H27       1.0  0.3381899999999999  0.52344  0.76805  1.0000
  H   H28       1.0  0.59198  0.52879  0.68086  1.0000
  C   C1        1.0  0.72459  0.77279  0.14023  1.0000
  C   C2        1.0  0.9219299999999997  0.8081200000000001  0.10182  1.0000
  C   C3        1.0  0.10077  0.72745  0.07782  1.0000
  C   C4        1.0  0.08467999999999999  0.61389  0.09285999999999998  1.0000
  C   C5        1.0  0.86588  0.57942  0.12646  1.0000
  C   C6        1.0  0.6724000000000001  0.65796  0.14799  1.0000
  C   C7        1.0  0.9010799999999998  0.9263899999999999  0.08003  1.0000
  C   C8        1.0  0.2567  0.76029  0.0288  1.0000
  C   C9        1.0  0.4257699999999998  0.8477  0.21241  1.0000
  C   C10       1.0  0.5728299999999998  0.79147  0.25959999999999994  1.0000
  C   C11       1.0  0.4285599999999999  0.79887  0.3092  1.0000
  C   C12       1.0  0.15855999999999995  0.86088  0.31034  1.0000
  C   C13       1.0  0.022690000000000005  0.91802  0.26357  1.0000
  C   C14       1.0  0.16989999999999997  0.91571  0.215  1.0000
  C   C15       1.0  0.54434  0.7422300000000001  0.36229  1.0000
  C   C16       1.0  0.7742099999999998  0.27477  0.35959  1.0000
  C   C17       1.0  0.57469  0.30963  0.39779  1.0000
  C   C18       1.0  0.3951199999999999  0.22834  0.4211099999999999  1.0000
  C   C19       1.0  0.41235  0.11500999999999999  0.40569  1.0000
  C   C20       1.0  0.6321  0.08097  0.37216  1.0000
  C   C21       1.0  0.8258799999999997  0.15993  0.3512199999999999  1.0000
  C   C22       1.0  0.5930599999999999  0.4279200000000001  0.41996  1.0000
  C   C23       1.0  0.23733999999999997  0.25982  0.47008  1.0000
  C   C24       1.0  0.07370999999999997  0.34935  0.28787  1.0000
  C   C25       1.0  0.9247999999999998  0.29224  0.2411  1.0000
  C   C26       1.0  0.06689000000000002  0.29764  0.19122  1.0000
  C   C27       1.0  0.33634  0.35941  0.18926  1.0000
  C   C28       1.0  0.47398  0.41779  0.23564999999999997  1.0000
  C   C29       1.0  0.3291699999999999  0.41689000000000004  0.28453  1.0000
  C   C30       1.0  0.94612  0.23888  0.13894  1.0000
  C   C31       1.0  0.27542  0.22721  0.85977  1.0000
  C   C32       1.0  0.07806999999999994  0.19188  0.8981799999999999  1.0000
  C   C33       1.0  0.89924  0.27255  0.92218  1.0000
  C   C34       1.0  0.91533  0.38611000000000006  0.90714  1.0000
  C   C35       1.0  0.13413999999999984  0.42058  0.8735399999999999  1.0000
  C   C36       1.0  0.32762  0.34204  0.85201  1.0000
  C   C37       1.0  0.09893  0.07361  0.91997  1.0000
  C   C38       1.0  0.7433099999999998  0.23972  0.9712099999999998  1.0000
  C   C39       1.0  0.5742499999999999  0.1523  0.7875899999999999  1.0000
  C   C40       1.0  0.4271900000000001  0.20852  0.7404  1.0000
  C   C41       1.0  0.5714499999999998  0.20112999999999998  0.6907999999999999  1.0000
  C   C42       1.0  0.8414599999999998  0.13912  0.68966  1.0000
  C   C43       1.0  0.9773199999999997  0.08198  0.7364299999999999  1.0000
  C   C44       1.0  0.8301099999999996  0.08429  0.7849999999999998  1.0000
  C   C45       1.0  0.4556699999999999  0.25777  0.63771  1.0000
  C   C46       1.0  0.2258099999999999  0.7252299999999999  0.6404199999999999  1.0000
  C   C47       1.0  0.42533  0.69037  0.60221  1.0000
  C   C48       1.0  0.6048999999999998  0.77165  0.57889  1.0000
  C   C49       1.0  0.58767  0.8849900000000002  0.59431  1.0000
  C   C50       1.0  0.36791  0.91902  0.62784  1.0000
  C   C51       1.0  0.1741399999999999  0.84007  0.64878  1.0000
  C   C52       1.0  0.40696  0.57208  0.58004  1.0000
  C   C53       1.0  0.7626799999999998  0.74018  0.5299199999999998  1.0000
  C   C54       1.0  0.9263  0.65064  0.71213  1.0000
  C   C55       1.0  0.07520999999999999  0.7077500000000001  0.75891  1.0000
  C   C56       1.0  0.9331099999999999  0.70235  0.80879  1.0000
  C   C57       1.0  0.6636499999999999  0.64059  0.8107399999999998  1.0000
  C   C58       1.0  0.52602  0.58221  0.7643499999999999  1.0000
  C   C59       1.0  0.6708399999999999  0.58311  0.7154699999999999  1.0000
  C   C60       1.0  0.05387999999999998  0.76111  0.86106  1.0000
  O   O1        1.0  0.5662  0.8569800000000001  0.1635  1.0000
  O   O2        1.0  0.6510899999999997  0.94996  0.04742  1.0000
  O   O3        1.0  0.11415000000000002  0.99629  0.09392999999999999  1.0000
  O   O4        1.0  0.49126999999999993  0.7109  0.01395  1.0000
  O   O5        1.0  0.12821  0.8448400000000001  0.00022  1.0000
  O   O6        1.0  0.3822199999999999  0.75994  0.40282  1.0000
  O   O7        1.0  0.7904  0.68161  0.3665  1.0000
  O   O8        1.0  0.93653  0.35898  0.33712  1.0000
  O   O9        1.0  0.84161  0.4519699999999999  0.45276999999999995  1.0000
  O   O10       1.0  0.37898999999999994  0.4976  0.40611  1.0000
  O   O11       1.0  0.9998  0.21103  0.48385  1.0000
  O   O12       1.0  0.3665099999999999  0.34268000000000004  0.49983  1.0000
  O   O13       1.0  0.10251999999999999  0.25461  0.09748999999999997  1.0000
  O   O14       1.0  0.69993  0.17863999999999997  0.13608  1.0000
  O   O15       1.0  0.4338199999999998  0.14301  0.8364999999999999  1.0000
  O   O16       1.0  0.34891999999999995  0.05005  0.95258  1.0000
  O   O17       1.0  0.8858699999999998  0.0037099999999999998  0.90607  1.0000
  O   O18       1.0  0.5087599999999999  0.28912  0.98605  1.0000
  O   O19       1.0  0.8717899999999997  0.15516  0.99978  1.0000
  O   O20       1.0  0.6177799999999998  0.24006  0.59718  1.0000
  O   O21       1.0  0.20961  0.31838  0.6335  1.0000
  O   O22       1.0  0.06349  0.64102  0.66288  1.0000
  O   O23       1.0  0.15839999999999996  0.54802  0.54723  1.0000
  O   O24       1.0  0.62102  0.5024  0.59389  1.0000
  O   O25       1.0  0.00021000000000000584  0.78897  0.51614  1.0000
  O   O26       1.0  0.6334899999999998  0.65732  0.50017  1.0000
  O   O27       1.0  0.8974699999999998  0.74537  0.90252  1.0000
  O   O28       1.0  0.30006999999999984  0.82135  0.8639199999999999  1.0000
