data_image0
_chemical_formula_structural       Eu4P4H28C32N4O32
_chemical_formula_sum              "Eu4 P4 H28 C32 N4 O32"
_cell_length_a       9.9855
_cell_length_b       10.68464
_cell_length_c       15.745779999999998
_cell_angle_alpha    89.91067
_cell_angle_beta     99.67284
_cell_angle_gamma    89.99953999999998

_space_group_name_H-M_alt    "P 1"
_space_group_IT_number       1

loop_
  _space_group_symop_operation_xyz
  'x, y, z'

loop_
  _atom_site_type_symbol
  _atom_site_label
  _atom_site_symmetry_multiplicity
  _atom_site_fract_x
  _atom_site_fract_y
  _atom_site_fract_z
  _atom_site_occupancy
  Eu  Eu1       1.0  0.22246999999999995  0.11435000000000001  0.3961199999999999  1.0000
  Eu  Eu2       1.0  0.27718  0.6148  0.10377  1.0000
  Eu  Eu3       1.0  0.7768099999999999  0.88761  0.60363  1.0000
  Eu  Eu4       1.0  0.72286  0.38591000000000003  0.8967999999999998  1.0000
  P   P1        1.0  0.16892  0.8634700000000001  0.23083  1.0000
  P   P2        1.0  0.33127  0.36371  0.2696  1.0000
  P   P3        1.0  0.8308999999999999  0.13817  0.7690099999999997  1.0000
  P   P4        1.0  0.66544  0.63725  0.73034  1.0000
  H   H1        1.0  0.3322499999999999  0.8843300000000001  0.9275999999999998  1.0000
  H   H2        1.0  0.39865  0.11463  0.9304  1.0000
  H   H3        1.0  0.30191999999999997  0.25822  0.03121  1.0000
  H   H4        1.0  0.1481  0.16865  0.12587  1.0000
  H   H5        1.0  0.009299999999999992  0.84354  0.09790999999999997  1.0000
  H   H6        1.0  0.9952300000000001  0.9911400000000001  0.15047  1.0000
  H   H7        1.0  0.04218999999999997  0.8424000000000001  0.3288999999999999  1.0000
  H   H8        1.0  0.16755  0.38461  0.57343  1.0000
  H   H9        1.0  0.10135999999999994  0.61496  0.5698199999999998  1.0000
  H   H10       1.0  0.19808999999999993  0.7580400000000002  0.4684599999999999  1.0000
  H   H11       1.0  0.3518  0.6677  0.37404  1.0000
  H   H12       1.0  0.49  0.3429  0.40271  1.0000
  H   H13       1.0  0.50501  0.49108000000000007  0.35076  1.0000
  H   H14       1.0  0.45851  0.34446  0.17208999999999994  1.0000
  H   H15       1.0  0.66832  0.11543  0.07275999999999998  1.0000
  H   H16       1.0  0.60178  0.88518  0.06965  1.0000
  H   H17       1.0  0.69819  0.74193  0.96847  1.0000
  H   H18       1.0  0.85189  0.83179  0.8738799999999999  1.0000
  H   H19       1.0  0.99061  0.15699  0.90193  1.0000
  H   H20       1.0  0.004179999999999966  0.00949  0.8491199999999998  1.0000
  H   H21       1.0  0.95846  0.16006  0.6717799999999998  1.0000
  H   H22       1.0  0.8319500000000001  0.61603  0.4269399999999999  1.0000
  H   H23       1.0  0.89854  0.38592  0.43026  1.0000
  H   H24       1.0  0.80184  0.24225  0.5313099999999997  1.0000
  H   H25       1.0  0.64844  0.3321  0.62604  1.0000
  H   H26       1.0  0.50755  0.65553  0.5972  1.0000
  H   H27       1.0  0.49427999999999994  0.50706  0.64897  1.0000
  H   H28       1.0  0.5402599999999997  0.6581900000000002  0.8288899999999998  1.0000
  C   C1        1.0  0.29422999999999994  0.95453  0.9674099999999998  1.0000
  C   C2        1.0  0.32881  0.07979  0.97101  1.0000
  C   C3        1.0  0.27526  0.15952  0.02745999999999999  1.0000
  C   C4        1.0  0.1883  0.11020000000000002  0.07942  1.0000
  C   C5        1.0  0.15277  0.98384  0.0751  1.0000
  C   C6        1.0  0.06579  0.92283  0.13056999999999994  1.0000
  C   C7        1.0  0.54347  0.038  0.4670399999999999  1.0000
  C   C8        1.0  0.0065399999999999365  0.06164  0.5269599999999998  1.0000
  C   C9        1.0  0.2055899999999999  0.45454000000000006  0.5333199999999998  1.0000
  C   C10       1.0  0.17116000000000003  0.57986  0.5293  1.0000
  C   C11       1.0  0.22469999999999996  0.65932  0.4725499999999999  1.0000
  C   C12       1.0  0.31147  0.60957  0.42071  1.0000
  C   C13       1.0  0.34664  0.48314  0.4253399999999999  1.0000
  C   C14       1.0  0.43400000000000005  0.42255  0.3699899999999999  1.0000
  C   C15       1.0  0.95599  0.53561  0.03371  1.0000
  C   C16       1.0  0.49590999999999996  0.56243  0.9735999999999998  1.0000
  C   C17       1.0  0.706  0.0454  0.032669999999999984  1.0000
  C   C18       1.0  0.67148  0.92014  0.02898  1.0000
  C   C19       1.0  0.72492  0.84063  0.9723699999999997  1.0000
  C   C20       1.0  0.81167  0.89019  0.92034  1.0000
  C   C21       1.0  0.84694  0.01664  0.9245899999999998  1.0000
  C   C22       1.0  0.93386  0.07796  0.8691199999999998  1.0000
  C   C23       1.0  0.4552399999999999  0.9654300000000001  0.53321  1.0000
  C   C24       1.0  0.99406  0.93851  0.47323  1.0000
  C   C25       1.0  0.79417  0.54602  0.4670899999999999  1.0000
  C   C26       1.0  0.82882  0.4207700000000001  0.4708999999999999  1.0000
  C   C27       1.0  0.77543  0.34101  0.52753  1.0000
  C   C28       1.0  0.68865  0.39048000000000005  0.57945  1.0000
  C   C29       1.0  0.65294  0.51683  0.57485  1.0000
  C   C30       1.0  0.5645999999999999  0.57649  0.6299499999999998  1.0000
  C   C31       1.0  0.044559999999999954  0.46043000000000006  0.9687599999999997  1.0000
  C   C32       1.0  0.50758  0.4405800000000001  0.028579999999999994  1.0000
  N   N1        1.0  0.20746999999999996  0.90795  0.01855  1.0000
  N   N2        1.0  0.29230999999999996  0.40745  0.48232999999999987  1.0000
  N   N3        1.0  0.7924399999999998  0.09222999999999999  0.9813999999999998  1.0000
  N   N4        1.0  0.7073799999999998  0.59291  0.5181099999999997  1.0000
  O   O1        1.0  0.22705999999999998  0.97621  0.28291  1.0000
  O   O2        1.0  0.06087  0.7926000000000001  0.27717  1.0000
  O   O3        1.0  0.27392  0.77291  0.20694999999999994  1.0000
  O   O4        1.0  0.17392  0.7888199999999999  0.012169999999999997  1.0000
  O   O5        1.0  0.66941  0.02156  0.48477  1.0000
  O   O6        1.0  0.47344  0.09968  0.4084599999999999  1.0000
  O   O7        1.0  0.059859999999999976  0.15603  0.49784  1.0000
  O   O8        1.0  0.9589899999999999  0.05593000000000001  0.59724  1.0000
  O   O9        1.0  0.27273  0.47586  0.21673999999999993  1.0000
  O   O10       1.0  0.43852  0.29262  0.22271999999999995  1.0000
  O   O11       1.0  0.22632  0.2739  0.29456  1.0000
  O   O12       1.0  0.32611  0.28837  0.4894499999999999  1.0000
  O   O13       1.0  0.8301799999999999  0.5189  0.01693  1.0000
  O   O14       1.0  0.026599999999999995  0.59978  0.0905  1.0000
  O   O15       1.0  0.4393  0.65649  0.00032  1.0000
  O   O16       1.0  0.5470299999999998  0.5563200000000001  0.9046399999999998  1.0000
  O   O17       1.0  0.7731399999999999  0.025120000000000007  0.7170899999999998  1.0000
  O   O18       1.0  0.93834  0.21068  0.72268  1.0000
  O   O19       1.0  0.7261  0.22889  0.79301  1.0000
  O   O20       1.0  0.8259499999999999  0.21133  0.9879199999999998  1.0000
  O   O21       1.0  0.32907999999999993  0.98023  0.51512  1.0000
  O   O22       1.0  0.5262499999999999  0.90593  0.5925499999999998  1.0000
  O   O23       1.0  0.94033  0.84417  0.50213  1.0000
  O   O24       1.0  0.04193999999999996  0.9443000000000001  0.4030499999999999  1.0000
  O   O25       1.0  0.72656  0.5259000000000001  0.78339  1.0000
  O   O26       1.0  0.5547399999999999  0.70643  0.7754999999999997  1.0000
  O   O27       1.0  0.7676199999999999  0.73037  0.7056399999999998  1.0000
  O   O28       1.0  0.6735500000000001  0.71199  0.51085  1.0000
  O   O29       1.0  0.1708  0.47453  0.98728  1.0000
  O   O30       1.0  0.97378  0.39992  0.91003  1.0000
  O   O31       1.0  0.55952  0.3448800000000001  0.00032  1.0000
  O   O32       1.0  0.4604  0.44917  0.09897  1.0000
