data_image0
_chemical_formula_structural       Zn2H44C68N8O8
_chemical_formula_sum              "Zn2 H44 C68 N8 O8"
_cell_length_a       11.55436
_cell_length_b       15.20869
_cell_length_c       15.26453
_cell_angle_alpha    111.82721000000001
_cell_angle_beta     96.46535
_cell_angle_gamma    98.51027

_space_group_name_H-M_alt    "P 1"
_space_group_IT_number       1

loop_
  _space_group_symop_operation_xyz
  'x, y, z'

loop_
  _atom_site_type_symbol
  _atom_site_label
  _atom_site_symmetry_multiplicity
  _atom_site_fract_x
  _atom_site_fract_y
  _atom_site_fract_z
  _atom_site_occupancy
  Zn  Zn1       1.0  0.3509  0.14039999999999994  0.73257  1.0000
  Zn  Zn2       1.0  0.6491  0.8596  0.26743  1.0000
  H   H1        1.0  0.33766999999999997  0.6654499999999999  0.64786  1.0000
  H   H2        1.0  0.34415  0.22813000000000003  0.19561  1.0000
  H   H3        1.0  0.44994  0.47149  0.05702  1.0000
  H   H4        1.0  0.3926600000000002  0.28562  0.34653  1.0000
  H   H5        1.0  0.31740000000000007  0.8363  0.7066000000000001  1.0000
  H   H6        1.0  0.8029  0.3027099999999999  0.80002  1.0000
  H   H7        1.0  0.32195  0.65623  0.36154  1.0000
  H   H8        1.0  0.88944  0.031129999999999998  0.58859  1.0000
  H   H9        1.0  0.3226  0.51929  0.5872599999999999  1.0000
  H   H10       1.0  0.97932  0.27315999999999996  0.8636999999999999  1.0000
  H   H11       1.0  0.7356  0.9913399999999996  0.6581  1.0000
  H   H12       1.0  0.37353  0.19951  0.41969  1.0000
  H   H13       1.0  0.30084  0.82924  0.42269  1.0000
  H   H14       1.0  0.42799  0.52531  0.22823  1.0000
  H   H15       1.0  0.36204  0.17494999999999997  0.02444  1.0000
  H   H16       1.0  0.5840699999999999  0.2889299999999999  0.7988799999999999  1.0000
  H   H17       1.0  0.5200200000000001  0.99048  0.66161  1.0000
  H   H18       1.0  0.10884999999999996  0.03362999999999996  0.5961699999999999  1.0000
  H   H19       1.0  0.34764  0.44860999999999995  0.66863  1.0000
  H   H20       1.0  0.3711  0.10692  0.5234  1.0000
  H   H21       1.0  0.3510500000000001  0.34608  0.76092  1.0000
  H   H22       1.0  0.19257  0.26811  0.85772  1.0000
  H   H23       1.0  0.66233  0.33455  0.35214  1.0000
  H   H24       1.0  0.65585  0.77187  0.80439  1.0000
  H   H25       1.0  0.55005  0.52851  0.94298  1.0000
  H   H26       1.0  0.6073300000000003  0.71438  0.65347  1.0000
  H   H27       1.0  0.6826  0.1637  0.2934  1.0000
  H   H28       1.0  0.1971  0.69729  0.19998  1.0000
  H   H29       1.0  0.67805  0.34377  0.63846  1.0000
  H   H30       1.0  0.11055999999999995  0.96887  0.41141  1.0000
  H   H31       1.0  0.6774000000000001  0.48071  0.41274  1.0000
  H   H32       1.0  0.020679999999999994  0.72684  0.1363  1.0000
  H   H33       1.0  0.2644000000000001  0.008659999999999998  0.3419  1.0000
  H   H34       1.0  0.6264600000000002  0.80049  0.58031  1.0000
  H   H35       1.0  0.69915  0.17076  0.57731  1.0000
  H   H36       1.0  0.57201  0.47469000000000006  0.77177  1.0000
  H   H37       1.0  0.63796  0.82505  0.97556  1.0000
  H   H38       1.0  0.4159300000000001  0.71107  0.20112  1.0000
  H   H39       1.0  0.47998000000000013  0.009520000000000002  0.33839  1.0000
  H   H40       1.0  0.89115  0.9663699999999998  0.40383  1.0000
  H   H41       1.0  0.65236  0.55139  0.33137  1.0000
  H   H42       1.0  0.6289  0.89308  0.4766  1.0000
  H   H43       1.0  0.64894  0.6539199999999998  0.23907999999999996  1.0000
  H   H44       1.0  0.8074300000000002  0.73189  0.14228  1.0000
  C   C1        1.0  0.32864  0.69958  0.59696  1.0000
  C   C2        1.0  0.36896  0.2823  0.16682999999999998  1.0000
  C   C3        1.0  0.4265799999999999  0.41834999999999994  0.08759  1.0000
  C   C4        1.0  0.37469  0.3577  0.37978  1.0000
  C   C5        1.0  0.31758  0.7961299999999999  0.63096  1.0000
  C   C6        1.0  0.74367  0.23187  0.76979  1.0000
  C   C7        1.0  0.916  0.15043  0.72722  1.0000
  C   C8        1.0  0.32973  0.64753  0.49911  1.0000
  C   C9        1.0  0.3197  0.69578  0.43673  1.0000
  C   C10       1.0  0.35683  0.39343  0.47514  1.0000
  C   C11       1.0  0.38645999999999986  0.3816  0.22529  1.0000
  C   C12       1.0  0.34274000000000004  0.54504  0.45972  1.0000
  C   C13       1.0  0.78811  0.1475  0.72908  1.0000
  C   C14       1.0  0.95408  0.08285999999999999  0.65064  1.0000
  C   C15       1.0  0.33914000000000005  0.48864  0.51449  1.0000
  C   C16       1.0  0.0035799999999999886  0.21931  0.80234  1.0000
  C   C17       1.0  0.35775  0.33387  0.53319  1.0000
  C   C18       1.0  0.70588  0.05901999999999996  0.68944  1.0000
  C   C19       1.0  0.40681  0.31917999999999996  0.029549999999999996  1.0000
  C   C20       1.0  0.3663600000000001  0.23597999999999997  0.49447  1.0000
  C   C21       1.0  0.30809000000000003  0.79171  0.47052  1.0000
  C   C22       1.0  0.37234999999999996  0.41662999999999994  0.3274599999999999  1.0000
  C   C23       1.0  0.41537000000000013  0.44869  0.1837  1.0000
  C   C24       1.0  0.37835  0.25162  0.07026  1.0000
  C   C25       1.0  0.6218500000000001  0.22494999999999996  0.76789  1.0000
  C   C26       1.0  0.29714  0.94736  0.6014999999999999  1.0000
  C   C27       1.0  0.3066  0.84304  0.56777  1.0000
  C   C28       1.0  0.58567  0.058109999999999974  0.6908099999999999  1.0000
  C   C29       1.0  0.07538  0.08503000000000001  0.65374  1.0000
  C   C30       1.0  0.41056000000000004  0.28583  0.92414  1.0000
  C   C31       1.0  0.35123000000000004  0.37307000000000007  0.6311900000000001  1.0000
  C   C32       1.0  0.3668  0.18319  0.55184  1.0000
  C   C33       1.0  0.35203  0.31618  0.68421  1.0000
  C   C34       1.0  0.12295000000000003  0.21652000000000005  0.79963  1.0000
  C   C35       1.0  0.67136  0.3004299999999999  0.40303999999999995  1.0000
  C   C36       1.0  0.6310400000000003  0.7177  0.8331699999999999  1.0000
  C   C37       1.0  0.5734200000000002  0.58165  0.91241  1.0000
  C   C38       1.0  0.6253100000000003  0.6423  0.62022  1.0000
  C   C39       1.0  0.6824199999999999  0.20387  0.3690399999999999  1.0000
  C   C40       1.0  0.25633  0.7681299999999998  0.23021  1.0000
  C   C41       1.0  0.08399999999999995  0.8495699999999998  0.27278  1.0000
  C   C42       1.0  0.6702700000000001  0.35247  0.50089  1.0000
  C   C43       1.0  0.6803000000000001  0.30422  0.56327  1.0000
  C   C44       1.0  0.64316  0.60657  0.52486  1.0000
  C   C45       1.0  0.6135400000000001  0.6184  0.77471  1.0000
  C   C46       1.0  0.6572600000000001  0.45496  0.54028  1.0000
  C   C47       1.0  0.21189  0.8525  0.27092  1.0000
  C   C48       1.0  0.04592000000000001  0.91714  0.34935  1.0000
  C   C49       1.0  0.6608500000000003  0.51136  0.48551  1.0000
  C   C50       1.0  0.99642  0.78069  0.19766  1.0000
  C   C51       1.0  0.64224  0.66613  0.46681  1.0000
  C   C52       1.0  0.29412000000000005  0.9409799999999999  0.31056  1.0000
  C   C53       1.0  0.59319  0.68082  0.97045  1.0000
  C   C54       1.0  0.63364  0.76402  0.50553  1.0000
  C   C55       1.0  0.69191  0.20829  0.52948  1.0000
  C   C56       1.0  0.6276500000000002  0.5833699999999998  0.67254  1.0000
  C   C57       1.0  0.58463  0.55131  0.81629  1.0000
  C   C58       1.0  0.62165  0.74838  0.92974  1.0000
  C   C59       1.0  0.37815  0.77505  0.23210999999999998  1.0000
  C   C60       1.0  0.7028599999999998  0.05263999999999997  0.3985  1.0000
  C   C61       1.0  0.6934000000000001  0.15696  0.43223  1.0000
  C   C62       1.0  0.41433  0.94189  0.30919  1.0000
  C   C63       1.0  0.9246100000000003  0.91497  0.34626  1.0000
  C   C64       1.0  0.58944  0.71417  0.07586  1.0000
  C   C65       1.0  0.6487700000000001  0.6269299999999998  0.36881  1.0000
  C   C66       1.0  0.6332000000000001  0.81681  0.44816  1.0000
  C   C67       1.0  0.64797  0.68382  0.31579  1.0000
  C   C68       1.0  0.87705  0.78348  0.20037  1.0000
  N   N1        1.0  0.35821  0.50873  0.36775  1.0000
  N   N2        1.0  0.54344  0.13948  0.72856  1.0000
  N   N3        1.0  0.35918000000000005  0.22205  0.64566  1.0000
  N   N4        1.0  0.15907000000000007  0.15006000000000005  0.7273  1.0000
  N   N5        1.0  0.64178  0.49127  0.63225  1.0000
  N   N6        1.0  0.4565600000000001  0.86052  0.27144  1.0000
  N   N7        1.0  0.64081  0.77795  0.35434  1.0000
  N   N8        1.0  0.8409300000000001  0.8499399999999998  0.2727  1.0000
  O   O1        1.0  0.31798  0.9957099999999998  0.69347  1.0000
  O   O2        1.0  0.37735  0.19316  0.87562  1.0000
  O   O3        1.0  0.44033  0.34688  0.88923  1.0000
  O   O4        1.0  0.27364000000000005  0.98246  0.54032  1.0000
  O   O5        1.0  0.68202  0.004289999999999972  0.30652999999999997  1.0000
  O   O6        1.0  0.62265  0.80684  0.12438  1.0000
  O   O7        1.0  0.55967  0.65312  0.11077  1.0000
  O   O8        1.0  0.72636  0.01753999999999999  0.45968  1.0000
