data_image0
_chemical_formula_structural       Cu12H32C64N16Cl8O16
_chemical_formula_sum              "Cu12 H32 C64 N16 Cl8 O16"
_cell_length_a       11.32289
_cell_length_b       18.70761
_cell_length_c       18.702819999999996
_cell_angle_alpha    84.68903
_cell_angle_beta     72.26375
_cell_angle_gamma    72.24271

_symmetry_space_group_name_H-M    'P 1'
_symmetry_Int_Tables_number       1

loop_
  _symmetry_equiv_pos_as_xyz
  'x,y,z'

loop_
  _atom_site_type_symbol
  _atom_site_label
  _atom_site_symmetry_multiplicity
  _atom_site_fract_x
  _atom_site_fract_y
  _atom_site_fract_z
  _atom_site_occupancy
  Cu  Cu1       1.0  0.2974  0.39914  0.25998  1.0000
  Cu  Cu2       1.0  0.9583500000000001  0.09912  0.23923  1.0000
  Cu  Cu3       1.0  0.19655000000000003  0.26012  0.09932000000000002  1.0000
  Cu  Cu4       1.0  0.55855  0.2389  0.39983  1.0000
  Cu  Cu5       1.0  0.7025999999999999  0.60087  0.74002  1.0000
  Cu  Cu6       1.0  0.041649999999999965  0.9008799999999999  0.76078  1.0000
  Cu  Cu7       1.0  0.8034500000000001  0.73988  0.9006900000000001  1.0000
  Cu  Cu8       1.0  0.44146  0.7611  0.60017  1.0000
  Cu  Cu9       1.0  3.9220482566735406e-17  0.5  0.5  1.0000
  Cu  Cu10      1.0  0.0  0.0  0.0  1.0000
  Cu  Cu11      1.0  0.0  0.5  0.0  1.0000
  Cu  Cu12      1.0  0.5000000000000001  0.0  0.5  1.0000
  H   H1        1.0  0.48012999999999995  0.24491  0.55705  1.0000
  H   H2        1.0  0.35978  0.26872  0.69181  1.0000
  H   H3        1.0  0.14407000000000006  0.36572  0.72991  1.0000
  H   H4        1.0  0.04933999999999997  0.43885  0.63215  1.0000
  H   H5        1.0  0.2811399999999999  0.25519  0.9416900000000001  1.0000
  H   H6        1.0  0.32003000000000026  0.23104  0.80708  1.0000
  H   H7        1.0  0.24009  0.13397  0.76938  1.0000
  H   H8        1.0  0.12033999999999999  0.06123000000000001  0.86734  1.0000
  H   H9        1.0  0.22415999999999991  0.55653  0.2548600000000001  1.0000
  H   H10       1.0  0.12827000000000002  0.6913  0.23093  1.0000
  H   H11       1.0  0.010209999999999959  0.72948  0.13394  1.0000
  H   H12       1.0  0.9887200000000002  0.63183  0.060820000000000006  1.0000
  H   H13       1.0  0.03819999999999997  0.9409600000000001  0.2447  1.0000
  H   H14       1.0  0.052050000000000006  0.80642  0.2685  1.0000
  H   H15       1.0  0.8742299999999997  0.76898  0.36554000000000003  1.0000
  H   H16       1.0  0.6816699999999999  0.86715  0.43851  1.0000
  H   H17       1.0  0.51987  0.75509  0.44295  1.0000
  H   H18       1.0  0.64022  0.73128  0.30819  1.0000
  H   H19       1.0  0.85593  0.63428  0.27009  1.0000
  H   H20       1.0  0.9506600000000004  0.56115  0.36785  1.0000
  H   H21       1.0  0.71886  0.74481  0.05831000000000001  1.0000
  H   H22       1.0  0.67997  0.76897  0.19293000000000005  1.0000
  H   H23       1.0  0.75991  0.86603  0.23062  1.0000
  H   H24       1.0  0.8796599999999999  0.9387699999999999  0.13266  1.0000
  H   H25       1.0  0.7758400000000001  0.44347  0.74514  1.0000
  H   H26       1.0  0.8717299999999999  0.30871  0.76907  1.0000
  H   H27       1.0  0.9897899999999997  0.27052  0.8660700000000002  1.0000
  H   H28       1.0  0.011290000000000005  0.36818  0.93918  1.0000
  H   H29       1.0  0.9618000000000001  0.05904000000000001  0.7553000000000001  1.0000
  H   H30       1.0  0.9479499999999998  0.19358  0.73151  1.0000
  H   H31       1.0  0.12577  0.23103  0.63447  1.0000
  H   H32       1.0  0.31833  0.13285  0.5614900000000003  1.0000
  C   C1        1.0  0.22264000000000003  0.41081  0.4118  1.0000
  C   C2        1.0  0.34877999999999987  0.35256  0.39025  1.0000
  C   C3        1.0  0.3350400000000001  0.32856  0.51808  1.0000
  C   C4        1.0  0.38684  0.28774  0.57408  1.0000
  C   C5        1.0  0.31853999999999993  0.30126  0.64938  1.0000
  C   C6        1.0  0.1971099999999999  0.3559  0.67077  1.0000
  C   C7        1.0  0.14378999999999995  0.3968  0.6164200000000001  1.0000
  C   C8        1.0  0.21160000000000007  0.38364  0.5399  1.0000
  C   C9        1.0  0.04834000000000001  0.08768  0.08732  1.0000
  C   C10       1.0  0.09378000000000003  0.14602  0.10887  1.0000
  C   C11       1.0  0.18171999999999988  0.17114  0.9809500000000001  1.0000
  C   C12       1.0  0.24809  0.21225  0.9248899999999999  1.0000
  C   C13       1.0  0.26878  0.19868  0.84966  1.0000
  C   C14       1.0  0.22369999999999998  0.14407  0.82844  1.0000
  C   C15       1.0  0.15697  0.10319  0.8828300000000001  1.0000
  C   C16       1.0  0.13553  0.11612  0.95923  1.0000
  C   C17       1.0  0.13439  0.41162  0.08805  1.0000
  C   C18       1.0  0.20139000000000004  0.38991  0.14649  1.0000
  C   C19       1.0  0.16337000000000002  0.51759  0.17104000000000003  1.0000
  C   C20       1.0  0.17422999999999997  0.57354  0.21192  1.0000
  C   C21       1.0  0.11972999999999999  0.64885  0.19839000000000007  1.0000
  C   C22       1.0  0.053239999999999954  0.67034  0.1438  1.0000
  C   C23       1.0  0.040839999999999994  0.61608  0.10289000000000002  1.0000
  C   C24       1.0  0.09529999999999995  0.53956  0.11601  1.0000
  C   C25       1.0  0.636  0.08703  0.41137  1.0000
  C   C26       1.0  0.7407099999999999  0.10843  0.35335  1.0000
  C   C27       1.0  0.8542200000000001  0.9804599999999999  0.32867  1.0000
  C   C28       1.0  0.96185  0.9242499999999999  0.2876  1.0000
  C   C29       1.0  0.9684899999999996  0.84908  0.301  1.0000
  C   C30       1.0  0.8683399999999999  0.82798  0.3556  1.0000
  C   C31       1.0  0.7606900000000002  0.88249  0.39655  1.0000
  C   C32       1.0  0.75246  0.95885  0.3836200000000001  1.0000
  C   C33       1.0  0.7773700000000001  0.58919  0.58821  1.0000
  C   C34       1.0  0.65122  0.64744  0.60975  1.0000
  C   C35       1.0  0.66496  0.67144  0.48192999999999997  1.0000
  C   C36       1.0  0.61316  0.71226  0.42592  1.0000
  C   C37       1.0  0.6814700000000002  0.69874  0.35063  1.0000
  C   C38       1.0  0.8028900000000002  0.6441  0.32923  1.0000
  C   C39       1.0  0.85621  0.6032  0.3835800000000001  1.0000
  C   C40       1.0  0.7884  0.61636  0.4601  1.0000
  C   C41       1.0  0.9516600000000003  0.9123200000000001  0.91268  1.0000
  C   C42       1.0  0.90622  0.85398  0.89113  1.0000
  C   C43       1.0  0.81828  0.82886  0.01905  1.0000
  C   C44       1.0  0.7519100000000002  0.78775  0.07512000000000002  1.0000
  C   C45       1.0  0.73123  0.80132  0.15034  1.0000
  C   C46       1.0  0.7763  0.85593  0.17156  1.0000
  C   C47       1.0  0.8430300000000004  0.89681  0.11718000000000002  1.0000
  C   C48       1.0  0.86447  0.88388  0.04077  1.0000
  C   C49       1.0  0.86561  0.58838  0.91195  1.0000
  C   C50       1.0  0.7986100000000003  0.61009  0.85351  1.0000
  C   C51       1.0  0.8366300000000001  0.48240999999999995  0.82896  1.0000
  C   C52       1.0  0.8257700000000002  0.42646  0.78808  1.0000
  C   C53       1.0  0.88028  0.35115  0.80161  1.0000
  C   C54       1.0  0.94677  0.32966  0.85621  1.0000
  C   C55       1.0  0.95916  0.38392  0.89712  1.0000
  C   C56       1.0  0.9047000000000001  0.46043999999999996  0.8839900000000002  1.0000
  C   C57       1.0  0.3640100000000002  0.91297  0.58863  1.0000
  C   C58       1.0  0.25928999999999996  0.89157  0.64665  1.0000
  C   C59       1.0  0.14578  0.01955  0.67133  1.0000
  C   C60       1.0  0.03815999999999997  0.07575  0.71241  1.0000
  C   C61       1.0  0.03152  0.15092  0.69901  1.0000
  C   C62       1.0  0.13165999999999986  0.17202  0.6444100000000003  1.0000
  C   C63       1.0  0.23931  0.11751000000000002  0.60345  1.0000
  C   C64       1.0  0.24754999999999996  0.04115  0.61638  1.0000
  N   N1        1.0  0.16137000000000007  0.4232  0.4844  1.0000
  N   N2        1.0  0.40204  0.31555  0.44235  1.0000
  N   N3        1.0  0.07048000000000001  0.07613  0.01477  1.0000
  N   N4        1.0  0.16075  0.18358  0.05662  1.0000
  N   N5        1.0  0.08474000000000001  0.48422  0.07632  1.0000
  N   N6        1.0  0.2173200000000001  0.44183  0.18383  1.0000
  N   N7        1.0  0.6469100000000002  0.014509999999999999  0.42337  1.0000
  N   N8        1.0  0.84575  0.0561  0.316  1.0000
  N   N9        1.0  0.83863  0.5768  0.51561  1.0000
  N   N10       1.0  0.5979700000000003  0.68445  0.5576500000000001  1.0000
  N   N11       1.0  0.9295199999999998  0.9238700000000001  0.9852400000000001  1.0000
  N   N12       1.0  0.83925  0.81642  0.94338  1.0000
  N   N13       1.0  0.9152599999999995  0.51578  0.92368  1.0000
  N   N14       1.0  0.78268  0.55818  0.8161700000000001  1.0000
  N   N15       1.0  0.35309  0.9854900000000001  0.57664  1.0000
  N   N16       1.0  0.15425  0.9439  0.68401  1.0000
  Cl  Cl1       1.0  0.9015200000000002  0.41449  0.5095700000000001  1.0000
  Cl  Cl2       1.0  0.8249899999999999  0.08627  0.9916100000000001  1.0000
  Cl  Cl3       1.0  0.8161400000000001  0.50904  0.08607  1.0000
  Cl  Cl4       1.0  0.41091999999999995  0.99123  0.41428  1.0000
  Cl  Cl5       1.0  0.09847999999999991  0.58551  0.49043000000000003  1.0000
  Cl  Cl6       1.0  0.1750100000000001  0.91373  0.00839  1.0000
  Cl  Cl7       1.0  0.18385999999999988  0.49096  0.91394  1.0000
  Cl  Cl8       1.0  0.5890800000000003  0.00877  0.58573  1.0000
  O   O1        1.0  0.17634999999999995  0.44716  0.36012000000000005  1.0000
  O   O2        1.0  0.40479000000000004  0.33822  0.31952  1.0000
  O   O3        1.0  0.9879399999999999  0.05071  0.13882  1.0000
  O   O4        1.0  0.06497000000000001  0.16001  0.17967  1.0000
  O   O5        1.0  0.12575000000000003  0.3602  0.05086  1.0000
  O   O6        1.0  0.24355  0.31909  0.16014  1.0000
  O   O7        1.0  0.53775  0.13862  0.4478500000000001  1.0000
  O   O8        1.0  0.7262000000000001  0.17916  0.33907  1.0000
  O   O9        1.0  0.8236499999999998  0.55284  0.63988  1.0000
  O   O10       1.0  0.59521  0.66178  0.6804800000000002  1.0000
  O   O11       1.0  0.012060000000000024  0.94929  0.86118  1.0000
  O   O12       1.0  0.93503  0.83999  0.82033  1.0000
  O   O13       1.0  0.87425  0.6398  0.94914  1.0000
  O   O14       1.0  0.7564600000000001  0.68091  0.83986  1.0000
  O   O15       1.0  0.46225000000000005  0.86138  0.55215  1.0000
  O   O16       1.0  0.2738  0.82084  0.66094  1.0000
