data_image0
_chemical_formula_structural       Ho4H28C64N4O24
_chemical_formula_sum              "Ho4 H28 C64 N4 O24"
_cell_length_a       13.03102
_cell_length_b       14.85776
_cell_length_c       16.04509
_cell_angle_alpha    117.53109
_cell_angle_beta     95.88792999999998
_cell_angle_gamma    89.91739

_symmetry_space_group_name_H-M    'P 1'
_symmetry_Int_Tables_number       1

loop_
  _symmetry_equiv_pos_as_xyz
  'x,y,z'

loop_
  _atom_site_type_symbol
  _atom_site_label
  _atom_site_symmetry_multiplicity
  _atom_site_fract_x
  _atom_site_fract_y
  _atom_site_fract_z
  _atom_site_occupancy
  Ho  Ho1       1.0  0.024599999999999997  0.52539  0.62435  1.0000
  Ho  Ho2       1.0  0.4749399999999999  0.9027400000000004  0.37493  1.0000
  Ho  Ho3       1.0  0.9751999999999998  0.4728900000000001  0.37329  1.0000
  Ho  Ho4       1.0  0.52004  0.09779999999999998  0.62483  1.0000
  H   H1        1.0  0.53238  0.99034  0.13213  1.0000
  H   H2        1.0  0.60379  0.9574800000000002  0.98111  1.0000
  H   H3        1.0  0.64292  0.6456  0.91895  1.0000
  H   H4        1.0  0.5721399999999999  0.6800500000000003  0.07084  1.0000
  H   H5        1.0  0.70138  0.6791300000000002  0.43911000000000006  1.0000
  H   H6        1.0  0.7657099999999998  0.6692600000000001  0.7038  1.0000
  H   H7        1.0  0.5698  0.8949200000000003  0.68784  1.0000
  H   H8        1.0  0.9668499999999998  0.8556700000000005  0.8658200000000003  1.0000
  H   H9        1.0  0.8977899999999998  0.9750900000000002  0.01716  1.0000
  H   H10       1.0  0.8583899999999998  0.7276200000000003  0.08223  1.0000
  H   H11       1.0  0.9287899999999999  0.60892  0.9310700000000002  1.0000
  H   H12       1.0  0.7979599999999999  0.24136000000000002  0.56045  1.0000
  H   H13       1.0  0.73493  0.9662800000000005  0.29668  1.0000
  H   H14       1.0  0.93158  0.20696000000000006  0.31213  1.0000
  H   H15       1.0  0.46636999999999995  0.009979999999999978  0.86751  1.0000
  H   H16       1.0  0.39658  0.043260000000000014  0.019370000000000002  1.0000
  H   H17       1.0  0.35746  0.3550200000000001  0.08202  1.0000
  H   H18       1.0  0.42593  0.32056999999999997  0.92914  1.0000
  H   H19       1.0  0.2991599999999999  0.3223500000000001  0.56012  1.0000
  H   H20       1.0  0.23417  0.33052  0.29449  1.0000
  H   H21       1.0  0.4292499999999999  0.10492000000000004  0.31153  1.0000
  H   H22       1.0  0.03291  0.14502000000000007  0.1334  1.0000
  H   H23       1.0  0.10262  0.02505000000000004  0.98257  1.0000
  H   H24       1.0  0.14263999999999996  0.27136000000000005  0.9160800000000001  1.0000
  H   H25       1.0  0.07243  0.39083  0.0673  1.0000
  H   H26       1.0  0.20016999999999996  0.75875  0.43917  1.0000
  H   H27       1.0  0.26223  0.033590000000000036  0.7035600000000001  1.0000
  H   H28       1.0  0.06835  0.7912600000000002  0.68763  1.0000
  C   C1        1.0  0.50331  0.8549500000000002  0.1967  1.0000
  C   C2        1.0  0.54703  0.8361900000000002  0.10856000000000003  1.0000
  C   C3        1.0  0.5569  0.91549  0.08468  1.0000
  C   C4        1.0  0.5960899999999999  0.8974000000000002  0.00124  1.0000
  C   C5        1.0  0.62499  0.7987800000000003  0.93975  1.0000
  C   C6        1.0  0.6184599999999998  0.7206400000000001  0.96586  1.0000
  C   C7        1.0  0.57933  0.7392000000000002  0.04955  1.0000
  C   C8        1.0  0.6574099999999998  0.775  0.84875  1.0000
  C   C9        1.0  0.57487  0.8360599999999999  0.5006  1.0000
  C   C10       1.0  0.63029  0.7917400000000002  0.55737  1.0000
  C   C11       1.0  0.69207  0.7089600000000003  0.51366  1.0000
  C   C12       1.0  0.74304  0.6665400000000002  0.56744  1.0000
  C   C13       1.0  0.7278200000000001  0.7035200000000005  0.6626800000000003  1.0000
  C   C14       1.0  0.66326  0.7839700000000002  0.70537  1.0000
  C   C15       1.0  0.61739  0.8306000000000002  0.6534  1.0000
  C   C16       1.0  0.8169199999999999  0.58435  0.5274  1.0000
  C   C17       1.0  0.99813  0.6573500000000002  0.80308  1.0000
  C   C18       1.0  0.95347  0.7260900000000005  0.8909900000000002  1.0000
  C   C19       1.0  0.94302  0.8289900000000002  0.91403  1.0000
  C   C20       1.0  0.9048999999999999  0.8950500000000002  0.99775  1.0000
  C   C21       1.0  0.87651  0.85886  0.06009  1.0000
  C   C22       1.0  0.88286  0.7547900000000002  0.03459  1.0000
  C   C23       1.0  0.9218  0.6890600000000002  0.95099  1.0000
  C   C24       1.0  0.8441599999999999  0.9262800000000003  0.15099  1.0000
  C   C25       1.0  0.9265199999999998  0.33486  0.4996900000000001  1.0000
  C   C26       1.0  0.87057  0.2344900000000001  0.44242000000000004  1.0000
  C   C27       1.0  0.8075999999999999  0.19632  0.48596  1.0000
  C   C28       1.0  0.75615  0.10077000000000003  0.43227  1.0000
  C   C29       1.0  0.7726699999999997  0.04160000000000002  0.3373300000000001  1.0000
  C   C30       1.0  0.83801  0.07865000000000005  0.2946  1.0000
  C   C31       1.0  0.8838399999999997  0.17710000000000006  0.34645000000000004  1.0000
  C   C32       1.0  0.6804  0.060280000000000035  0.47214  1.0000
  C   C33       1.0  0.49408999999999986  0.14579  0.80295  1.0000
  C   C34       1.0  0.45109  0.1640900000000001  0.8911400000000002  1.0000
  C   C35       1.0  0.4419099999999999  0.08481000000000007  0.91511  1.0000
  C   C36       1.0  0.4035299999999999  0.10314  0.99891  1.0000
  C   C37       1.0  0.37476  0.20176000000000002  0.06028  1.0000
  C   C38       1.0  0.38117  0.27997  0.03439  1.0000
  C   C39       1.0  0.41922  0.26124000000000014  0.95028  1.0000
  C   C40       1.0  0.34287999999999996  0.22563000000000008  0.15135  1.0000
  C   C41       1.0  0.4229499999999999  0.16507000000000005  0.49956  1.0000
  C   C42       1.0  0.3690699999999999  0.20891  0.4419  1.0000
  C   C43       1.0  0.30794  0.29212  0.48542  1.0000
  C   C44       1.0  0.25718  0.3339400000000002  0.4311000000000001  1.0000
  C   C45       1.0  0.27207  0.2964400000000001  0.33581  1.0000
  C   C46       1.0  0.33646  0.21581000000000006  0.2936  1.0000
  C   C47       1.0  0.38205  0.16952000000000006  0.34591  1.0000
  C   C48       1.0  0.18347999999999998  0.4159200000000001  0.47089  1.0000
  C   C49       1.0  0.0029400000000000034  0.34382  0.19534  1.0000
  C   C50       1.0  0.04711  0.2741  0.10762  1.0000
  C   C51       1.0  0.05708999999999999  0.17134000000000005  0.08505  1.0000
  C   C52       1.0  0.09565  0.10502000000000003  0.0017100000000000001  1.0000
  C   C53       1.0  0.12418999999999998  0.1406300000000001  0.9390500000000002  1.0000
  C   C54       1.0  0.11823  0.2445900000000001  0.96402  1.0000
  C   C55       1.0  0.07921999999999998  0.3107000000000001  0.04742  1.0000
  C   C56       1.0  0.15587  0.0723200000000001  0.84812  1.0000
  C   C57       1.0  0.07325  0.66395  0.49908000000000013  1.0000
  C   C58       1.0  0.12856  0.76458  0.55704  1.0000
  C   C59       1.0  0.19073  0.8034800000000002  0.5137  1.0000
  C   C60       1.0  0.24126999999999998  0.8994400000000002  0.5676  1.0000
  C   C61       1.0  0.22526999999999994  0.9579300000000002  0.66261  1.0000
  C   C62       1.0  0.16113  0.9199000000000003  0.70528  1.0000
  C   C63       1.0  0.11555999999999997  0.8213600000000002  0.65317  1.0000
  C   C64       1.0  0.3153599999999999  0.9406800000000002  0.52744  1.0000
  N   N1        1.0  0.63812  0.81856  0.79818  1.0000
  N   N2        1.0  0.8639299999999999  0.02021  0.20205  1.0000
  N   N3        1.0  0.36087  0.18041000000000004  0.2006  1.0000
  N   N4        1.0  0.13626  0.9783100000000005  0.7982500000000001  1.0000
  O   O1        1.0  0.50454  0.78584  0.22408  1.0000
  O   O2        1.0  0.4668899999999999  0.9414600000000002  0.24784000000000003  1.0000
  O   O3        1.0  0.55592  0.7839  0.4112900000000001  1.0000
  O   O4        1.0  0.54443  0.92782  0.54257  1.0000
  O   O5        1.0  0.8622299999999998  0.55502  0.58433  1.0000
  O   O6        1.0  0.83309  0.54941  0.44045000000000006  1.0000
  O   O7        1.0  0.005750000000000031  0.5621900000000003  0.7791700000000003  1.0000
  O   O8        1.0  0.026020000000000012  0.6919900000000002  0.74836  1.0000
  O   O9        1.0  0.9438899999999998  0.3711300000000001  0.58921  1.0000
  O   O10       1.0  0.9594399999999997  0.3849000000000002  0.4587700000000001  1.0000
  O   O11       1.0  0.63586  0.9737200000000003  0.41494  1.0000
  O   O12       1.0  0.66185  0.11328000000000005  0.55811  1.0000
  O   O13       1.0  0.49043999999999993  0.21476000000000006  0.77549  1.0000
  O   O14       1.0  0.5317199999999999  0.05987999999999999  0.75161  1.0000
  O   O15       1.0  0.4396899999999999  0.2176400000000001  0.5888900000000001  1.0000
  O   O16       1.0  0.45404999999999995  0.07335000000000008  0.45847000000000004  1.0000
  O   O17       1.0  0.13811  0.4451500000000001  0.41389  1.0000
  O   O18       1.0  0.16729999999999998  0.45044999999999996  0.55788  1.0000
  O   O19       1.0  0.99933  0.4393400000000001  0.22003  1.0000
  O   O20       1.0  0.97061  0.30928  0.24897000000000005  1.0000
  O   O21       1.0  0.055959999999999996  0.62779  0.40963  1.0000
  O   O22       1.0  0.04099  0.6138300000000002  0.54009  1.0000
  O   O23       1.0  0.35933  0.027559999999999956  0.58396  1.0000
  O   O24       1.0  0.3334  0.8876000000000001  0.44124  1.0000
