data_image0
_chemical_formula_structural       Mn3Si2H32C56O16
_chemical_formula_sum              "Mn3 Si2 H32 C56 O16"
_cell_length_a       13.75722
_cell_length_b       13.80515
_cell_length_c       13.9804
_cell_angle_alpha    115.13127
_cell_angle_beta     110.21486
_cell_angle_gamma    101.02401

_symmetry_space_group_name_H-M    'P 1'
_symmetry_Int_Tables_number       1

loop_
  _symmetry_equiv_pos_as_xyz
  'x,y,z'

loop_
  _atom_site_type_symbol
  _atom_site_label
  _atom_site_symmetry_multiplicity
  _atom_site_fract_x
  _atom_site_fract_y
  _atom_site_fract_z
  _atom_site_occupancy
  Mn  Mn1       1.0  0.8003100000000001  0.6244400000000001  0.62323  1.0000
  Mn  Mn2       1.0  0.19964  0.3755800000000001  0.37672999999999995  1.0000
  Mn  Mn3       1.0  0.5000200000000001  0.49997  0.50002  1.0000
  Si  Si1       1.0  0.52232  0.8497  0.11691  1.0000
  Si  Si2       1.0  0.47764000000000006  0.15026999999999993  0.8829699999999999  1.0000
  H   H1        1.0  0.78501  0.91256  0.9468299999999997  1.0000
  H   H2        1.0  0.7117700000000002  0.9825900000000002  0.09270999999999999  1.0000
  H   H3        1.0  0.4802200000000001  0.6276400000000002  0.9221499999999998  1.0000
  H   H4        1.0  0.55382  0.56063  0.7769399999999999  1.0000
  H   H5        1.0  0.10478999999999998  0.6747399999999999  0.9809099999999998  1.0000
  H   H6        1.0  0.30801000000000006  0.7304600000000002  0.11202  1.0000
  H   H7        1.0  0.39384000000000013  0.83478  0.89082  1.0000
  H   H8        1.0  0.18997  0.77354  0.75832  1.0000
  H   H9        1.0  0.7075400000000002  0.64003  0.29416  1.0000
  H   H10       1.0  0.66131  0.71169  0.15444  1.0000
  H   H11       1.0  0.4562200000000002  0.85519  0.29876  1.0000
  H   H12       1.0  0.4914600000000001  0.77013  0.42595  1.0000
  H   H13       1.0  0.44531  0.20826999999999998  0.28357999999999994  1.0000
  H   H14       1.0  0.39347  0.99829  0.14786  1.0000
  H   H15       1.0  0.7454900000000002  0.054830000000000025  0.30902  1.0000
  H   H16       1.0  0.79582  0.26696  0.44051  1.0000
  H   H17       1.0  0.21502  0.08733  0.053179999999999984  1.0000
  H   H18       1.0  0.28822  0.01738999999999996  0.9072199999999999  1.0000
  H   H19       1.0  0.5197  0.37239  0.07781  1.0000
  H   H20       1.0  0.4461500000000001  0.43922  0.22307  1.0000
  H   H21       1.0  0.8952  0.32507  0.01913  1.0000
  H   H22       1.0  0.69208  0.2695  0.88801  1.0000
  H   H23       1.0  0.6060200000000002  0.16519  0.1091  1.0000
  H   H24       1.0  0.8097800000000003  0.22628  0.24162  1.0000
  H   H25       1.0  0.29224000000000006  0.35979999999999995  0.7057099999999998  1.0000
  H   H26       1.0  0.33857999999999994  0.2881099999999999  0.8454099999999998  1.0000
  H   H27       1.0  0.5438300000000001  0.14491  0.70123  1.0000
  H   H28       1.0  0.50848  0.22989  0.57396  1.0000
  H   H29       1.0  0.5546800000000001  0.79159  0.71643  1.0000
  H   H30       1.0  0.6065700000000003  0.0016199999999999617  0.85203  1.0000
  H   H31       1.0  0.25457000000000013  0.9451900000000001  0.69092  1.0000
  H   H32       1.0  0.20415  0.73302  0.55949  1.0000
  C   C1        1.0  0.71045  0.6921  0.76106  1.0000
  C   C2        1.0  0.6727  0.7329400000000001  0.8530799999999998  1.0000
  C   C3        1.0  0.71859  0.85175  0.94346  1.0000
  C   C4        1.0  0.6772400000000001  0.8899500000000002  0.024929999999999997  1.0000
  C   C5        1.0  0.5907300000000001  0.81023  0.018709999999999997  1.0000
  C   C6        1.0  0.5473200000000003  0.6908  0.92869  1.0000
  C   C7        1.0  0.5874999999999999  0.6522599999999998  0.8467299999999999  1.0000
  C   C8        1.0  0.013969999999999993  0.6824200000000001  0.78296  1.0000
  C   C9        1.0  0.13588999999999996  0.7209800000000001  0.8623099999999998  1.0000
  C   C10       1.0  0.1693699999999999  0.7091000000000001  0.9623699999999997  1.0000
  C   C11       1.0  0.28337  0.74126  0.03559  1.0000
  C   C12       1.0  0.3662800000000001  0.78792  0.01211  1.0000
  C   C13       1.0  0.3311700000000002  0.7991900000000001  0.911  1.0000
  C   C14       1.0  0.21717  0.76546  0.83637  1.0000
  C   C15       1.0  0.6277  0.65326  0.44715  1.0000
  C   C16       1.0  0.6022300000000002  0.70069  0.36775  1.0000
  C   C17       1.0  0.65097  0.68536  0.29214999999999997  1.0000
  C   C18       1.0  0.6251500000000001  0.72647  0.21481999999999998  1.0000
  C   C19       1.0  0.5544300000000001  0.7879000000000002  0.21518999999999996  1.0000
  C   C20       1.0  0.50858  0.8050600000000002  0.29419  1.0000
  C   C21       1.0  0.5293900000000001  0.7593900000000002  0.36745999999999995  1.0000
  C   C22       1.0  0.6514800000000002  0.37749  0.4421999999999999  1.0000
  C   C23       1.0  0.62344  0.25051  0.3677999999999999  1.0000
  C   C24       1.0  0.5101800000000001  0.17391  0.28723  1.0000
  C   C25       1.0  0.4818000000000001  0.05574000000000001  0.2117  1.0000
  C   C26       1.0  0.56566  0.010659999999999994  0.21649  1.0000
  C   C27       1.0  0.67915  0.08791999999999997  0.30136  1.0000
  C   C28       1.0  0.70826  0.20682  0.37602  1.0000
  C   C29       1.0  0.28953  0.30776  0.23889  1.0000
  C   C30       1.0  0.32728  0.26693999999999996  0.14685  1.0000
  C   C31       1.0  0.28139000000000003  0.14815  0.05648  1.0000
  C   C32       1.0  0.32276999999999995  0.10999999999999986  0.9750299999999997  1.0000
  C   C33       1.0  0.4092400000000001  0.18970999999999993  0.98118  1.0000
  C   C34       1.0  0.4526300000000002  0.30914  0.07121  1.0000
  C   C35       1.0  0.4124400000000001  0.3476300000000001  0.15316  1.0000
  C   C36       1.0  0.9860300000000001  0.31747  0.21721  1.0000
  C   C37       1.0  0.8640900000000002  0.27887  0.13774  1.0000
  C   C38       1.0  0.8306300000000002  0.2908  0.03771  1.0000
  C   C39       1.0  0.7166399999999999  0.2587400000000001  0.9644699999999999  1.0000
  C   C40       1.0  0.63366  0.21207  0.9878699999999999  1.0000
  C   C41       1.0  0.6687300000000003  0.20073000000000002  0.08893  1.0000
  C   C42       1.0  0.78271  0.23437  0.16356999999999997  1.0000
  C   C43       1.0  0.3722  0.34674000000000005  0.55281  1.0000
  C   C44       1.0  0.3976500000000001  0.29925  0.63215  1.0000
  C   C45       1.0  0.3488800000000001  0.3145299999999999  0.7077299999999999  1.0000
  C   C46       1.0  0.3747500000000001  0.27343  0.78505  1.0000
  C   C47       1.0  0.44555999999999996  0.21209999999999998  0.7847399999999999  1.0000
  C   C48       1.0  0.49142  0.1949799999999999  0.7057399999999999  1.0000
  C   C49       1.0  0.47054000000000007  0.24060999999999996  0.6324499999999998  1.0000
  C   C50       1.0  0.3484700000000001  0.62248  0.5577  1.0000
  C   C51       1.0  0.37655  0.7494400000000001  0.63218  1.0000
  C   C52       1.0  0.48982  0.8259900000000001  0.7127699999999999  1.0000
  C   C53       1.0  0.51824  0.94418  0.7882499999999999  1.0000
  C   C54       1.0  0.43438000000000004  0.9893  0.7834599999999999  1.0000
  C   C55       1.0  0.32089  0.91206  0.69863  1.0000
  C   C56       1.0  0.2917199999999999  0.7931399999999998  0.6239899999999999  1.0000
  O   O1        1.0  0.7921300000000001  0.76166  0.76814  1.0000
  O   O2        1.0  0.66031  0.58391  0.67311  1.0000
  O   O3        1.0  0.9801700000000001  0.70571  0.70029  1.0000
  O   O4        1.0  0.9409300000000003  0.62354  0.79491  1.0000
  O   O5        1.0  0.5504400000000002  0.62584  0.4741599999999999  1.0000
  O   O6        1.0  0.72137  0.64303  0.48150999999999994  1.0000
  O   O7        1.0  0.5684500000000001  0.40925  0.41625999999999996  1.0000
  O   O8        1.0  0.7527899999999998  0.44625999999999993  0.5219799999999999  1.0000
  O   O9        1.0  0.20776000000000006  0.23822000000000002  0.23169  1.0000
  O   O10       1.0  0.3397400000000001  0.41588  0.32699  1.0000
  O   O11       1.0  0.019769999999999982  0.29429  0.29996999999999996  1.0000
  O   O12       1.0  0.05913999999999999  0.37625  0.20524  1.0000
  O   O13       1.0  0.4494500000000001  0.37412  0.52576  1.0000
  O   O14       1.0  0.27859000000000006  0.35704000000000014  0.51849  1.0000
  O   O15       1.0  0.43147  0.59068  0.58363  1.0000
  O   O16       1.0  0.24715999999999994  0.5538  0.47788999999999987  1.0000
