data_image0
_chemical_formula_structural       Cu10H36C48N24O20
_chemical_formula_sum              "Cu10 H36 C48 N24 O20"
_cell_length_a       10.59819
_cell_length_b       10.87505
_cell_length_c       15.256810000000002
_cell_angle_alpha    76.7221
_cell_angle_beta     81.2323
_cell_angle_gamma    79.66257

_space_group_name_H-M_alt    "P 1"
_space_group_IT_number       1

loop_
  _space_group_symop_operation_xyz
  'x, y, z'

loop_
  _atom_site_type_symbol
  _atom_site_label
  _atom_site_symmetry_multiplicity
  _atom_site_fract_x
  _atom_site_fract_y
  _atom_site_fract_z
  _atom_site_occupancy
  Cu  Cu1       1.0  0.15832999999999994  0.50936  0.16186999999999996  1.0000
  Cu  Cu2       1.0  0.9250099999999999  0.76359  0.09227  1.0000
  Cu  Cu3       1.0  0.31962999999999986  0.49595  0.3405699999999999  1.0000
  Cu  Cu4       1.0  0.6221599999999998  0.6056900000000001  0.28027999999999986  1.0000
  Cu  Cu5       1.0  0.84167  0.4906400000000001  0.8381299999999998  1.0000
  Cu  Cu6       1.0  0.07499000000000004  0.23641000000000006  0.9077299999999998  1.0000
  Cu  Cu7       1.0  0.6803599999999999  0.5040499999999999  0.65943  1.0000
  Cu  Cu8       1.0  0.37784  0.3943  0.71972  1.0000
  Cu  Cu9       1.0  0.0  0.5  0.0  1.0000
  Cu  Cu10      1.0  0.49999999999999994  0.5  0.4999999999999999  1.0000
  H   H1        1.0  0.91225  0.50244  0.16697  1.0000
  H   H2        1.0  0.40297000000000005  0.67583  0.3821999999999999  1.0000
  H   H3        1.0  0.15675000000000006  0.8306299999999999  0.35329999999999995  1.0000
  H   H4        1.0  0.97956  0.94718  0.22821999999999995  1.0000
  H   H5        1.0  0.6145299999999998  0.65772  0.05892999999999999  1.0000
  H   H6        1.0  0.39304  0.6054  0.0007899999999999998  1.0000
  H   H7        1.0  0.3079299999999999  0.08145  0.04713  1.0000
  H   H8        1.0  0.34624999999999995  0.2174  0.17447999999999994  1.0000
  H   H9        1.0  0.9277899999999998  0.62209  0.51773  1.0000
  H   H10       1.0  0.8927799999999998  0.6823400000000001  0.33246999999999993  1.0000
  H   H11       1.0  0.9804699999999997  0.40529  0.30599  1.0000
  H   H12       1.0  0.7572699999999999  0.09714999999999999  0.39169999999999994  1.0000
  H   H13       1.0  0.95923  0.94381  0.4185999999999999  1.0000
  H   H14       1.0  0.17293999999999998  0.023800000000000026  0.3911199999999999  1.0000
  H   H15       1.0  0.17509000000000005  0.0074100000000000546  0.9219599999999998  1.0000
  H   H16       1.0  0.48943000000000003  0.99011  0.7060399999999998  1.0000
  H   H17       1.0  0.4854299999999998  0.75919  0.7237299999999998  1.0000
  H   H18       1.0  0.3271300000000001  0.6510900000000001  0.8434799999999998  1.0000
  H   H19       1.0  0.08773999999999998  0.49756000000000006  0.83303  1.0000
  H   H20       1.0  0.59703  0.32417000000000007  0.6178  1.0000
  H   H21       1.0  0.8432499999999998  0.16937000000000008  0.6466999999999998  1.0000
  H   H22       1.0  0.020429999999999983  0.052819999999999985  0.77178  1.0000
  H   H23       1.0  0.38545999999999997  0.34228  0.9410699999999999  1.0000
  H   H24       1.0  0.6069599999999999  0.39459999999999995  0.99921  1.0000
  H   H25       1.0  0.6920699999999999  0.9185400000000001  0.95287  1.0000
  H   H26       1.0  0.6537499999999998  0.7826000000000002  0.8255199999999999  1.0000
  H   H27       1.0  0.07220000000000001  0.37791  0.48226999999999987  1.0000
  H   H28       1.0  0.10722000000000005  0.31766000000000005  0.6675299999999997  1.0000
  H   H29       1.0  0.01953000000000005  0.5947100000000001  0.6939999999999997  1.0000
  H   H30       1.0  0.24273000000000003  0.90285  0.6083  1.0000
  H   H31       1.0  0.04077000000000004  0.05619000000000004  0.5813899999999997  1.0000
  H   H32       1.0  0.8270499999999997  0.9762000000000002  0.6088799999999998  1.0000
  H   H33       1.0  0.8248999999999997  0.99259  0.07803  1.0000
  H   H34       1.0  0.51057  0.009890000000000008  0.29396  1.0000
  H   H35       1.0  0.5145599999999999  0.24081  0.27627  1.0000
  H   H36       1.0  0.67286  0.34891  0.15651999999999994  1.0000
  C   C1        1.0  0.12364999999999994  0.7945100000000002  0.30182  1.0000
  C   C2        1.0  0.03603  0.8527600000000001  0.23981999999999995  1.0000
  C   C3        1.0  0.53149  0.61692  0.09631  1.0000
  C   C4        1.0  0.4227899999999997  0.59089  0.06755999999999997  1.0000
  C   C5        1.0  0.26256  0.17422999999999997  0.059539999999999996  1.0000
  C   C6        1.0  0.28133  0.24119999999999997  0.12271999999999997  1.0000
  C   C7        1.0  0.84839  0.61432  0.4833099999999999  1.0000
  C   C8        1.0  0.83094  0.6448899999999999  0.39196999999999993  1.0000
  C   C9        1.0  0.09052000000000002  0.21927000000000005  0.3455099999999999  1.0000
  C   C10       1.0  0.97665  0.30377  0.32886999999999994  1.0000
  C   C11       1.0  0.8571199999999999  0.26063000000000003  0.34502999999999995  1.0000
  C   C12       1.0  0.8507199999999998  0.13028000000000003  0.37797999999999987  1.0000
  C   C13       1.0  0.96459  0.04484000000000004  0.39278999999999986  1.0000
  C   C14       1.0  0.08390999999999997  0.08861  0.37722999999999995  1.0000
  C   C15       1.0  0.21597  0.26983  0.33443  1.0000
  C   C16       1.0  0.7388800000000001  0.35812000000000005  0.33158999999999994  1.0000
  C   C17       1.0  0.2439000000000002  0.82313  0.8902799999999997  1.0000
  C   C18       1.0  0.24449999999999997  0.95478  0.8782599999999998  1.0000
  C   C19       1.0  0.33299999999999985  0.015529999999999974  0.81206  1.0000
  C   C20       1.0  0.42069999999999996  0.94305  0.7574299999999998  1.0000
  C   C21       1.0  0.4188000000000001  0.8124999999999999  0.7682099999999997  1.0000
  C   C22       1.0  0.33106999999999975  0.7524800000000001  0.8348499999999998  1.0000
  C   C23       1.0  0.1501300000000001  0.7566099999999999  0.9613299999999998  1.0000
  C   C24       1.0  0.3360799999999998  0.15551  0.79544  1.0000
  C   C25       1.0  0.8763399999999999  0.20549000000000003  0.69818  1.0000
  C   C26       1.0  0.96397  0.14724000000000007  0.7601699999999998  1.0000
  C   C27       1.0  0.4685  0.38308000000000003  0.9036899999999998  1.0000
  C   C28       1.0  0.5771999999999998  0.40911  0.93244  1.0000
  C   C29       1.0  0.7374399999999999  0.8257699999999999  0.9404599999999999  1.0000
  C   C30       1.0  0.7186699999999998  0.7587999999999999  0.8772699999999998  1.0000
  C   C31       1.0  0.15159999999999998  0.38568  0.51669  1.0000
  C   C32       1.0  0.16905999999999996  0.35511000000000004  0.6080299999999997  1.0000
  C   C33       1.0  0.9094699999999998  0.78073  0.65449  1.0000
  C   C34       1.0  0.023340000000000017  0.6962300000000002  0.6711299999999998  1.0000
  C   C35       1.0  0.14288  0.7393700000000002  0.6549699999999998  1.0000
  C   C36       1.0  0.14927  0.8697200000000002  0.62202  1.0000
  C   C37       1.0  0.03541000000000004  0.95516  0.60721  1.0000
  C   C38       1.0  0.9160800000000004  0.91139  0.62277  1.0000
  C   C39       1.0  0.7840299999999998  0.73017  0.66557  1.0000
  C   C40       1.0  0.26111000000000006  0.6418699999999999  0.66841  1.0000
  C   C41       1.0  0.7560899999999999  0.17687  0.10972  1.0000
  C   C42       1.0  0.75549  0.04522000000000001  0.12172999999999998  1.0000
  C   C43       1.0  0.6669999999999999  0.9844700000000001  0.18793999999999994  1.0000
  C   C44       1.0  0.5793000000000001  0.056940000000000004  0.24256999999999995  1.0000
  C   C45       1.0  0.5812000000000002  0.18749999999999997  0.23178999999999994  1.0000
  C   C46       1.0  0.6689199999999998  0.24750999999999998  0.16515  1.0000
  C   C47       1.0  0.8498699999999999  0.24338999999999997  0.03867  1.0000
  C   C48       1.0  0.66392  0.84449  0.20455999999999994  1.0000
  N   N1        1.0  0.02844  0.7653600000000002  0.19119999999999998  1.0000
  N   N2        1.0  0.10855999999999996  0.65879  0.22204  1.0000
  N   N3        1.0  0.16705000000000003  0.67429  0.28925  1.0000
  N   N4        1.0  0.34864  0.53908  0.14254999999999995  1.0000
  N   N5        1.0  0.40884  0.53322  0.21445999999999998  1.0000
  N   N6        1.0  0.5192099999999997  0.5810600000000001  0.18780999999999998  1.0000
  N   N7        1.0  0.19879999999999995  0.35269000000000006  0.1095  1.0000
  N   N8        1.0  0.13295999999999997  0.35454  0.04143  1.0000
  N   N9        1.0  0.17006999999999992  0.24786000000000002  0.00992  1.0000
  N   N10       1.0  0.71306  0.61861  0.3854899999999999  1.0000
  N   N11       1.0  0.6603999999999994  0.57325  0.46897  1.0000
  N   N12       1.0  0.7406299999999998  0.56929  0.52929  1.0000
  N   N13       1.0  0.97156  0.23464000000000004  0.8087899999999998  1.0000
  N   N14       1.0  0.89143  0.34121000000000007  0.7779599999999998  1.0000
  N   N15       1.0  0.8329399999999999  0.32571  0.71075  1.0000
  N   N16       1.0  0.65135  0.46091000000000004  0.8574499999999998  1.0000
  N   N17       1.0  0.5911500000000001  0.46678000000000003  0.7855299999999997  1.0000
  N   N18       1.0  0.48079000000000005  0.4189400000000001  0.8121899999999997  1.0000
  N   N19       1.0  0.80119  0.6473100000000002  0.8904999999999997  1.0000
  N   N20       1.0  0.86704  0.64545  0.9585699999999998  1.0000
  N   N21       1.0  0.8299199999999999  0.7521400000000001  0.9900799999999998  1.0000
  N   N22       1.0  0.28694  0.38139  0.61451  1.0000
  N   N23       1.0  0.3395899999999999  0.42674999999999996  0.5310299999999999  1.0000
  N   N24       1.0  0.2593599999999999  0.43071000000000004  0.4707099999999999  1.0000
  O   O1        1.0  0.2063  0.39502  0.3028599999999999  1.0000
  O   O2        1.0  0.31679999999999997  0.19938000000000003  0.3557299999999999  1.0000
  O   O3        1.0  0.75634  0.45613  0.26558  1.0000
  O   O4        1.0  0.6363599999999997  0.34530000000000005  0.38309  1.0000
  O   O5        1.0  0.16306  0.6362000000000001  0.9778799999999997  1.0000
  O   O6        1.0  0.06237000000000001  0.83144  0.00038999999999999994  1.0000
  O   O7        1.0  0.24312000000000006  0.2338300000000001  0.8262699999999997  1.0000
  O   O8        1.0  0.43374  0.19837999999999995  0.74642  1.0000
  O   O9        1.0  0.9781599999999999  0.54491  0.12381  1.0000
  O   O10       1.0  0.44272  0.58839  0.38011  1.0000
  O   O11       1.0  0.7936999999999999  0.6049800000000001  0.6971399999999998  1.0000
  O   O12       1.0  0.6831899999999999  0.8006199999999998  0.64427  1.0000
  O   O13       1.0  0.24365999999999996  0.5438600000000001  0.73442  1.0000
  O   O14       1.0  0.36363999999999996  0.6547000000000002  0.6169099999999997  1.0000
  O   O15       1.0  0.8369299999999997  0.3638  0.02212  1.0000
  O   O16       1.0  0.93762  0.16856  0.9996099999999999  1.0000
  O   O17       1.0  0.7568699999999999  0.7661700000000001  0.17372999999999994  1.0000
  O   O18       1.0  0.5662599999999999  0.80162  0.25358  1.0000
  O   O19       1.0  0.02183000000000004  0.4550900000000001  0.8761899999999998  1.0000
  O   O20       1.0  0.5572699999999999  0.41161000000000014  0.6198899999999998  1.0000
