data_image0
_chemical_formula_structural       Mg8H24C56N8O32
_chemical_formula_sum              "Mg8 H24 C56 N8 O32"
_cell_length_a       13.47645
_cell_length_b       14.23929
_cell_length_c       14.79313
_cell_angle_alpha    90.0
_cell_angle_beta     90.0
_cell_angle_gamma    108.23388000000001

_space_group_name_H-M_alt    "P 1"
_space_group_IT_number       1

loop_
  _space_group_symop_operation_xyz
  'x, y, z'

loop_
  _atom_site_type_symbol
  _atom_site_label
  _atom_site_symmetry_multiplicity
  _atom_site_fract_x
  _atom_site_fract_y
  _atom_site_fract_z
  _atom_site_occupancy
  Mg  Mg1       1.0  0.85613  0.49831  0.81725  1.0000
  Mg  Mg2       1.0  0.6055700000000003  0.44436000000000003  0.91157  1.0000
  Mg  Mg3       1.0  0.6438700000000002  0.0017  0.31725  1.0000
  Mg  Mg4       1.0  0.89444  0.05565  0.41157  1.0000
  Mg  Mg5       1.0  0.14387  0.5017  0.18275  1.0000
  Mg  Mg6       1.0  0.39443  0.55565  0.08843  1.0000
  Mg  Mg7       1.0  0.35613000000000017  0.9983100000000001  0.68275  1.0000
  Mg  Mg8       1.0  0.10556000000000006  0.94436  0.58843  1.0000
  H   H1        1.0  0.5443400000000002  0.6888100000000001  0.7705100000000001  1.0000
  H   H2        1.0  0.6736100000000003  0.91754  0.58941  1.0000
  H   H3        1.0  0.8574599999999999  0.73613  0.67387  1.0000
  H   H4        1.0  0.51253  0.18912  0.7755700000000001  1.0000
  H   H5        1.0  0.53475  0.99757  0.5695499999999999  1.0000
  H   H6        1.0  0.7941000000000003  0.26068  0.61591  1.0000
  H   H7        1.0  0.9556600000000002  0.8112000000000003  0.27051  1.0000
  H   H8        1.0  0.82639  0.58247  0.08941  1.0000
  H   H9        1.0  0.6425400000000001  0.7638700000000002  0.17387  1.0000
  H   H10       1.0  0.98747  0.31089000000000006  0.27557  1.0000
  H   H11       1.0  0.96525  0.50243  0.06955  1.0000
  H   H12       1.0  0.7059000000000001  0.23932000000000003  0.11591  1.0000
  H   H13       1.0  0.45566  0.3111900000000001  0.22949  1.0000
  H   H14       1.0  0.32639000000000007  0.08247000000000002  0.41059  1.0000
  H   H15       1.0  0.14254  0.26387  0.32613  1.0000
  H   H16       1.0  0.48747  0.81089  0.22443  1.0000
  H   H17       1.0  0.46525  0.00244  0.43045  1.0000
  H   H18       1.0  0.2059  0.73932  0.38409  1.0000
  H   H19       1.0  0.04434000000000001  0.18881000000000003  0.72949  1.0000
  H   H20       1.0  0.17361000000000007  0.4175400000000001  0.91059  1.0000
  H   H21       1.0  0.3574600000000001  0.23613  0.82613  1.0000
  H   H22       1.0  0.012530000000000095  0.6891200000000002  0.72443  1.0000
  H   H23       1.0  0.03474  0.49757  0.93045  1.0000
  H   H24       1.0  0.29410000000000003  0.76068  0.8840899999999999  1.0000
  C   C1        1.0  0.70886  0.61372  0.78022  1.0000
  C   C2        1.0  0.70077  0.70025  0.72722  1.0000
  C   C3        1.0  0.6104900000000002  0.7294500000000002  0.7286899999999998  1.0000
  C   C4        1.0  0.6824  0.85643  0.62933  1.0000
  C   C5        1.0  0.7768500000000003  0.8347800000000001  0.62455  1.0000
  C   C6        1.0  0.8671600000000003  0.89588  0.56878  1.0000
  C   C7        1.0  0.7855500000000002  0.7552400000000001  0.6752  1.0000
  C   C8        1.0  0.7017700000000002  0.3302  0.75559  1.0000
  C   C9        1.0  0.65885  0.23598  0.70266  1.0000
  C   C10       1.0  0.5593000000000001  0.17144000000000004  0.7221  1.0000
  C   C11       1.0  0.57161  0.06548  0.60662  1.0000
  C   C12       1.0  0.6702600000000001  0.12701  0.5813  1.0000
  C   C13       1.0  0.72281  0.10019  0.50026  1.0000
  C   C14       1.0  0.7160200000000002  0.21229  0.63212  1.0000
  C   C15       1.0  0.79115  0.88629  0.28022  1.0000
  C   C16       1.0  0.7992300000000002  0.7997500000000001  0.22722  1.0000
  C   C17       1.0  0.88951  0.77056  0.22869  1.0000
  C   C18       1.0  0.8176000000000001  0.64358  0.12933  1.0000
  C   C19       1.0  0.7231400000000001  0.66523  0.12455  1.0000
  C   C20       1.0  0.6328500000000001  0.60412  0.06878  1.0000
  C   C21       1.0  0.71445  0.7447700000000003  0.1752  1.0000
  C   C22       1.0  0.79825  0.1698  0.2556  1.0000
  C   C23       1.0  0.8411500000000001  0.26403  0.20266  1.0000
  C   C24       1.0  0.94071  0.32857000000000003  0.2221  1.0000
  C   C25       1.0  0.92839  0.43452  0.10662000000000002  1.0000
  C   C26       1.0  0.8297399999999999  0.37299  0.0813  1.0000
  C   C27       1.0  0.7772100000000002  0.39982000000000006  0.00026  1.0000
  C   C28       1.0  0.7839900000000001  0.28771  0.13212  1.0000
  C   C29       1.0  0.29114000000000007  0.38629  0.21978  1.0000
  C   C30       1.0  0.29923000000000005  0.29975  0.27277999999999997  1.0000
  C   C31       1.0  0.38951  0.27056  0.27131  1.0000
  C   C32       1.0  0.3176  0.14358  0.37067  1.0000
  C   C33       1.0  0.22314  0.16523  0.37545  1.0000
  C   C34       1.0  0.13285  0.10412  0.43123  1.0000
  C   C35       1.0  0.21446000000000007  0.24477  0.3248  1.0000
  C   C36       1.0  0.29823  0.6698  0.24441  1.0000
  C   C37       1.0  0.34115  0.76403  0.29734  1.0000
  C   C38       1.0  0.44070000000000004  0.8285700000000003  0.2779  1.0000
  C   C39       1.0  0.4283900000000001  0.9345200000000001  0.39338  1.0000
  C   C40       1.0  0.32974  0.873  0.4187  1.0000
  C   C41       1.0  0.2771800000000001  0.89981  0.49973999999999996  1.0000
  C   C42       1.0  0.28398  0.78771  0.36788  1.0000
  C   C43       1.0  0.20885  0.11371  0.71978  1.0000
  C   C44       1.0  0.20077000000000006  0.20025  0.77278  1.0000
  C   C45       1.0  0.11049000000000002  0.22944000000000003  0.77131  1.0000
  C   C46       1.0  0.18240000000000003  0.35643  0.87067  1.0000
  C   C47       1.0  0.27686000000000005  0.33478  0.87545  1.0000
  C   C48       1.0  0.3671500000000001  0.39588  0.93123  1.0000
  C   C49       1.0  0.28554  0.25524  0.8247999999999999  1.0000
  C   C50       1.0  0.2017500000000001  0.8302000000000002  0.7444  1.0000
  C   C51       1.0  0.15885  0.73598  0.79734  1.0000
  C   C52       1.0  0.05929000000000009  0.6714400000000001  0.7779  1.0000
  C   C53       1.0  0.07161000000000003  0.56548  0.8933799999999998  1.0000
  C   C54       1.0  0.17026  0.62702  0.9187  1.0000
  C   C55       1.0  0.22279  0.60018  0.99974  1.0000
  C   C56       1.0  0.21601000000000006  0.7122900000000001  0.86788  1.0000
  N   N1        1.0  0.6005900000000001  0.80652  0.68088  1.0000
  N   N2        1.0  0.51672  0.08615  0.67609  1.0000
  N   N3        1.0  0.8994100000000002  0.6934900000000002  0.18088  1.0000
  N   N4        1.0  0.98329  0.41385  0.17609  1.0000
  N   N5        1.0  0.3994100000000001  0.19349  0.31912  1.0000
  N   N6        1.0  0.48328  0.91386  0.32391  1.0000
  N   N7        1.0  0.10059000000000001  0.30652000000000007  0.81912  1.0000
  N   N8        1.0  0.01670999999999999  0.58615  0.82391  1.0000
  O   O1        1.0  0.79867  0.59957  0.77779  1.0000
  O   O2        1.0  0.63  0.56101  0.82319  1.0000
  O   O3        1.0  0.8497200000000001  0.95702  0.514  1.0000
  O   O4        1.0  0.9544600000000001  0.88076  0.58204  1.0000
  O   O5        1.0  0.63965  0.35762  0.80502  1.0000
  O   O6        1.0  0.79972  0.37616  0.74541  1.0000
  O   O7        1.0  0.66169  0.03783  0.44569  1.0000
  O   O8        1.0  0.81997  0.1378  0.49146  1.0000
  O   O9        1.0  0.7013300000000001  0.90044  0.27779  1.0000
  O   O10       1.0  0.8699900000000002  0.9390000000000001  0.3231899999999999  1.0000
  O   O11       1.0  0.65028  0.54298  0.014  1.0000
  O   O12       1.0  0.5455300000000001  0.6192400000000001  0.08204  1.0000
  O   O13       1.0  0.86034  0.14239  0.30502  1.0000
  O   O14       1.0  0.7002800000000001  0.12384  0.2454  1.0000
  O   O15       1.0  0.8383100000000001  0.46217  0.94569  1.0000
  O   O16       1.0  0.6800200000000001  0.36219  0.99146  1.0000
  O   O17       1.0  0.20133000000000006  0.40043000000000006  0.22221  1.0000
  O   O18       1.0  0.37000000000000005  0.439  0.17681  1.0000
  O   O19       1.0  0.15028000000000005  0.04299  0.486  1.0000
  O   O20       1.0  0.045530000000000015  0.11924000000000003  0.41797  1.0000
  O   O21       1.0  0.36034  0.64238  0.19498  1.0000
  O   O22       1.0  0.20027999999999999  0.62384  0.25459  1.0000
  O   O23       1.0  0.33831  0.96217  0.55431  1.0000
  O   O24       1.0  0.1800300000000001  0.8622000000000002  0.50854  1.0000
  O   O25       1.0  0.2986700000000001  0.09957  0.72221  1.0000
  O   O26       1.0  0.13001000000000001  0.061010000000000016  0.6768199999999999  1.0000
  O   O27       1.0  0.34972  0.45702  0.986  1.0000
  O   O28       1.0  0.45447  0.38076  0.91797  1.0000
  O   O29       1.0  0.1396600000000001  0.8576200000000003  0.6949899999999999  1.0000
  O   O30       1.0  0.29972  0.87617  0.7546  1.0000
  O   O31       1.0  0.16169000000000006  0.53784  0.05431  1.0000
  O   O32       1.0  0.31998  0.63781  0.00855  1.0000
