data_image0
_chemical_formula_structural       Zn6H72C52N12O12
_chemical_formula_sum              "Zn6 H72 C52 N12 O12"
_cell_length_a       14.78184
_cell_length_b       13.70745
_cell_length_c       13.605570000000002
_cell_angle_alpha    65.84491
_cell_angle_beta     59.453890000000015
_cell_angle_gamma    57.757099999999994

_symmetry_space_group_name_H-M    'P 1'
_symmetry_Int_Tables_number       1

loop_
  _symmetry_equiv_pos_as_xyz
  'x,y,z'

loop_
  _atom_site_type_symbol
  _atom_site_label
  _atom_site_symmetry_multiplicity
  _atom_site_fract_x
  _atom_site_fract_y
  _atom_site_fract_z
  _atom_site_occupancy
  Zn  Zn1       1.0  0.6589199999999995  0.39579999999999993  0.3102  1.0000
  Zn  Zn2       1.0  0.31816  0.6316500000000002  0.64378  1.0000
  Zn  Zn3       1.0  0.34677999999999987  0.32550999999999997  0.65698  1.0000
  Zn  Zn4       1.0  0.6663699999999998  0.6671299999999998  0.34802  1.0000
  Zn  Zn5       1.0  0.37642  0.62871  0.40394  1.0000
  Zn  Zn6       1.0  0.66003  0.34094999999999986  0.66209  1.0000
  H   H1        1.0  0.63753  0.20362  0.35021  1.0000
  H   H2        1.0  0.46232999999999985  0.3333899999999999  0.34683  1.0000
  H   H3        1.0  0.52051  0.40396999999999994  0.20291  1.0000
  H   H4        1.0  0.52082  0.3684699999999999  0.05189  1.0000
  H   H5        1.0  0.7372899999999998  0.29314999999999997  0.09994999999999998  1.0000
  H   H6        1.0  0.7509299999999999  0.14659  0.16099  1.0000
  H   H7        1.0  0.8618899999999996  0.35035  0.14031  1.0000
  H   H8        1.0  0.8840499999999994  0.34943  0.30285  1.0000
  H   H9        1.0  0.88721  0.20736  0.36195  1.0000
  H   H10       1.0  0.07124000000000001  0.050179999999999995  0.33501  1.0000
  H   H11       1.0  0.85553  0.12333999999999994  0.27486  1.0000
  H   H12       1.0  0.9305899999999997  0.15668999999999997  0.12384  1.0000
  H   H13       1.0  0.35011  0.80831  0.6277  1.0000
  H   H14       1.0  0.33814000000000016  0.8580899999999999  0.45303999999999994  1.0000
  H   H15       1.0  0.1948600000000002  0.8712599999999999  0.51846  1.0000
  H   H16       1.0  0.04508000000000002  0.054189999999999995  0.52458  1.0000
  H   H17       1.0  0.10396000000000004  0.85323  0.7363299999999999  1.0000
  H   H18       1.0  0.15926999999999997  0.93514  0.74612  1.0000
  H   H19       1.0  0.15835999999999997  0.63785  0.84907  1.0000
  H   H20       1.0  0.3174599999999998  0.46152999999999994  0.8818499999999999  1.0000
  H   H21       1.0  0.3719199999999999  0.54611  0.88601  1.0000
  H   H22       1.0  0.34591  0.54173  0.07253  1.0000
  H   H23       1.0  0.2829899999999999  0.74934  0.8453599999999999  1.0000
  H   H24       1.0  0.13449000000000014  0.7818599999999999  0.9259999999999999  1.0000
  H   H25       1.0  0.17897999999999986  0.36088999999999993  0.63089  1.0000
  H   H26       1.0  0.3001399999999999  0.3136599999999999  0.44937  1.0000
  H   H27       1.0  0.38261000000000006  0.17066999999999993  0.5077  1.0000
  H   H28       1.0  0.35888999999999993  0.01073000000000001  0.51657  1.0000
  H   H29       1.0  0.28306000000000003  0.10785999999999998  0.72731  1.0000
  H   H30       1.0  0.13677999999999998  0.19008  0.74261  1.0000
  H   H31       1.0  0.34788999999999987  0.15116999999999992  0.8419700000000001  1.0000
  H   H32       1.0  0.34422  0.28713  0.90712  1.0000
  H   H33       1.0  0.20490000000000005  0.38461  0.90359  1.0000
  H   H34       1.0  0.035169999999999986  0.36749  0.07506  1.0000
  H   H35       1.0  0.11704999999999997  0.32326  0.8447  1.0000
  H   H36       1.0  0.15462000000000006  0.17548000000000002  0.9222599999999999  1.0000
  H   H37       1.0  0.8501399999999997  0.66158  0.34456  1.0000
  H   H38       1.0  0.9163099999999996  0.46421  0.34217  1.0000
  H   H39       1.0  0.9145799999999995  0.50653  0.20097  1.0000
  H   H40       1.0  0.08392000000000001  0.52713  0.03029  1.0000
  H   H41       1.0  0.8553800000000003  0.7107699999999999  0.11143999999999998  1.0000
  H   H42       1.0  0.9292400000000001  0.7484599999999999  0.15013  1.0000
  H   H43       1.0  0.63643  0.8198899999999999  0.17836  1.0000
  H   H44       1.0  0.46041999999999983  0.92254  0.29875  1.0000
  H   H45       1.0  0.5172399999999997  0.9294199999999999  0.38166  1.0000
  H   H46       1.0  0.5265099999999999  0.10085999999999998  0.35991  1.0000
  H   H47       1.0  0.73556  0.8817599999999998  0.27561  1.0000
  H   H48       1.0  0.7499600000000002  0.9246699999999999  0.12885  1.0000
  H   H49       1.0  0.35990000000000005  0.6017099999999999  0.20444  1.0000
  H   H50       1.0  0.31604  0.44342  0.32172  1.0000
  H   H51       1.0  0.17448  0.53572  0.39862999999999993  1.0000
  H   H52       1.0  0.04590000000000002  0.51434  0.37091999999999997  1.0000
  H   H53       1.0  0.11925999999999995  0.75793  0.31801  1.0000
  H   H54       1.0  0.17389  0.7371999999999997  0.17494  1.0000
  H   H55       1.0  0.19209000000000012  0.8598399999999999  0.35056  1.0000
  H   H56       1.0  0.3191  0.93723  0.30671  1.0000
  H   H57       1.0  0.39507000000000003  0.9020199999999999  0.16709  1.0000
  H   H58       1.0  0.37064  0.07993  0.03712  1.0000
  H   H59       1.0  0.32717  0.8038  0.11704  1.0000
  H   H60       1.0  0.1837699999999999  0.91265  0.15825  1.0000
  H   H61       1.0  0.6206199999999995  0.35041  0.87174  1.0000
  H   H62       1.0  0.45992999999999973  0.32537999999999995  0.9126799999999999  1.0000
  H   H63       1.0  0.5493700000000001  0.17933000000000004  0.88863  1.0000
  H   H64       1.0  0.53378  0.03940999999999999  0.06863  1.0000
  H   H65       1.0  0.7524499999999996  0.10666999999999992  0.8411300000000002  1.0000
  H   H66       1.0  0.75124  0.16966999999999993  0.93253  1.0000
  H   H67       1.0  0.8643599999999999  0.15752  0.62149  1.0000
  H   H68       1.0  0.91042  0.29802999999999996  0.45868  1.0000
  H   H69       1.0  0.89166  0.3766399999999999  0.54805  1.0000
  H   H70       1.0  0.07173000000000006  0.35165999999999986  0.52824  1.0000
  H   H71       1.0  0.8416299999999999  0.29688  0.75396  1.0000
  H   H72       1.0  0.9305799999999999  0.14547  0.75153  1.0000
  C   C1        1.0  0.53006  0.3179600000000001  0.26071  1.0000
  C   C2        1.0  0.5239399999999999  0.24213000000000004  0.21135999999999996  1.0000
  C   C3        1.0  0.5235499999999997  0.28135  0.09861  1.0000
  C   C4        1.0  0.74465  0.22298999999999994  0.17675  1.0000
  C   C5        1.0  0.9119499999999999  0.26702999999999993  0.28003  1.0000
  C   C6        1.0  0.04024000000000001  0.21474  0.2126  1.0000
  C   C7        1.0  0.11036999999999993  0.10107  0.25442  1.0000
  C   C8        1.0  0.8503599999999998  0.19211000000000003  0.19677  1.0000
  C   C9        1.0  0.2552500000000001  0.8898499999999998  0.52474  1.0000
  C   C10       1.0  0.2075399999999999  0.019500000000000007  0.52031  1.0000
  C   C11       1.0  0.09445000000000006  0.09242999999999997  0.52263  1.0000
  C   C12       1.0  0.17930000000000001  0.84769  0.73987  1.0000
  C   C13       1.0  0.2918499999999999  0.54065  0.90891  1.0000
  C   C14       1.0  0.22279999999999994  0.53334  0.03828  1.0000
  C   C15       1.0  0.26508  0.53294  0.11064  1.0000
  C   C16       1.0  0.2060600000000001  0.7560599999999997  0.84396  1.0000
  C   C17       1.0  0.29425999999999997  0.23763  0.51945  1.0000
  C   C18       1.0  0.22559999999999994  0.18857  0.51785  1.0000
  C   C19       1.0  0.27156  0.06746  0.51797  1.0000
  C   C20       1.0  0.21152000000000007  0.19566000000000003  0.73531  1.0000
  C   C21       1.0  0.26177000000000006  0.29189  0.92246  1.0000
  C   C22       1.0  0.20919999999999989  0.23235  0.04195  1.0000
  C   C23       1.0  0.08946  0.27936999999999995  0.10768  1.0000
  C   C24       1.0  0.18486  0.23325999999999994  0.84108  1.0000
  C   C25       1.0  0.93204  0.52538  0.25898  1.0000
  C   C26       1.0  0.05093000000000006  0.5194399999999999  0.20705999999999997  1.0000
  C   C27       1.0  0.11688000000000001  0.52665  0.08632  1.0000
  C   C28       1.0  0.8493199999999999  0.73909  0.18023000000000003  1.0000
  C   C29       1.0  0.5287200000000001  0.9381299999999999  0.29265  1.0000
  C   C30       1.0  0.52492  0.05729  0.22471  1.0000
  C   C31       1.0  0.52491  0.13169999999999996  0.27298  1.0000
  C   C32       1.0  0.7433899999999999  0.8537699999999999  0.20545  1.0000
  C   C33       1.0  0.24297  0.5272  0.31152  1.0000
  C   C34       1.0  0.20050999999999983  0.52547  0.23227  1.0000
  C   C35       1.0  0.09551000000000005  0.5191599999999998  0.27759  1.0000
  C   C36       1.0  0.19845  0.73633  0.2397  1.0000
  C   C37       1.0  0.30852  0.9321499999999999  0.23507999999999998  1.0000
  C   C38       1.0  0.23120999999999997  0.052759999999999974  0.19046  1.0000
  C   C39       1.0  0.27782999999999974  0.11826  0.08615  1.0000
  C   C40       1.0  0.24473000000000006  0.8288599999999998  0.19149  1.0000
  C   C41       1.0  0.5373900000000001  0.24724000000000002  0.9225099999999999  1.0000
  C   C42       1.0  0.52808  0.20655999999999994  0.04637  1.0000
  C   C43       1.0  0.5290899999999998  0.09675  0.10944  1.0000
  C   C44       1.0  0.74776  0.18659  0.84793  1.0000
  C   C45       1.0  0.92178  0.28817  0.53644  1.0000
  C   C46       1.0  0.04500000000000002  0.21351999999999996  0.52631  1.0000
  C   C47       1.0  0.11042000000000006  0.2591099999999999  0.52422  1.0000
  C   C48       1.0  0.84684  0.21603999999999998  0.74852  1.0000
  C   C49       1.0  0.6280299999999999  0.6078  0.19794  1.0000
  C   C50       1.0  0.57711  0.29375  0.55712  1.0000
  C   C51       1.0  0.17679999999999998  0.56123  0.6629  1.0000
  C   C52       1.0  0.5636400000000001  0.5729299999999998  0.57848  1.0000
  N   N1        1.0  0.6396099999999998  0.2684099999999999  0.27736  1.0000
  N   N2        1.0  0.8390899999999999  0.29623  0.21832999999999997  1.0000
  N   N3        1.0  0.2773800000000001  0.8118999999999998  0.63137  1.0000
  N   N4        1.0  0.23292000000000004  0.6401599999999998  0.83286  1.0000
  N   N5        1.0  0.24768999999999994  0.27896  0.62925  1.0000
  N   N6        1.0  0.28889  0.23622999999999997  0.82966  1.0000
  N   N7        1.0  0.8385399999999998  0.6451899999999998  0.28558  1.0000
  N   N8        1.0  0.6386699999999995  0.8364699999999999  0.24471999999999997  1.0000
  N   N9        1.0  0.2821099999999998  0.62007  0.27281  1.0000
  N   N10       1.0  0.26669999999999994  0.8406800000000001  0.27873  1.0000
  N   N11       1.0  0.6358600000000001  0.28322  0.84211  1.0000
  N   N12       1.0  0.8395299999999997  0.23752999999999996  0.63608  1.0000
  O   O1        1.0  0.60249  0.5331999999999999  0.19057  1.0000
  O   O2        1.0  0.657  0.32589999999999997  0.47118  1.0000
  O   O3        1.0  0.15201000000000006  0.67024  0.65241  1.0000
  O   O4        1.0  0.4763900000000001  0.54953  0.65673  1.0000
  O   O5        1.0  0.5064399999999996  0.2798300000000001  0.53943  1.0000
  O   O6        1.0  0.2812400000000002  0.4864699999999999  0.67631  1.0000
  O   O7        1.0  0.6812500000000001  0.55873  0.27503  1.0000
  O   O8        1.0  0.5504199999999995  0.67448  0.50809  1.0000
  O   O9        1.0  0.11823999999999994  0.52107  0.6621  1.0000
  O   O10       1.0  0.6073999999999997  0.71111  0.14294  1.0000
  O   O11       1.0  0.5697199999999996  0.2745  0.66247  1.0000
  O   O12       1.0  0.6676999999999995  0.4924799999999999  0.57059  1.0000
