data_image0
_chemical_formula_structural       Cu4H48C80N16
_chemical_formula_sum              "Cu4 H48 C80 N16"
_cell_length_a       14.10104
_cell_length_b       14.09062
_cell_length_c       19.74315
_cell_angle_alpha    90.0
_cell_angle_beta     90.0
_cell_angle_gamma    90.09354

_space_group_name_H-M_alt    "P 1"
_space_group_IT_number       1

loop_
  _space_group_symop_operation_xyz
  'x, y, z'

loop_
  _atom_site_type_symbol
  _atom_site_label
  _atom_site_symmetry_multiplicity
  _atom_site_fract_x
  _atom_site_fract_y
  _atom_site_fract_z
  _atom_site_occupancy
  Cu  Cu1       1.0  0.5  0.49999  0.99948  1.0000
  Cu  Cu2       1.0  0.0  0.0  0.50062  1.0000
  Cu  Cu3       1.0  4e-05  3e-05  0.9983900000000001  1.0000
  Cu  Cu4       1.0  0.50001  0.49999  0.50123  1.0000
  H   H1        1.0  0.39917  0.33731  0.2276  1.0000
  H   H2        1.0  0.3021700000000001  0.24397000000000002  0.13171  1.0000
  H   H3        1.0  0.15854  0.32064  0.07174  1.0000
  H   H4        1.0  0.04495  0.18440000000000004  0.07499  1.0000
  H   H5        1.0  0.65283  0.50548  0.26221  1.0000
  H   H6        1.0  0.64679  0.50424  0.38786  1.0000
  H   H7        1.0  0.60083  0.66268  0.22759  1.0000
  H   H8        1.0  0.69783  0.75602  0.13171  1.0000
  H   H9        1.0  0.84146  0.67936  0.07174  1.0000
  H   H10       1.0  0.95506  0.81559  0.07498  1.0000
  H   H11       1.0  0.34717000000000003  0.49452  0.26221  1.0000
  H   H12       1.0  0.35321  0.49576  0.38786  1.0000
  H   H13       1.0  0.16242  0.89958  0.72879  1.0000
  H   H14       1.0  0.25764  0.80477  0.63244  1.0000
  H   H15       1.0  0.17564  0.66169  0.57221  1.0000
  H   H16       1.0  0.29883000000000004  0.53466  0.56627  1.0000
  H   H17       1.0  0.99572  0.15305  0.76342  1.0000
  H   H18       1.0  0.9976600000000001  0.14725  0.88877  1.0000
  H   H19       1.0  0.83758  0.10041000000000003  0.72879  1.0000
  H   H20       1.0  0.74235  0.19522  0.63244  1.0000
  H   H21       1.0  0.82436  0.3383  0.57221  1.0000
  H   H22       1.0  0.70117  0.46534  0.56627  1.0000
  H   H23       1.0  0.00429  0.84695  0.76342  1.0000
  H   H24       1.0  0.0023200000000000004  0.85275  0.88877  1.0000
  H   H25       1.0  0.10041  0.8375  0.27241  1.0000
  H   H26       1.0  0.19747  0.74423  0.36828  1.0000
  H   H27       1.0  0.3413  0.8211600000000002  0.42823999999999995  1.0000
  H   H28       1.0  0.45469000000000004  0.68511  0.42496  1.0000
  H   H29       1.0  0.84718  0.00516  0.23819  1.0000
  H   H30       1.0  0.85322  0.00405  0.11249999999999999  1.0000
  H   H31       1.0  0.8995900000000001  0.1625  0.27241  1.0000
  H   H32       1.0  0.80252  0.25577  0.36828  1.0000
  H   H33       1.0  0.6587000000000001  0.17884000000000003  0.42823999999999995  1.0000
  H   H34       1.0  0.54531  0.31488  0.42496  1.0000
  H   H35       1.0  0.15282  0.99484  0.23819  1.0000
  H   H36       1.0  0.14678  0.9959400000000002  0.11249999999999999  1.0000
  H   H37       1.0  0.33737000000000006  0.39908  0.7711  1.0000
  H   H38       1.0  0.24203  0.30436  0.86756  1.0000
  H   H39       1.0  0.3241  0.1615  0.92786  1.0000
  H   H40       1.0  0.20064  0.03423  0.93371  1.0000
  H   H41       1.0  0.50451  0.65306  0.73647  1.0000
  H   H42       1.0  0.5025  0.64718  0.61108  1.0000
  H   H43       1.0  0.66263  0.60091  0.7711  1.0000
  H   H44       1.0  0.75797  0.69563  0.86756  1.0000
  H   H45       1.0  0.6759  0.83849  0.92786  1.0000
  H   H46       1.0  0.79938  0.96576  0.93371  1.0000
  H   H47       1.0  0.49549  0.34693  0.73647  1.0000
  H   H48       1.0  0.4975000000000001  0.35281000000000007  0.61108  1.0000
  C   C1        1.0  0.44365  0.43191  0.14151  1.0000
  C   C2        1.0  0.3949  0.35464  0.17433  1.0000
  C   C3        1.0  0.34558  0.30675  0.12522  1.0000
  C   C4        1.0  0.36441  0.35398  0.062180000000000006  1.0000
  C   C5        1.0  0.17073  0.25816  0.0406  1.0000
  C   C6        1.0  0.10700000000000003  0.18279  0.04214  1.0000
  C   C7        1.0  0.58473  0.50391  0.28804  1.0000
  C   C8        1.0  0.5817400000000001  0.50329  0.35818  1.0000
  C   C9        1.0  0.55635  0.56809  0.14151  1.0000
  C   C10       1.0  0.6051  0.64536  0.17434  1.0000
  C   C11       1.0  0.6544300000000001  0.69326  0.12522  1.0000
  C   C12       1.0  0.63559  0.64602  0.062180000000000006  1.0000
  C   C13       1.0  0.82928  0.74183  0.0406  1.0000
  C   C14       1.0  0.8930100000000001  0.8172  0.04214  1.0000
  C   C15       1.0  0.41528000000000004  0.49609  0.28804  1.0000
  C   C16       1.0  0.41826  0.4967100000000001  0.35818  1.0000
  C   C17       1.0  0.0686  0.94432  0.64249  1.0000
  C   C18       1.0  0.14583  0.89587  0.67538  1.0000
  C   C19       1.0  0.19462  0.84768  0.62616  1.0000
  C   C20       1.0  0.14797  0.86691  0.56305  1.0000
  C   C21       1.0  0.23752  0.67031  0.53991  1.0000
  C   C22       1.0  0.30544000000000004  0.59914  0.53621  1.0000
  C   C23       1.0  0.9968200000000002  0.08479  0.78917  1.0000
  C   C24       1.0  0.99785  0.08196  0.8593  1.0000
  C   C25       1.0  0.9314  0.05568  0.64249  1.0000
  C   C26       1.0  0.8541600000000003  0.10412000000000002  0.67537  1.0000
  C   C27       1.0  0.80538  0.1523  0.62616  1.0000
  C   C28       1.0  0.85203  0.13308  0.56306  1.0000
  C   C29       1.0  0.76248  0.32968  0.5399  1.0000
  C   C30       1.0  0.69457  0.40085  0.53621  1.0000
  C   C31       1.0  0.00319  0.91521  0.78917  1.0000
  C   C32       1.0  0.00214  0.91805  0.8593  1.0000
  C   C33       1.0  0.05614000000000001  0.93185  0.35863  1.0000
  C   C34       1.0  0.10475000000000001  0.85472  0.32569  1.0000
  C   C35       1.0  0.15409  0.80688  0.37475  1.0000
  C   C36       1.0  0.13535  0.8540100000000003  0.43782  1.0000
  C   C37       1.0  0.3289300000000001  0.75857  0.45927999999999997  1.0000
  C   C38       1.0  0.39263  0.68337  0.4578  1.0000
  C   C39       1.0  0.91525  0.00372  0.21230000000000002  1.0000
  C   C40       1.0  0.91827  0.00316  0.14216  1.0000
  C   C41       1.0  0.94386  0.06815  0.35863  1.0000
  C   C42       1.0  0.89525  0.14528  0.3257  1.0000
  C   C43       1.0  0.8459  0.19311000000000003  0.37475  1.0000
  C   C44       1.0  0.86465  0.14599  0.43782  1.0000
  C   C45       1.0  0.67107  0.24142000000000002  0.45926999999999996  1.0000
  C   C46       1.0  0.60738  0.31663  0.4578  1.0000
  C   C47       1.0  0.08475  0.99628  0.21230000000000002  1.0000
  C   C48       1.0  0.08173  0.99684  0.14216  1.0000
  C   C49       1.0  0.43132  0.44419  0.85739  1.0000
  C   C50       1.0  0.35399  0.39556  0.82451  1.0000
  C   C51       1.0  0.30512  0.34737000000000007  0.87379  1.0000
  C   C52       1.0  0.35186  0.36675  0.9368800000000002  1.0000
  C   C53       1.0  0.26209  0.17007  0.9600199999999999  1.0000
  C   C54       1.0  0.19416  0.09871  0.9637599999999998  1.0000
  C   C55       1.0  0.50329  0.58479  0.71072  1.0000
  C   C56       1.0  0.50224  0.58193  0.64057  1.0000
  C   C57       1.0  0.56867  0.55581  0.85739  1.0000
  C   C58       1.0  0.6460100000000001  0.60443  0.82452  1.0000
  C   C59       1.0  0.6948700000000001  0.65262  0.8738000000000001  1.0000
  C   C60       1.0  0.64813  0.6332500000000002  0.93687  1.0000
  C   C61       1.0  0.73791  0.82992  0.9600199999999999  1.0000
  C   C62       1.0  0.80585  0.90128  0.9637599999999998  1.0000
  C   C63       1.0  0.4967  0.4152  0.71072  1.0000
  C   C64       1.0  0.49775  0.41806  0.64057  1.0000
  C   C65       1.0  0.32526  0.32799  0.99951  1.0000
  C   C66       1.0  0.25217  0.25245  0.99967  1.0000
  C   C67       1.0  0.6747400000000001  0.67201  0.99952  1.0000
  C   C68       1.0  0.7478400000000001  0.74755  0.99968  1.0000
  C   C69       1.0  0.17453000000000002  0.82811  0.50045  1.0000
  C   C70       1.0  0.24753  0.75269  0.50025  1.0000
  C   C71       1.0  0.8254700000000001  0.17188000000000003  0.50045  1.0000
  C   C72       1.0  0.75247  0.2473  0.50026  1.0000
  C   C73       1.0  0.5  0.5  0.17558  1.0000
  C   C74       1.0  0.5  0.5  0.24985  1.0000
  C   C75       1.0  0.0  0.0  0.67656  1.0000
  C   C76       1.0  0.99999  0.0  0.75085  1.0000
  C   C77       1.0  0.0  0.0  0.32465  1.0000
  C   C78       1.0  0.0  0.0  0.25042  1.0000
  C   C79       1.0  0.5  0.5  0.82332  1.0000
  C   C80       1.0  0.5  0.5  0.74903  1.0000
  N   N1        1.0  0.42692  0.42917  0.07267  1.0000
  N   N2        1.0  0.57308  0.57083  0.07267  1.0000
  N   N3        1.0  0.07214  0.92842  0.57357  1.0000
  N   N4        1.0  0.92786  0.07158  0.57357  1.0000
  N   N5        1.0  0.07287  0.92904  0.42744  1.0000
  N   N6        1.0  0.92713  0.07095  0.42744  1.0000
  N   N7        1.0  0.4278  0.42833  0.9263100000000001  1.0000
  N   N8        1.0  0.57219  0.57167  0.9263100000000001  1.0000
  N   N9        1.0  0.11796  0.10297  0.0051  1.0000
  N   N10       1.0  0.88206  0.89701  0.0051  1.0000
  N   N11       1.0  0.38168  0.60364  0.49494000000000005  1.0000
  N   N12       1.0  0.6183200000000001  0.39636000000000005  0.49494000000000005  1.0000
  N   N13       1.0  0.5  0.5  0.39439  1.0000
  N   N14       1.0  0.99999  0.0  0.89569  1.0000
  N   N15       1.0  0.0  0.0  0.10597  1.0000
  N   N16       1.0  0.5  0.5  0.60414  1.0000
