data_image0
_chemical_formula_structural       Ni3H48C72N30
_chemical_formula_sum              "Ni3 H48 C72 N30"
_cell_length_a       9.60223
_cell_length_b       16.32796
_cell_length_c       16.31732
_cell_angle_alpha    116.43226000000001
_cell_angle_beta     101.2449
_cell_angle_gamma    101.28901

_space_group_name_H-M_alt    "P 1"
_space_group_IT_number       1

loop_
  _space_group_symop_operation_xyz
  'x, y, z'

loop_
  _atom_site_type_symbol
  _atom_site_label
  _atom_site_symmetry_multiplicity
  _atom_site_fract_x
  _atom_site_fract_y
  _atom_site_fract_z
  _atom_site_occupancy
  Ni  Ni1       1.0  0.49868000000000007  0.99943  0.4995  1.0000
  Ni  Ni2       1.0  0.99981  0.49992  0.4998699999999999  1.0000
  Ni  Ni3       1.0  0.49993  0.49998000000000004  0.99987  1.0000
  H   H1        1.0  0.50894  0.13862999999999995  0.4094099999999999  1.0000
  H   H2        1.0  0.66754  0.18647999999999995  0.3215899999999999  1.0000
  H   H3        1.0  0.8637299999999999  0.10728  0.28112  1.0000
  H   H4        1.0  0.89444  0.98413  0.33111  1.0000
  H   H5        1.0  0.85345  0.64381  0.60778  1.0000
  H   H6        1.0  0.74879  0.76719  0.59326  1.0000
  H   H7        1.0  0.9646899999999998  0.7460499999999999  0.3799999999999999  1.0000
  H   H8        1.0  0.052189999999999986  0.61836  0.39773  1.0000
  H   H9        1.0  0.09974999999999996  0.59074  0.7304399999999999  1.0000
  H   H10       1.0  0.34645  0.6790499999999999  0.8661599999999999  1.0000
  H   H11       1.0  0.58236  0.71922  0.82674  1.0000
  H   H12       1.0  0.56202  0.66848  0.65288  1.0000
  H   H13       1.0  0.24682  0.39114  0.03509  1.0000
  H   H14       1.0  0.15542  0.40601  0.17277  1.0000
  H   H15       1.0  0.58264  0.62032  0.3667099999999999  1.0000
  H   H16       1.0  0.65354  0.60276  0.22151  1.0000
  H   H17       1.0  0.37000999999999995  0.271  0.8612  1.0000
  H   H18       1.0  0.4790999999999999  0.1345599999999999  0.8128099999999998  1.0000
  H   H19       1.0  0.75403  0.17264000000000002  0.89169  1.0000
  H   H20       1.0  0.9087599999999999  0.34602  0.01535  1.0000
  H   H21       1.0  0.2114  0.9651  0.35676  1.0000
  H   H22       1.0  0.98269  0.82718  0.23366  1.0000
  H   H23       1.0  0.21837  0.63434  0.25391  1.0000
  H   H24       1.0  0.4338  0.77991  0.38165  1.0000
  H   H25       1.0  0.49093  0.86136  0.59051  1.0000
  H   H26       1.0  0.33252000000000004  0.81357  0.67846  1.0000
  H   H27       1.0  0.13623999999999992  0.89269  0.71891  1.0000
  H   H28       1.0  0.10549999999999998  0.015899999999999935  0.6689899999999999  1.0000
  H   H29       1.0  0.14653  0.3562  0.39222  1.0000
  H   H30       1.0  0.25121  0.23282  0.40675  1.0000
  H   H31       1.0  0.03529999999999995  0.25395999999999996  0.6199999999999999  1.0000
  H   H32       1.0  0.94778  0.38165  0.60227  1.0000
  H   H33       1.0  0.90026  0.40927  0.26956  1.0000
  H   H34       1.0  0.6535399999999999  0.32095  0.13385  1.0000
  H   H35       1.0  0.41764  0.28078  0.17325999999999997  1.0000
  H   H36       1.0  0.43796  0.3315199999999999  0.3471199999999999  1.0000
  H   H37       1.0  0.75317  0.60887  0.9649099999999998  1.0000
  H   H38       1.0  0.8445800000000001  0.59399  0.82724  1.0000
  H   H39       1.0  0.4173499999999999  0.3796899999999999  0.6332999999999998  1.0000
  H   H40       1.0  0.34644999999999987  0.39723999999999987  0.7784899999999998  1.0000
  H   H41       1.0  0.6299899999999999  0.7289999999999998  0.1388  1.0000
  H   H42       1.0  0.5209  0.86545  0.18719  1.0000
  H   H43       1.0  0.24596999999999997  0.82737  0.10831  1.0000
  H   H44       1.0  0.09122999999999998  0.65399  0.9846499999999998  1.0000
  H   H45       1.0  0.7884399999999999  0.034849999999999895  0.6431799999999998  1.0000
  H   H46       1.0  0.01715999999999997  0.17276  0.76625  1.0000
  H   H47       1.0  0.7815699999999999  0.36561  0.74603  1.0000
  H   H48       1.0  0.5661  0.22008999999999998  0.61835  1.0000
  C   C1        1.0  0.59496  0.10626  0.38922  1.0000
  C   C2        1.0  0.6832999999999998  0.13208999999999996  0.3404899999999999  1.0000
  C   C3        1.0  0.7920499999999999  0.08773999999999997  0.31799  1.0000
  C   C4        1.0  0.80981  0.019550000000000005  0.34491  1.0000
  C   C5        1.0  0.71742  0.99749  0.39385  1.0000
  C   C6        1.0  0.72925  0.93106  0.42928  1.0000
  C   C7        1.0  0.78477  0.83534  0.47269  1.0000
  C   C8        1.0  0.8751999999999999  0.66808  0.55803  1.0000
  C   C9        1.0  0.8185900000000002  0.73714  0.55058  1.0000
  C   C10       1.0  0.8486799999999999  0.76648  0.48514  1.0000
  C   C11       1.0  0.9377400000000001  0.72464  0.43082  1.0000
  C   C12       1.0  0.98738  0.65436  0.44127  1.0000
  C   C13       1.0  0.20560999999999993  0.6108  0.7179499999999999  1.0000
  C   C14       1.0  0.34282  0.65979  0.79255  1.0000
  C   C15       1.0  0.4736799999999999  0.68216  0.7703399999999998  1.0000
  C   C16       1.0  0.46403  0.65489  0.67493  1.0000
  C   C17       1.0  0.32262  0.60579  0.60398  1.0000
  C   C18       1.0  0.29899  0.57019  0.50189  1.0000
  C   C19       1.0  0.311  0.52685  0.36248  1.0000
  C   C20       1.0  0.31747  0.44146  0.10944999999999998  1.0000
  C   C21       1.0  0.26773  0.44898999999999994  0.18587  1.0000
  C   C22       1.0  0.36244  0.51464  0.28111  1.0000
  C   C23       1.0  0.50555  0.56934  0.2940999999999999  1.0000
  C   C24       1.0  0.54525  0.55898  0.21345  1.0000
  C   C25       1.0  0.48815000000000003  0.28298  0.8935  1.0000
  C   C26       1.0  0.5497199999999998  0.20793999999999996  0.8673599999999998  1.0000
  C   C27       1.0  0.70259  0.2294599999999999  0.9115799999999997  1.0000
  C   C28       1.0  0.7889099999999999  0.32476999999999995  0.9800099999999999  1.0000
  C   C29       1.0  0.71956  0.39631  0.0023699999999999997  1.0000
  C   C30       1.0  0.79817  0.49841  0.06897  1.0000
  C   C31       1.0  0.9493999999999999  0.63788  0.16495  1.0000
  C   C32       1.0  0.20822999999999997  0.89089  0.3323399999999999  1.0000
  C   C33       1.0  0.08222999999999994  0.8143  0.26337  1.0000
  C   C34       1.0  0.08236999999999993  0.71929  0.23382999999999998  1.0000
  C   C35       1.0  0.21300000000000002  0.70665  0.27538  1.0000
  C   C36       1.0  0.33322  0.78746  0.34571  1.0000
  C   C37       1.0  0.40485  0.8936800000000001  0.61069  1.0000
  C   C38       1.0  0.3166999999999999  0.86794  0.6595499999999999  1.0000
  C   C39       1.0  0.20792  0.91227  0.68205  1.0000
  C   C40       1.0  0.1901  0.98046  0.65517  1.0000
  C   C41       1.0  0.28228  0.0024600000000000004  0.60612  1.0000
  C   C42       1.0  0.27041  0.06891000000000004  0.57072  1.0000
  C   C43       1.0  0.21513999999999997  0.16471000000000005  0.52736  1.0000
  C   C44       1.0  0.12478000000000004  0.33193  0.44196  1.0000
  C   C45       1.0  0.18142000000000003  0.26289  0.44943  1.0000
  C   C46       1.0  0.15132  0.23357  0.5149  1.0000
  C   C47       1.0  0.06226  0.2754  0.56921  1.0000
  C   C48       1.0  0.01258000000000001  0.34565  0.55873  1.0000
  C   C49       1.0  0.79437  0.3892  0.28205  1.0000
  C   C50       1.0  0.65717  0.34021  0.20745  1.0000
  C   C51       1.0  0.52631  0.31785  0.22965  1.0000
  C   C52       1.0  0.53593  0.34509999999999996  0.32505999999999996  1.0000
  C   C53       1.0  0.67731  0.3942  0.39602  1.0000
  C   C54       1.0  0.7008999999999999  0.42978  0.4980999999999999  1.0000
  C   C55       1.0  0.68897  0.47315  0.63753  1.0000
  C   C56       1.0  0.6825299999999996  0.5585499999999999  0.8905599999999998  1.0000
  C   C57       1.0  0.7322599999999999  0.55102  0.8141299999999998  1.0000
  C   C58       1.0  0.63755  0.4853700000000001  0.7189  1.0000
  C   C59       1.0  0.4944399999999999  0.4306699999999999  0.7059099999999998  1.0000
  C   C60       1.0  0.4547399999999999  0.44102  0.78654  1.0000
  C   C61       1.0  0.51184  0.71702  0.10649999999999998  1.0000
  C   C62       1.0  0.4502700000000001  0.79206  0.13264  1.0000
  C   C63       1.0  0.2974  0.77054  0.08843  1.0000
  C   C64       1.0  0.21108  0.67523  0.02  1.0000
  C   C65       1.0  0.2804199999999999  0.6036899999999998  0.9976299999999999  1.0000
  C   C66       1.0  0.20178999999999994  0.5015799999999999  0.9310199999999998  1.0000
  C   C67       1.0  0.0505499999999999  0.36209  0.83503  1.0000
  C   C68       1.0  0.79151  0.10903  0.66755  1.0000
  C   C69       1.0  0.91761  0.18563  0.73652  1.0000
  C   C70       1.0  0.9175499999999998  0.28065999999999997  0.7661199999999999  1.0000
  C   C71       1.0  0.7869200000000001  0.29328  0.72454  1.0000
  C   C72       1.0  0.66663  0.21244999999999994  0.65423  1.0000
  N   N1        1.0  0.67887  0.86294  0.51352  1.0000
  N   N2        1.0  0.64351  0.92376  0.48441999999999996  1.0000
  N   N3        1.0  0.81943  0.8760299999999999  0.4192999999999999  1.0000
  N   N4        1.0  0.61088  0.04023000000000001  0.41517  1.0000
  N   N5        1.0  0.9566899999999999  0.62523  0.50336  1.0000
  N   N6        1.0  0.16454999999999992  0.48569999999999997  0.3490999999999999  1.0000
  N   N7        1.0  0.15842  0.51477  0.43923  1.0000
  N   N8        1.0  0.39899  0.58039  0.45682  1.0000
  N   N9        1.0  0.1951  0.58454  0.62564  1.0000
  N   N10       1.0  0.45335  0.49658  0.12178  1.0000
  N   N11       1.0  0.8161699999999997  0.65111  0.13719  1.0000
  N   N12       1.0  0.71997  0.56096  0.07618  1.0000
  N   N13       1.0  0.9432199999999998  0.54361  0.12420999999999997  1.0000
  N   N14       1.0  0.57049  0.37514  0.95961  1.0000
  N   N15       1.0  0.33211  0.87884  0.37499  1.0000
  N   N16       1.0  0.32073999999999997  0.13688999999999998  0.48632999999999993  1.0000
  N   N17       1.0  0.35588  0.07602  0.5154  1.0000
  N   N18       1.0  0.18051999999999999  0.12412999999999995  0.58085  1.0000
  N   N19       1.0  0.3886  0.95958  0.5846  1.0000
  N   N20       1.0  0.043219999999999974  0.37473999999999996  0.4966099999999999  1.0000
  N   N21       1.0  0.83541  0.51429  0.6508799999999998  1.0000
  N   N22       1.0  0.8414799999999998  0.4852  0.56073  1.0000
  N   N23       1.0  0.6009399999999999  0.4196  0.5432  1.0000
  N   N24       1.0  0.80483  0.41544  0.37435  1.0000
  N   N25       1.0  0.5466399999999999  0.50342  0.8782099999999999  1.0000
  N   N26       1.0  0.18379000000000004  0.34887  0.86279  1.0000
  N   N27       1.0  0.27996999999999994  0.43903  0.92379  1.0000
  N   N28       1.0  0.056740000000000027  0.45637  0.87578  1.0000
  N   N29       1.0  0.42949  0.62486  0.04037  1.0000
  N   N30       1.0  0.6675299999999998  0.12102999999999994  0.62491  1.0000
