data_image0
_chemical_formula_structural       Zn8H24C56N8O32
_chemical_formula_sum              "Zn8 H24 C56 N8 O32"
_cell_length_a       12.50761
_cell_length_b       14.158839999999998
_cell_length_c       14.06776
_cell_angle_alpha    104.37178
_cell_angle_beta     89.80266999999999
_cell_angle_gamma    89.95188

_symmetry_space_group_name_H-M    'P 1'
_symmetry_Int_Tables_number       1

loop_
  _symmetry_equiv_pos_as_xyz
  'x,y,z'

loop_
  _atom_site_type_symbol
  _atom_site_label
  _atom_site_symmetry_multiplicity
  _atom_site_fract_x
  _atom_site_fract_y
  _atom_site_fract_z
  _atom_site_occupancy
  Zn  Zn1       1.0  0.51137  0.8435000000000001  0.16164  1.0000
  Zn  Zn2       1.0  0.013360000000000004  0.65887  0.33995999999999993  1.0000
  Zn  Zn3       1.0  0.7761300000000002  0.43521  0.79281  1.0000
  Zn  Zn4       1.0  0.72169  0.93482  0.29283  1.0000
  Zn  Zn5       1.0  0.27831000000000006  0.06518  0.70717  1.0000
  Zn  Zn6       1.0  0.22387000000000007  0.56479  0.20719  1.0000
  Zn  Zn7       1.0  0.98664  0.34113  0.66004  1.0000
  Zn  Zn8       1.0  0.48862  0.1565  0.83836  1.0000
  H   H1        1.0  0.94523  0.75226  0.12191999999999997  1.0000
  H   H2        1.0  0.56465  0.8658300000000001  0.4958599999999999  1.0000
  H   H3        1.0  0.6726700000000002  0.6062000000000001  0.96733  1.0000
  H   H4        1.0  0.82571  0.10344000000000002  0.4653199999999999  1.0000
  H   H5        1.0  0.18674000000000002  0.82489  0.8554999999999998  1.0000
  H   H6        1.0  0.4446100000000001  0.74721  0.37758999999999987  1.0000
  H   H7        1.0  0.31104  0.20618000000000006  0.46314999999999995  1.0000
  H   H8        1.0  0.9432500000000003  0.52125  0.46947  1.0000
  H   H9        1.0  0.05476  0.24774000000000004  0.87808  1.0000
  H   H10       1.0  0.6889600000000001  0.79382  0.5368499999999999  1.0000
  H   H11       1.0  0.55539  0.25279  0.62241  1.0000
  H   H12       1.0  0.19007  0.70596  0.96368  1.0000
  H   H13       1.0  0.80992  0.29404000000000013  0.03632  1.0000
  H   H14       1.0  0.81325  0.17511000000000002  0.1445  1.0000
  H   H15       1.0  0.06333  0.6321  0.00224  1.0000
  H   H16       1.0  0.05675  0.47875  0.53053  1.0000
  H   H17       1.0  0.31494  0.32528  0.35497  1.0000
  H   H18       1.0  0.93667  0.3679  0.9977599999999999  1.0000
  H   H19       1.0  0.4353500000000001  0.13417  0.50413  1.0000
  H   H20       1.0  0.44314  0.97867  0.03088  1.0000
  H   H21       1.0  0.17429  0.89656  0.53468  1.0000
  H   H22       1.0  0.6850600000000002  0.67472  0.6450299999999998  1.0000
  H   H23       1.0  0.5568500000000001  0.021339999999999967  0.9691199999999999  1.0000
  H   H24       1.0  0.32733  0.3938  0.03267  1.0000
  C   C1        1.0  0.47805000000000003  0.86789  0.50339  1.0000
  C   C2        1.0  0.5875800000000001  0.19655  0.56182  1.0000
  C   C3        1.0  0.82544  0.51967  0.6319599999999999  1.0000
  C   C4        1.0  0.73978  0.11330000000000001  0.47480999999999995  1.0000
  C   C5        1.0  0.023240000000000004  0.36882  0.00423  1.0000
  C   C6        1.0  0.07129  0.43934  0.07889999999999997  1.0000
  C   C7        1.0  0.75874  0.6150099999999998  0.9759799999999997  1.0000
  C   C8        1.0  0.6840300000000002  0.08975000000000001  0.06649  1.0000
  C   C9        1.0  0.7556800000000002  0.23228  0.02399  1.0000
  C   C10       1.0  0.61362  0.08068999999999998  0.98784  1.0000
  C   C11       1.0  0.43095000000000006  0.9389299999999999  0.5785799999999999  1.0000
  C   C12       1.0  0.7434000000000002  0.7321  0.52465  1.0000
  C   C13       1.0  0.74163  0.6667000000000002  0.5844999999999999  1.0000
  C   C14       1.0  0.32745  0.97985  0.86801  1.0000
  C   C15       1.0  0.17456  0.4803299999999999  0.36803999999999987  1.0000
  C   C16       1.0  0.6986300000000001  0.1884  0.54992  1.0000
  C   C17       1.0  0.24126000000000006  0.38499  0.02402  1.0000
  C   C18       1.0  0.22806000000000007  0.74071  0.38395999999999997  1.0000
  C   C19       1.0  0.31596  0.9102499999999999  0.9335099999999997  1.0000
  C   C20       1.0  0.24287000000000003  0.83308  0.91604  1.0000
  C   C21       1.0  0.41242  0.80345  0.43818  1.0000
  C   C22       1.0  0.50205  0.9921499999999999  0.3456999999999999  1.0000
  C   C23       1.0  0.27064  0.2381  0.88207  1.0000
  C   C24       1.0  0.7719400000000001  0.25929000000000013  0.61603  1.0000
  C   C25       1.0  0.6675  0.28702  0.88066  1.0000
  C   C26       1.0  0.25837  0.3333  0.4155  1.0000
  C   C27       1.0  0.6801  0.22007  0.94911  1.0000
  C   C28       1.0  0.19898000000000005  0.31035  0.94927  1.0000
  C   C29       1.0  0.5690500000000001  0.06106999999999997  0.4214099999999999  1.0000
  C   C30       1.0  0.31989000000000006  0.7799300000000002  0.05088999999999999  1.0000
  C   C31       1.0  0.9956800000000001  0.4915300000000001  0.8449999999999999  1.0000
  C   C32       1.0  0.8149800000000003  0.58957  0.56687  1.0000
  C   C33       1.0  0.16785000000000005  0.21269999999999994  0.6180399999999998  1.0000
  C   C34       1.0  0.7293600000000001  0.7619  0.11792999999999997  1.0000
  C   C35       1.0  0.8198700000000002  0.72008  0.4500499999999999  1.0000
  C   C36       1.0  0.8010200000000001  0.6896500000000001  0.05073  1.0000
  C   C37       1.0  0.91213  0.69645  0.06164999999999999  1.0000
  C   C38       1.0  0.30137  0.8115999999999999  0.45008  1.0000
  C   C39       1.0  0.88635  0.58066  0.48843  1.0000
  C   C40       1.0  0.08787000000000003  0.30354999999999993  0.9383499999999998  1.0000
  C   C41       1.0  0.97676  0.63118  0.9957599999999999  1.0000
  C   C42       1.0  0.24432  0.7677300000000001  0.97601  1.0000
  C   C43       1.0  0.83215  0.7873000000000002  0.38195  1.0000
  C   C44       1.0  0.49795  0.007849999999999977  0.6542999999999999  1.0000
  C   C45       1.0  0.00432  0.50847  0.155  1.0000
  C   C46       1.0  0.11365  0.41934  0.51156  1.0000
  C   C47       1.0  0.52195  0.13211  0.4966099999999999  1.0000
  C   C48       1.0  0.18502  0.41043  0.43313  1.0000
  C   C49       1.0  0.3325000000000001  0.71298  0.11934  1.0000
  C   C50       1.0  0.7571300000000002  0.16692  0.08395999999999999  1.0000
  C   C51       1.0  0.38638000000000006  0.9193200000000001  0.012159999999999997  1.0000
  C   C52       1.0  0.18013  0.27992  0.54994  1.0000
  C   C53       1.0  0.2566  0.2679  0.47535  1.0000
  C   C54       1.0  0.92871  0.56066  0.9211  1.0000
  C   C55       1.0  0.26022  0.88671  0.52519  1.0000
  C   C56       1.0  0.67255  0.02015  0.13199  1.0000
  N   N1        1.0  0.6764900000000003  0.05118000000000002  0.41222  1.0000
  N   N2        1.0  0.17873  0.448  0.08731  1.0000
  N   N3        1.0  0.8904900000000002  0.6453900000000002  0.43343  1.0000
  N   N4        1.0  0.3899900000000001  0.8549  0.06745  1.0000
  N   N5        1.0  0.10951000000000001  0.3546100000000001  0.56656  1.0000
  N   N6        1.0  0.61001  0.14509999999999998  0.9325499999999999  1.0000
  N   N7        1.0  0.32351  0.9488199999999999  0.58778  1.0000
  N   N8        1.0  0.82127  0.552  0.9126899999999999  1.0000
  O   O1        1.0  0.26473  0.6439  0.10905999999999998  1.0000
  O   O2        1.0  0.5985200000000002  0.9575300000000002  0.10934  1.0000
  O   O3        1.0  0.08964  0.22822000000000003  0.67702  1.0000
  O   O4        1.0  0.26417  0.96698  0.79494  1.0000
  O   O5        1.0  0.27436  0.67147  0.32344999999999996  1.0000
  O   O6        1.0  0.22295000000000006  0.16913999999999998  0.8229199999999998  1.0000
  O   O7        1.0  0.8993500000000001  0.4566799999999999  0.6090799999999997  1.0000
  O   O8        1.0  0.73527  0.3561000000000001  0.89094  1.0000
  O   O9        1.0  0.73582  0.03302  0.20506  1.0000
  O   O10       1.0  0.40731  0.009219999999999987  0.33366999999999997  1.0000
  O   O11       1.0  0.4083000000000001  0.7311900000000002  0.18033999999999994  1.0000
  O   O12       1.0  0.40148  0.04246999999999998  0.8906599999999999  1.0000
  O   O13       1.0  0.057770000000000016  0.5857300000000002  0.20494  1.0000
  O   O14       1.0  0.76145  0.5326  0.705  1.0000
  O   O15       1.0  0.12767  0.7565900000000001  0.3955699999999999  1.0000
  O   O16       1.0  0.59269  0.9907799999999999  0.6663199999999999  1.0000
  O   O17       1.0  0.9103600000000001  0.77178  0.3229799999999999  1.0000
  O   O18       1.0  0.44420000000000004  0.08515999999999997  0.7043499999999999  1.0000
  O   O19       1.0  0.9096700000000001  0.49099000000000004  0.16688  1.0000
  O   O20       1.0  0.7256400000000002  0.32853  0.6765499999999998  1.0000
  O   O21       1.0  0.77705  0.83086  0.17707  1.0000
  O   O22       1.0  0.9422300000000001  0.4142700000000001  0.79506  1.0000
  O   O23       1.0  0.6288  0.7472200000000002  0.10902  1.0000
  O   O24       1.0  0.09033  0.50901  0.8331199999999999  1.0000
  O   O25       1.0  0.3712000000000001  0.25278  0.89098  1.0000
  O   O26       1.0  0.10065  0.54332  0.39090999999999987  1.0000
  O   O27       1.0  0.5558000000000001  0.91484  0.29565  1.0000
  O   O28       1.0  0.5917  0.26881  0.8196499999999999  1.0000
  O   O29       1.0  0.7614700000000002  0.8539  0.39061  1.0000
  O   O30       1.0  0.87233  0.24340999999999996  0.6044299999999998  1.0000
  O   O31       1.0  0.23852  0.14610000000000004  0.60938  1.0000
  O   O32       1.0  0.23854000000000006  0.4674  0.295  1.0000
