data_image0
_chemical_formula_structural       Cd3H54C78S3N12
_chemical_formula_sum              "Cd3 H54 C78 S3 N12"
_cell_length_a       13.34724
_cell_length_b       16.21088
_cell_length_c       16.21076
_cell_angle_alpha    112.73266
_cell_angle_beta     105.96792
_cell_angle_gamma    105.96827

_space_group_name_H-M_alt    "P 1"
_space_group_IT_number       1

loop_
  _space_group_symop_operation_xyz
  'x, y, z'

loop_
  _atom_site_type_symbol
  _atom_site_label
  _atom_site_symmetry_multiplicity
  _atom_site_fract_x
  _atom_site_fract_y
  _atom_site_fract_z
  _atom_site_occupancy
  Cd  Cd1       1.0  0.4630299999999999  0.9999799999999999  0.5182  1.0000
  Cd  Cd2       1.0  0.4630399999999999  0.51821  0.99999  1.0000
  Cd  Cd3       1.0  0.94526  0.48198  0.48197  1.0000
  H   H1        1.0  0.9371899999999996  0.7444899999999998  0.29814  1.0000
  H   H2        1.0  0.5152499999999998  0.3666899999999999  0.36669  1.0000
  H   H3        1.0  0.1697299999999999  0.55931  0.71316  1.0000
  H   H4        1.0  0.78535  0.6022399999999999  0.13515  1.0000
  H   H5        1.0  0.19267999999999996  0.25521  0.55275  1.0000
  H   H6        1.0  0.86422  0.00012999999999998776  0.36422  1.0000
  H   H7        1.0  0.60976  0.44024999999999986  0.15289999999999995  1.0000
  H   H8        1.0  0.68975  0.31746999999999986  0.86656  1.0000
  H   H9        1.0  0.5003299999999998  0.63548  0.63548  1.0000
  H   H10       1.0  0.3610599999999999  0.2977499999999999  0.55047  1.0000
  H   H11       1.0  0.3187  0.1375  0.68446  1.0000
  H   H12       1.0  0.18138999999999986  0.8637999999999998  0.54725  1.0000
  H   H13       1.0  0.14783999999999997  0.63337  0.00015  1.0000
  H   H14       1.0  0.2145899999999999  0.3992599999999999  0.86576  1.0000
  H   H15       1.0  0.82313  0.1327699999999999  0.4503999999999999  1.0000
  H   H16       1.0  0.3186999999999999  0.6844699999999997  0.13749  1.0000
  H   H17       1.0  0.3487699999999999  0.533  0.13369  1.0000
  H   H18       1.0  0.39392999999999984  0.5652399999999996  0.8473499999999999  1.0000
  H   H19       1.0  0.0629799999999999  0.7017799999999998  0.25248  1.0000
  H   H20       1.0  0.6348499999999998  0.45349999999999985  0.31628999999999996  1.0000
  H   H21       1.0  0.54527  0.15223000000000006  0.71689  1.0000
  H   H22       1.0  0.16970999999999997  0.71308  0.55915  1.0000
  H   H23       1.0  0.81599  0.46705999999999986  0.60092  1.0000
  H   H24       1.0  0.3720199999999998  0.6812699999999998  0.54804  1.0000
  H   H25       1.0  0.7853599999999997  0.13513999999999995  0.6022499999999997  1.0000
  H   H26       1.0  0.63893  0.44540999999999986  0.70163  1.0000
  H   H27       1.0  0.18311  0.53266  0.39781  1.0000
  H   H28       1.0  0.81056  0.4503399999999999  0.74784  1.0000
  H   H29       1.0  0.19267999999999996  0.55277  0.25522  1.0000
  H   H30       1.0  0.36107999999999985  0.5504999999999998  0.29776  1.0000
  H   H31       1.0  0.9371899999999996  0.29813999999999985  0.7444899999999999  1.0000
  H   H32       1.0  0.14783999999999997  0.00015000000000002753  0.63337  1.0000
  H   H33       1.0  0.8105499999999995  0.7477999999999998  0.4502499999999999  1.0000
  H   H34       1.0  0.06298999999999995  0.25246999999999997  0.7017799999999998  1.0000
  H   H35       1.0  0.1813599999999999  0.5472099999999998  0.86377  1.0000
  H   H36       1.0  0.8284299999999998  0.28283  0.43531  1.0000
  H   H37       1.0  0.82844  0.43539  0.28286  1.0000
  H   H38       1.0  0.8231199999999999  0.4503199999999998  0.13273  1.0000
  H   H39       1.0  0.8160099999999998  0.60099  0.46716999999999986  1.0000
  H   H40       1.0  0.18313999999999997  0.39787  0.53279  1.0000
  H   H41       1.0  0.63895  0.70166  0.44542  1.0000
  H   H42       1.0  0.3938999999999998  0.8473299999999996  0.56523  1.0000
  H   H43       1.0  0.45727  0.28831  0.84721  1.0000
  H   H44       1.0  0.6097699999999999  0.15291  0.4402499999999999  1.0000
  H   H45       1.0  0.65091  0.8651499999999999  0.46749  1.0000
  H   H46       1.0  0.8642099999999998  0.3642199999999999  0.00012  1.0000
  H   H47       1.0  0.372  0.54803  0.68127  1.0000
  H   H48       1.0  0.54527  0.7168999999999999  0.15223  1.0000
  H   H49       1.0  0.6509299999999997  0.46750999999999976  0.8651499999999998  1.0000
  H   H50       1.0  0.34878  0.13369999999999996  0.53301  1.0000
  H   H51       1.0  0.45726999999999995  0.8472199999999998  0.28831  1.0000
  H   H52       1.0  0.21457999999999988  0.8657599999999998  0.39925  1.0000
  H   H53       1.0  0.68975  0.86657  0.31747  1.0000
  H   H54       1.0  0.6348799999999999  0.31631  0.45352  1.0000
  C   C1        1.0  0.5889699999999999  0.8219899999999998  0.48383  1.0000
  C   C2        1.0  0.90705  0.27280999999999983  0.4616899999999999  1.0000
  C   C3        1.0  0.08539999999999995  0.00018999999999999307  0.57397  1.0000
  C   C4        1.0  0.9951099999999998  0.8179199999999998  0.4965  1.0000
  C   C5        1.0  0.11036999999999984  0.5275499999999997  0.2586  1.0000
  C   C6        1.0  0.63403  0.18854999999999988  0.72698  1.0000
  C   C7        1.0  0.36874  0.27787000000000006  0.81305  1.0000
  C   C8        1.0  0.5042699999999998  0.4952399999999998  0.67682  1.0000
  C   C9        1.0  0.8942399999999999  0.66193  0.48471999999999993  1.0000
  C   C10       1.0  0.8268099999999998  0.32273999999999986  0.8184499999999999  1.0000
  C   C11       1.0  0.58268  0.47172999999999987  0.73058  1.0000
  C   C12       1.0  0.09037999999999992  0.5845699999999998  0.09168  1.0000
  C   C13       1.0  0.09735999999999992  0.5281199999999998  0.80698  1.0000
  C   C14       1.0  0.49881999999999993  0.32102999999999987  0.50345  1.0000
  C   C15       1.0  0.8268099999999998  0.81847  0.32274  1.0000
  C   C16       1.0  0.41781999999999997  0.26822  0.52572  1.0000
  C   C17       1.0  0.10482  0.33841  0.51642  1.0000
  C   C18       1.0  0.29110999999999987  0.7218699999999998  0.19397  1.0000
  C   C19       1.0  0.9228200000000001  0.42592  6e-05  1.0000
  C   C20       1.0  0.17771999999999993  0.18258999999999995  0.67883  1.0000
  C   C21       1.0  0.29112  0.19398  0.72187  1.0000
  C   C22       1.0  0.5118099999999999  0.42590999999999996  0.42590999999999996  1.0000
  C   C23       1.0  0.9228099999999998  4.999999999999968e-05  0.42592  1.0000
  C   C24       1.0  0.007390000000000002  0.09139999999999998  0.50789  1.0000
  C   C25       1.0  0.9158399999999998  0.9086799999999998  0.41651999999999995  1.0000
  C   C26       1.0  0.00846  0.50427  0.18149999999999997  1.0000
  C   C27       1.0  0.49960999999999983  0.49175999999999975  0.58313  1.0000
  C   C28       1.0  0.89202  0.47443999999999986  0.74278  1.0000
  C   C29       1.0  0.08537999999999989  0.5739699999999998  0.00017  1.0000
  C   C30       1.0  0.5057599999999999  0.41519  0.50667  1.0000
  C   C31       1.0  0.9052099999999998  0.4702499999999999  0.19026  1.0000
  C   C32       1.0  0.17771999999999988  0.6788299999999998  0.18259  1.0000
  C   C33       1.0  0.71467  0.80946  0.27978  1.0000
  C   C34       1.0  0.14945999999999995  0.25756  0.73145  1.0000
  C   C35       1.0  0.8920299999999998  0.7427899999999997  0.47444  1.0000
  C   C36       1.0  0.9950899999999997  0.4965  0.81791  1.0000
  C   C37       1.0  0.11037  0.25861  0.52757  1.0000
  C   C38       1.0  0.55553  0.18699  0.4642  1.0000
  C   C39       1.0  0.09146  0.72321  0.53545  1.0000
  C   C40       1.0  0.58269  0.73059  0.47173  1.0000
  C   C41       1.0  0.9985999999999997  0.49309999999999976  0.9086999999999997  1.0000
  C   C42       1.0  0.8516499999999999  0.7413800000000001  0.26917  1.0000
  C   C43       1.0  0.7663899999999998  0.1780099999999999  0.6616399999999998  1.0000
  C   C44       1.0  0.8942199999999998  0.48464999999999997  0.66188  1.0000
  C   C45       1.0  0.10480999999999994  0.51638  0.33839  1.0000
  C   C46       1.0  0.5057599999999998  0.5066799999999998  0.41519  1.0000
  C   C47       1.0  0.14945999999999995  0.73146  0.25756  1.0000
  C   C48       1.0  0.09145999999999996  0.53551  0.7232299999999999  1.0000
  C   C49       1.0  0.40926  0.51518  0.17691  1.0000
  C   C50       1.0  0.5042899999999998  0.6768299999999997  0.4952499999999999  1.0000
  C   C51       1.0  0.23223999999999986  0.8227099999999998  0.33853  1.0000
  C   C52       1.0  0.40926  0.17690000000000006  0.51517  1.0000
  C   C53       1.0  0.09036999999999998  0.09169  0.58458  1.0000
  C   C54       1.0  0.44616999999999996  0.81111  0.53875  1.0000
  C   C55       1.0  0.8516599999999998  0.26916  0.74137  1.0000
  C   C56       1.0  0.9052099999999994  0.19027999999999995  0.4702799999999999  1.0000
  C   C57       1.0  0.6340299999999999  0.7269799999999997  0.18854  1.0000
  C   C58       1.0  0.49961999999999984  0.5831399999999999  0.49176999999999993  1.0000
  C   C59       1.0  0.5889899999999998  0.4838299999999999  0.8219899999999999  1.0000
  C   C60       1.0  0.007389999999999939  0.5079099999999998  0.09141  1.0000
  C   C61       1.0  0.09736999999999997  0.8069799999999999  0.52809  1.0000
  C   C62       1.0  0.5555199999999999  0.4641999999999999  0.18697999999999998  1.0000
  C   C63       1.0  0.7146799999999999  0.27978  0.80945  1.0000
  C   C64       1.0  0.008459999999999976  0.18149999999999994  0.50428  1.0000
  C   C65       1.0  0.9986099999999998  0.9087199999999998  0.49312  1.0000
  C   C66       1.0  0.4350099999999998  0.7195199999999998  0.52919  1.0000
  C   C67       1.0  0.44618  0.53875  0.8111099999999999  1.0000
  C   C68       1.0  0.9158199999999996  0.4165199999999999  0.90867  1.0000
  C   C69       1.0  0.49705999999999984  0.57372  0.57372  1.0000
  C   C70       1.0  0.5694999999999999  0.4720999999999999  0.27842  1.0000
  C   C71       1.0  0.49882  0.50345  0.32103  1.0000
  C   C72       1.0  0.43499999999999994  0.5291799999999999  0.7195199999999999  1.0000
  C   C73       1.0  0.36873  0.81305  0.27786  1.0000
  C   C74       1.0  0.7663999999999996  0.6616499999999997  0.17801999999999998  1.0000
  C   C75       1.0  0.90705  0.46172999999999986  0.27282  1.0000
  C   C76       1.0  0.56952  0.2784399999999999  0.47211  1.0000
  C   C77       1.0  0.23222999999999994  0.33851999999999993  0.8227  1.0000
  C   C78       1.0  0.41782999999999976  0.52573  0.26823  1.0000
  S   S1        1.0  0.347  0.0004200000000000087  0.60629  1.0000
  S   S2        1.0  0.3469899999999999  0.60628  0.0004  1.0000
  S   S3        1.0  0.7410499999999999  0.39328  0.39329  1.0000
  N   N1        1.0  0.005519999999999905  0.48461999999999983  0.3466899999999999  1.0000
  N   N2        1.0  0.6588299999999998  0.13760999999999998  0.6533699999999999  1.0000
  N   N3        1.0  0.5221599999999997  0.5163899999999997  0.8623899999999999  1.0000
  N   N4        1.0  0.34114999999999984  0.3492099999999999  0.8638  1.0000
  N   N5        1.0  0.52214  0.86238  0.51638  1.0000
  N   N6        1.0  0.6588299999999998  0.6533599999999998  0.13762  1.0000
  N   N7        1.0  0.3411599999999999  0.8637999999999999  0.3492  1.0000
  N   N8        1.0  0.4769799999999999  0.48457000000000006  0.13597  1.0000
  N   N9        1.0  0.47699999999999987  0.1359699999999999  0.4845699999999999  1.0000
  N   N10       1.0  0.9926699999999996  0.5149  0.65153  1.0000
  N   N11       1.0  0.9926700000000002  0.6515299999999998  0.51488  1.0000
  N   N12       1.0  0.005529999999999951  0.34668999999999994  0.48462999999999995  1.0000
