data_image0
_chemical_formula_structural       Zn18H12C48O36
_chemical_formula_sum              "Zn18 H12 C48 O36"
_cell_length_a       14.02059
_cell_length_b       14.009760000000002
_cell_length_c       14.044510000000002
_cell_angle_alpha    103.86735999999999
_cell_angle_beta     103.6808
_cell_angle_gamma    103.6995

_space_group_name_H-M_alt    "P 1"
_space_group_IT_number       1

loop_
  _space_group_symop_operation_xyz
  'x, y, z'

loop_
  _atom_site_type_symbol
  _atom_site_label
  _atom_site_symmetry_multiplicity
  _atom_site_fract_x
  _atom_site_fract_y
  _atom_site_fract_z
  _atom_site_occupancy
  Zn  Zn1       1.0  0.23080999999999996  0.40366  0.75517  1.0000
  Zn  Zn2       1.0  0.7550499999999998  0.23122000000000004  0.4025599999999999  1.0000
  Zn  Zn3       1.0  0.4025499999999999  0.75739  0.22696999999999995  1.0000
  Zn  Zn4       1.0  0.7472499999999999  0.09816  0.27096  1.0000
  Zn  Zn5       1.0  0.09776999999999988  0.2710799999999999  0.7464099999999998  1.0000
  Zn  Zn6       1.0  0.26855  0.74903  0.09608999999999998  1.0000
  Zn  Zn7       1.0  0.77088  0.59534  0.24723999999999993  1.0000
  Zn  Zn8       1.0  0.24266999999999997  0.7725  0.5989499999999999  1.0000
  Zn  Zn9       1.0  0.5959699999999998  0.24924  0.7682  1.0000
  Zn  Zn10      1.0  0.2516500000000001  0.9041600000000002  0.73265  1.0000
  Zn  Zn11      1.0  0.90255  0.72883  0.25542  1.0000
  Zn  Zn12      1.0  0.7281199999999999  0.25842  0.9010399999999997  1.0000
  Zn  Zn13      1.0  0.3051599999999999  0.19476  0.7509899999999999  1.0000
  Zn  Zn14      1.0  0.7515900000000002  0.3056100000000001  0.19468999999999995  1.0000
  Zn  Zn15      1.0  0.1955000000000001  0.7489000000000002  0.30551  1.0000
  Zn  Zn16      1.0  0.6945400000000002  0.8045800000000002  0.24994  1.0000
  Zn  Zn17      1.0  0.25081  0.6947  0.80495  1.0000
  Zn  Zn18      1.0  0.80433  0.2505  0.6943  1.0000
  H   H1        1.0  0.18318  0.00972  0.54549  1.0000
  H   H2        1.0  0.54593  0.18409000000000003  0.011469999999999996  1.0000
  H   H3        1.0  0.011789999999999936  0.5441399999999998  0.18296999999999994  1.0000
  H   H4        1.0  0.95721  0.48911  0.31702  1.0000
  H   H5        1.0  0.48956  0.31629999999999997  0.9553099999999998  1.0000
  H   H6        1.0  0.31619999999999987  0.95396  0.48942  1.0000
  H   H7        1.0  0.8172100000000001  0.9910500000000003  0.45425  1.0000
  H   H8        1.0  0.45594  0.81706  0.98993  1.0000
  H   H9        1.0  0.98953  0.4553500000000001  0.81628  1.0000
  H   H10       1.0  0.04409999999999997  0.512  0.68368  1.0000
  H   H11       1.0  0.51193  0.68363  0.044799999999999986  1.0000
  H   H12       1.0  0.6831  0.04406000000000001  0.51091  1.0000
  C   C1        1.0  0.46516  0.06676  0.56514  1.0000
  C   C2        1.0  0.4172  0.13103000000000004  0.62711  1.0000
  C   C3        1.0  0.0735  0.07458000000000001  0.59648  1.0000
  C   C4        1.0  0.10259  0.00593999999999999  0.52712  1.0000
  C   C5        1.0  0.56553  0.46536  0.06793  1.0000
  C   C6        1.0  0.6275799999999998  0.41726  0.13146  1.0000
  C   C7        1.0  0.59728  0.07412  0.07497999999999999  1.0000
  C   C8        1.0  0.52769  0.10329  0.007029999999999998  1.0000
  C   C9        1.0  0.06916999999999998  0.56524  0.4662699999999999  1.0000
  C   C10       1.0  0.13392  0.6273600000000001  0.41912999999999995  1.0000
  C   C11       1.0  0.07489  0.59611  0.07321  1.0000
  C   C12       1.0  0.006940000000000005  0.52634  0.10221999999999998  1.0000
  C   C13       1.0  0.93504  0.4320100000000001  0.033679999999999995  1.0000
  C   C14       1.0  0.87268  0.36754000000000003  0.08082999999999999  1.0000
  C   C15       1.0  0.90396  0.42697000000000007  0.4266499999999999  1.0000
  C   C16       1.0  0.9746300000000001  0.4941500000000001  0.3977899999999999  1.0000
  C   C17       1.0  0.43325  0.03509  0.9356  1.0000
  C   C18       1.0  0.36958  0.08310999999999999  0.8735  1.0000
  C   C19       1.0  0.42656999999999995  0.42650999999999994  0.9038299999999998  1.0000
  C   C20       1.0  0.4942099999999999  0.39719999999999994  0.9734399999999997  1.0000
  C   C21       1.0  0.03453999999999995  0.93434  0.43258  1.0000
  C   C22       1.0  0.08222000000000013  0.8711300000000004  0.36919  1.0000
  C   C23       1.0  0.42615  0.90226  0.42564  1.0000
  C   C24       1.0  0.39697  0.9720100000000002  0.49384999999999996  1.0000
  C   C25       1.0  0.53412  0.9311999999999999  0.4348099999999999  1.0000
  C   C26       1.0  0.58146  0.86699  0.37212  1.0000
  C   C27       1.0  0.92682  0.92611  0.40317  1.0000
  C   C28       1.0  0.89782  0.99496  0.47249  1.0000
  C   C29       1.0  0.43603  0.53464  0.9325299999999999  1.0000
  C   C30       1.0  0.3736399999999999  0.58226  0.86845  1.0000
  C   C31       1.0  0.4043299999999999  0.92706  0.92657  1.0000
  C   C32       1.0  0.47398999999999986  0.8978900000000001  0.9943999999999997  1.0000
  C   C33       1.0  0.9318899999999998  0.43609  0.5345  1.0000
  C   C34       1.0  0.8662  0.37422  0.58125  1.0000
  C   C35       1.0  0.9258999999999998  0.40349  0.92587  1.0000
  C   C36       1.0  0.99411  0.47311  0.89695  1.0000
  C   C37       1.0  0.06563999999999996  0.56748  0.96536  1.0000
  C   C38       1.0  0.12733  0.63142  0.91733  1.0000
  C   C39       1.0  0.09724000000000001  0.57438  0.57409  1.0000
  C   C40       1.0  0.026569999999999993  0.50706  0.60295  1.0000
  C   C41       1.0  0.5684199999999998  0.96613  0.06599999999999999  1.0000
  C   C42       1.0  0.6319700000000001  0.9183000000000002  0.12852999999999998  1.0000
  C   C43       1.0  0.575  0.57349  0.09693  1.0000
  C   C44       1.0  0.50751  0.60284  0.02703  1.0000
  C   C45       1.0  0.9657999999999999  0.06643000000000003  0.56714  1.0000
  C   C46       1.0  0.9177700000000001  0.12904000000000004  0.63076  1.0000
  C   C47       1.0  0.5730799999999999  0.09588999999999998  0.5740799999999999  1.0000
  C   C48       1.0  0.60235  0.025860000000000008  0.5064  1.0000
  O   O1        1.0  0.14434999999999995  0.14709999999999998  0.6832999999999998  1.0000
  O   O2        1.0  0.3286999999999999  0.09004999999999998  0.63409  1.0000
  O   O3        1.0  0.32369999999999993  0.53599  0.7709599999999999  1.0000
  O   O4        1.0  0.68367  0.14516  0.14775  1.0000
  O   O5        1.0  0.63425  0.32859999999999995  0.09020999999999998  1.0000
  O   O6        1.0  0.76906  0.32376  0.53366  1.0000
  O   O7        1.0  0.14793999999999996  0.68233  0.14431  1.0000
  O   O8        1.0  0.09490999999999995  0.62977  0.3282399999999999  1.0000
  O   O9        1.0  0.5337300000000001  0.7704100000000003  0.3185799999999999  1.0000
  O   O10       1.0  0.81734  0.35485  0.3554799999999999  1.0000
  O   O11       1.0  0.8703  0.40675  0.17179  1.0000
  O   O12       1.0  0.72913  0.96435  0.18034  1.0000
  O   O13       1.0  0.3533999999999999  0.35548000000000013  0.8176899999999999  1.0000
  O   O14       1.0  0.41062000000000004  0.17160000000000003  0.86655  1.0000
  O   O15       1.0  0.9635799999999995  0.18089999999999998  0.7280199999999999  1.0000
  O   O16       1.0  0.3554  0.81583  0.35252999999999995  1.0000
  O   O17       1.0  0.17152999999999996  0.8659  0.4097499999999999  1.0000
  O   O18       1.0  0.17652999999999996  0.7294100000000001  0.9625899999999998  1.0000
  O   O19       1.0  0.85596  0.85332  0.3166  1.0000
  O   O20       1.0  0.67173  0.9066  0.36822999999999995  1.0000
  O   O21       1.0  0.6776499999999998  0.46266  0.22909999999999997  1.0000
  O   O22       1.0  0.31795999999999985  0.85607  0.8536599999999998  1.0000
  O   O23       1.0  0.36668  0.67104  0.90931  1.0000
  O   O24       1.0  0.22993  0.68165  0.4672699999999999  1.0000
  O   O25       1.0  0.85284  0.31734  0.85472  1.0000
  O   O26       1.0  0.90528  0.36827  0.6706199999999998  1.0000
  O   O27       1.0  0.4624299999999999  0.22907  0.67627  1.0000
  O   O28       1.0  0.1841299999999999  0.64677  0.6450599999999997  1.0000
  O   O29       1.0  0.13395999999999994  0.59023  0.82876  1.0000
  O   O30       1.0  0.27166  0.03810000000000001  0.82407  1.0000
  O   O31       1.0  0.6477899999999999  0.6440300000000001  0.18364  1.0000
  O   O32       1.0  0.59091  0.8288400000000002  0.13355  1.0000
  O   O33       1.0  0.03595999999999997  0.81896  0.27204999999999996  1.0000
  O   O34       1.0  0.6438  0.18298999999999999  0.6464999999999999  1.0000
  O   O35       1.0  0.8282799999999999  0.13389000000000006  0.59012  1.0000
  O   O36       1.0  0.81839  0.27126  0.03278  1.0000
