data_image0
_chemical_formula_structural       Mn4H48C56N8O18
_chemical_formula_sum              "Mn4 H48 C56 N8 O18"
_cell_length_a       8.55157
_cell_length_b       11.286530000000003
_cell_length_c       17.0218
_cell_angle_alpha    90.00058
_cell_angle_beta     89.99775
_cell_angle_gamma    104.92694

_space_group_name_H-M_alt    "P 1"
_space_group_IT_number       1

loop_
  _space_group_symop_operation_xyz
  'x, y, z'

loop_
  _atom_site_type_symbol
  _atom_site_label
  _atom_site_symmetry_multiplicity
  _atom_site_fract_x
  _atom_site_fract_y
  _atom_site_fract_z
  _atom_site_occupancy
  Mn  Mn1       1.0  0.41892  0.12883999999999998  0.43978  1.0000
  Mn  Mn2       1.0  0.91696  0.12298999999999999  0.58726  1.0000
  Mn  Mn3       1.0  0.58107  0.87116  0.93979  1.0000
  Mn  Mn4       1.0  0.08303999999999999  0.87701  0.08725  1.0000
  H   H1        1.0  0.74649  0.33092  0.01446  1.0000
  H   H2        1.0  0.13784999999999994  0.97281  0.66814  1.0000
  H   H3        1.0  0.59852  0.93823  0.20755  1.0000
  H   H4        1.0  0.42145999999999995  0.8582599999999999  0.64288  1.0000
  H   H5        1.0  0.14712  0.91886  0.34874  1.0000
  H   H6        1.0  0.94194  0.8686999999999999  0.38156  1.0000
  H   H7        1.0  0.11813999999999998  0.3478  0.68203  1.0000
  H   H8        1.0  0.3641  0.022889999999999997  0.85788  1.0000
  H   H9        1.0  0.8818599999999999  0.6521999999999999  0.18202  1.0000
  H   H10       1.0  0.6463899999999999  0.47231  0.05266  1.0000
  H   H11       1.0  0.85615  0.52348  0.47156000000000003  1.0000
  H   H12       1.0  0.23442  0.11158  0.005550000000000001  1.0000
  H   H13       1.0  0.38206  0.31494  0.55771  1.0000
  H   H14       1.0  0.2535  0.6691  0.5144700000000001  1.0000
  H   H15       1.0  0.10268  0.56487  0.69611  1.0000
  H   H16       1.0  0.6297499999999999  0.8967999999999999  0.67094  1.0000
  H   H17       1.0  0.60408  0.5690799999999999  0.32908  1.0000
  H   H18       1.0  0.05808  0.1313  0.8815700000000002  1.0000
  H   H19       1.0  0.40147  0.06178  0.7075600000000001  1.0000
  H   H20       1.0  0.85292  0.08114  0.84876  1.0000
  H   H21       1.0  0.61693  0.09601999999999997  0.72068  1.0000
  H   H22       1.0  0.37521  0.64638  0.8448100000000001  1.0000
  H   H23       1.0  0.65357  0.7645499999999998  0.34824  1.0000
  H   H24       1.0  0.39592  0.43091999999999997  0.82908  1.0000
  H   H25       1.0  0.62479  0.35362  0.3448  1.0000
  H   H26       1.0  0.84924  0.24088999999999994  0.17826  1.0000
  H   H27       1.0  0.6179299999999999  0.6850599999999999  0.05771  1.0000
  H   H28       1.0  0.74669  0.11192999999999999  0.01476  1.0000
  H   H29       1.0  0.23746  0.3310699999999999  0.0058  1.0000
  H   H30       1.0  0.35359  0.52769  0.55267  1.0000
  H   H31       1.0  0.14382999999999999  0.4764999999999999  0.9715600000000001  1.0000
  H   H32       1.0  0.76253  0.66893  0.50581  1.0000
  H   H33       1.0  0.34643  0.23545  0.84825  1.0000
  H   H34       1.0  0.37021  0.1032  0.17097  1.0000
  H   H35       1.0  0.15073999999999996  0.7590899999999999  0.67826  1.0000
  H   H36       1.0  0.38306  0.90398  0.22068  1.0000
  H   H37       1.0  0.25330999999999987  0.8880799999999998  0.51475  1.0000
  H   H38       1.0  0.22965  0.12322  0.29394000000000003  1.0000
  H   H39       1.0  0.87989  0.30968  0.46817  1.0000
  H   H40       1.0  0.11102999999999995  0.93974  0.82055  1.0000
  H   H41       1.0  0.12011  0.6903  0.96816  1.0000
  H   H42       1.0  0.86212  0.02718  0.16812000000000002  1.0000
  H   H43       1.0  0.6358899999999998  0.9770899999999998  0.35785  1.0000
  H   H44       1.0  0.8973  0.43513  0.19611  1.0000
  H   H45       1.0  0.88898  0.06023  0.32055  1.0000
  H   H46       1.0  0.77035  0.8768199999999999  0.79395  1.0000
  H   H47       1.0  0.7655599999999999  0.8884199999999998  0.50558  1.0000
  H   H48       1.0  0.57848  0.14175  0.14286  1.0000
  C   C1        1.0  0.48559  0.95404  0.18479000000000004  1.0000
  C   C2        1.0  0.56157  0.7844999999999998  0.38685  1.0000
  C   C3        1.0  0.5529  0.51671  0.38089  1.0000
  C   C4        1.0  0.93687  0.2193  0.13773  1.0000
  C   C5        1.0  0.65803  0.26646999999999993  0.97907  1.0000
  C   C6        1.0  0.97814  0.07954  0.83597  1.0000
  C   C7        1.0  0.03722  0.10054  0.42237  1.0000
  C   C8        1.0  0.02942  0.13644  0.7560900000000002  1.0000
  C   C9        1.0  0.34197  0.7335399999999999  0.47907  1.0000
  C   C10       1.0  0.33985  0.85595  0.47919  1.0000
  C   C11       1.0  0.6601499999999999  0.14405999999999997  0.9791900000000001  1.0000
  C   C12       1.0  0.53982  0.14608  0.26704  1.0000
  C   C13       1.0  0.9395600000000001  0.6083599999999999  0.13743  1.0000
  C   C14       1.0  0.011199999999999996  0.05556  0.33737000000000006  1.0000
  C   C15       1.0  0.49061000000000005  0.09225999999999997  0.18607  1.0000
  C   C16       1.0  0.98882  0.9444499999999999  0.83736  1.0000
  C   C17       1.0  0.08701999999999997  0.5108  0.02067  1.0000
  C   C18       1.0  0.4124999999999999  0.49354999999999993  0.50422  1.0000
  C   C19       1.0  0.52684  0.43182999999999994  0.93902  1.0000
  C   C20       1.0  0.4601899999999999  0.8539299999999999  0.7670500000000001  1.0000
  C   C21       1.0  0.5367  0.09180999999999999  0.60086  1.0000
  C   C22       1.0  0.9438399999999999  0.09775  0.13356000000000004  1.0000
  C   C23       1.0  0.05120999999999999  0.51227  0.64445  1.0000
  C   C24       1.0  0.58749  0.50645  0.00422  1.0000
  C   C25       1.0  0.91297  0.48919  0.52067  1.0000
  C   C26       1.0  0.55228  0.9054999999999997  0.3909  1.0000
  C   C27       1.0  0.06043999999999997  0.39164999999999994  0.63744  1.0000
  C   C28       1.0  0.9627899999999999  0.89947  0.92237  1.0000
  C   C29       1.0  0.03843  0.30778  0.08949  1.0000
  C   C30       1.0  0.57054  0.62519  0.00832  1.0000
  C   C31       1.0  0.96155  0.69221  0.58949  1.0000
  C   C32       1.0  0.45802999999999994  0.6951099999999999  0.43398  1.0000
  C   C33       1.0  0.43842  0.2155  0.88686  1.0000
  C   C34       1.0  0.05613999999999999  0.9022299999999999  0.63358  1.0000
  C   C35       1.0  0.94878  0.48772999999999994  0.14445  1.0000
  C   C36       1.0  0.44771  0.09449999999999999  0.89092  1.0000
  C   C37       1.0  0.5144  0.04596999999999999  0.68479  1.0000
  C   C38       1.0  0.4632999999999999  0.9082199999999998  0.10086  1.0000
  C   C39       1.0  0.15053  0.14491  0.04211  1.0000
  C   C40       1.0  0.42945  0.37481  0.50832  1.0000
  C   C41       1.0  0.4471  0.48329  0.88089  1.0000
  C   C42       1.0  0.9271199999999998  0.36967999999999995  0.51749  1.0000
  C   C43       1.0  0.43503  0.60311  0.88885  1.0000
  C   C44       1.0  0.97391  0.5645399999999999  0.5855600000000001  1.0000
  C   C45       1.0  0.97058  0.86364  0.25608  1.0000
  C   C46       1.0  0.54196  0.30488999999999994  0.93398  1.0000
  C   C47       1.0  0.02189999999999999  0.9204799999999999  0.33597  1.0000
  C   C48       1.0  0.5093799999999999  0.9077499999999997  0.68607  1.0000
  C   C49       1.0  0.56497  0.39688999999999997  0.38885  1.0000
  C   C50       1.0  0.026079999999999996  0.43545  0.08555  1.0000
  C   C51       1.0  0.8496  0.73242  0.54238  1.0000
  C   C52       1.0  0.07288  0.63031  0.01748  1.0000
  C   C53       1.0  0.15038  0.26758  0.04237  1.0000
  C   C54       1.0  0.47315  0.56817  0.43902  1.0000
  C   C55       1.0  0.06310999999999992  0.7806799999999999  0.63774  1.0000
  C   C56       1.0  0.8494500000000001  0.85509  0.54213  1.0000
  N   N1        1.0  0.99887  0.31947  0.57514  1.0000
  N   N2        1.0  0.04567999999999999  0.05896999999999999  0.08512  1.0000
  N   N3        1.0  0.44621000000000005  0.94255  0.43764  1.0000
  N   N4        1.0  0.001129999999999949  0.6805299999999999  0.07513000000000002  1.0000
  N   N5        1.0  0.9543099999999999  0.9410299999999999  0.58513  1.0000
  N   N6        1.0  0.50372  0.32523  0.45136  1.0000
  N   N7        1.0  0.55378  0.05745  0.93766  1.0000
  N   N8        1.0  0.49628000000000005  0.67477  0.9513700000000002  1.0000
  O   O1        1.0  0.17587  0.18560999999999997  0.7421  1.0000
  O   O2        1.0  0.11874999999999998  0.13214999999999996  0.28452  1.0000
  O   O3        1.0  0.8812400000000001  0.86785  0.78453  1.0000
  O   O4        1.0  0.91221  0.12547  0.70587  1.0000
  O   O5        1.0  0.67401  0.10738999999999999  0.56726  1.0000
  O   O6        1.0  0.41297999999999996  0.10736999999999998  0.56446  1.0000
  O   O7        1.0  0.08776  0.89283  0.96073  1.0000
  O   O8        1.0  0.42293  0.12519  0.3189000000000001  1.0000
  O   O9        1.0  0.91224  0.10716999999999999  0.46074  1.0000
  O   O10       1.0  0.08778000000000001  0.87451  0.20587  1.0000
  O   O11       1.0  0.17865  0.12523999999999996  0.45238  1.0000
  O   O12       1.0  0.8240999999999999  0.8145899999999999  0.24209000000000003  1.0000
  O   O13       1.0  0.57706  0.8748099999999999  0.81892  1.0000
  O   O14       1.0  0.58704  0.89267  0.06445  1.0000
  O   O15       1.0  0.82135  0.87476  0.9523799999999999  1.0000
  O   O16       1.0  0.31725999999999993  0.7976099999999999  0.78165  1.0000
  O   O17       1.0  0.32599  0.8926  0.06727  1.0000
  O   O18       1.0  0.68275  0.20239  0.28165  1.0000
