data_image0
_chemical_formula_structural       Cd6H24C68O36
_chemical_formula_sum              "Cd6 H24 C68 O36"
_cell_length_a       7.7443
_cell_length_b       14.235340000000003
_cell_length_c       20.68153
_cell_angle_alpha    90.0
_cell_angle_beta     90.0
_cell_angle_gamma    105.86

_space_group_name_H-M_alt    "P 1"
_space_group_IT_number       1

loop_
  _space_group_symop_operation_xyz
  'x, y, z'

loop_
  _atom_site_type_symbol
  _atom_site_label
  _atom_site_symmetry_multiplicity
  _atom_site_fract_x
  _atom_site_fract_y
  _atom_site_fract_z
  _atom_site_occupancy
  Cd  Cd1       1.0  0.24999999999999994  0.5  0.25106  1.0000
  Cd  Cd2       1.0  0.75  0.5  0.74895  1.0000
  Cd  Cd3       1.0  0.75  0.5  0.95478  1.0000
  Cd  Cd4       1.0  0.75  0.5  0.54448  1.0000
  Cd  Cd5       1.0  0.24999999999999994  0.5  0.04522  1.0000
  Cd  Cd6       1.0  0.24999999999999994  0.5  0.4555199999999999  1.0000
  H   H1        1.0  0.45749000000000006  0.18270000000000006  0.9902599999999999  1.0000
  H   H2        1.0  0.078  0.17594  0.18513999999999997  1.0000
  H   H3        1.0  0.0678  0.021100000000000008  0.12735  1.0000
  H   H4        1.0  0.04251000000000003  0.8172900000000001  0.9902599999999999  1.0000
  H   H5        1.0  0.422  0.82406  0.18513999999999997  1.0000
  H   H6        1.0  0.4322000000000001  0.9788900000000003  0.12735  1.0000
  H   H7        1.0  0.7252499999999997  0.18268  0.50962  1.0000
  H   H8        1.0  0.10212999999999997  0.17473  0.31587  1.0000
  H   H9        1.0  0.95403  0.01993  0.37369  1.0000
  H   H10       1.0  0.7747599999999999  0.8173200000000003  0.50962  1.0000
  H   H11       1.0  0.3978699999999999  0.82527  0.31587  1.0000
  H   H12       1.0  0.54597  0.98007  0.37369  1.0000
  H   H13       1.0  0.5425100000000002  0.8172900000000001  0.00975  1.0000
  H   H14       1.0  0.92201  0.82406  0.81486  1.0000
  H   H15       1.0  0.9322000000000001  0.9788900000000003  0.8726499999999999  1.0000
  H   H16       1.0  0.9574899999999997  0.18270000000000006  0.00975  1.0000
  H   H17       1.0  0.578  0.17594  0.81486  1.0000
  H   H18       1.0  0.5678  0.021100000000000008  0.8726499999999999  1.0000
  H   H19       1.0  0.27476  0.8173200000000003  0.49038  1.0000
  H   H20       1.0  0.89787  0.82527  0.68413  1.0000
  H   H21       1.0  0.04597  0.98007  0.62632  1.0000
  H   H22       1.0  0.22523999999999997  0.18268  0.49038  1.0000
  H   H23       1.0  0.60214  0.17473  0.68413  1.0000
  H   H24       1.0  0.45403  0.01993  0.62632  1.0000
  C   C1        1.0  0.26416  0.09161  0.05544999999999999  1.0000
  C   C2        1.0  0.3768599999999999  0.18047000000000005  0.03362  1.0000
  C   C3        1.0  0.38891  0.26718  0.06744  1.0000
  C   C4        1.0  0.27951  0.26533  0.12248999999999999  1.0000
  C   C5        1.0  0.16373  0.1762  0.14341  1.0000
  C   C6        1.0  0.15798  0.08981000000000001  0.11107  1.0000
  C   C7        1.0  0.51235  0.3600900000000001  0.04236  1.0000
  C   C8        1.0  0.27285999999999994  0.3542400000000001  0.16017  1.0000
  C   C9        1.0  0.23585000000000012  0.9083900000000003  0.05544999999999999  1.0000
  C   C10       1.0  0.12313999999999993  0.81953  0.03362  1.0000
  C   C11       1.0  0.11109000000000005  0.7328200000000002  0.06744  1.0000
  C   C12       1.0  0.22049  0.73466  0.12248999999999999  1.0000
  C   C13       1.0  0.33627000000000007  0.8238  0.14341  1.0000
  C   C14       1.0  0.34202  0.9101900000000003  0.11107  1.0000
  C   C15       1.0  0.9876599999999998  0.63991  0.04236  1.0000
  C   C16       1.0  0.2271399999999999  0.64576  0.16017  1.0000
  C   C17       1.0  0.8284499999999999  0.09133  0.44506999999999997  1.0000
  C   C18       1.0  0.8046399999999998  0.18027000000000004  0.46654999999999996  1.0000
  C   C19       1.0  0.87989  0.26654  0.43236  1.0000
  C   C20       1.0  0.9885099999999996  0.26405  0.3778  1.0000
  C   C21       1.0  0.015670000000000003  0.17499  0.35733  1.0000
  C   C22       1.0  0.9335899999999998  0.08890000000000003  0.3897399999999999  1.0000
  C   C23       1.0  0.8484999999999999  0.36003000000000007  0.45583  1.0000
  C   C24       1.0  0.08234  0.35262  0.33973  1.0000
  C   C25       1.0  0.67155  0.90866  0.44506999999999997  1.0000
  C   C26       1.0  0.6953700000000002  0.8197200000000002  0.46654999999999996  1.0000
  C   C27       1.0  0.62012  0.73345  0.43236  1.0000
  C   C28       1.0  0.5115  0.73595  0.3778  1.0000
  C   C29       1.0  0.48433000000000004  0.8250100000000002  0.35733  1.0000
  C   C30       1.0  0.56642  0.9111000000000002  0.3897399999999999  1.0000
  C   C31       1.0  0.6515099999999998  0.6399700000000001  0.45583  1.0000
  C   C32       1.0  0.41765999999999986  0.64738  0.33973  1.0000
  C   C33       1.0  0.7358500000000001  0.9083900000000003  0.94455  1.0000
  C   C34       1.0  0.6231399999999998  0.81953  0.96638  1.0000
  C   C35       1.0  0.6110899999999998  0.7328200000000002  0.93256  1.0000
  C   C36       1.0  0.7204899999999999  0.73466  0.8775099999999999  1.0000
  C   C37       1.0  0.83627  0.8238  0.8566  1.0000
  C   C38       1.0  0.84202  0.9101900000000003  0.8889299999999999  1.0000
  C   C39       1.0  0.48765  0.63991  0.95764  1.0000
  C   C40       1.0  0.72714  0.64576  0.83983  1.0000
  C   C41       1.0  0.76416  0.09161  0.94455  1.0000
  C   C42       1.0  0.8768599999999998  0.18047000000000005  0.96638  1.0000
  C   C43       1.0  0.8889099999999998  0.26718  0.93256  1.0000
  C   C44       1.0  0.77951  0.26533  0.8775099999999999  1.0000
  C   C45       1.0  0.66373  0.1762  0.8566  1.0000
  C   C46       1.0  0.65798  0.08981000000000001  0.8889299999999999  1.0000
  C   C47       1.0  0.012350000000000033  0.3600900000000001  0.95764  1.0000
  C   C48       1.0  0.77286  0.3542400000000001  0.83983  1.0000
  C   C49       1.0  0.17154999999999998  0.90866  0.55493  1.0000
  C   C50       1.0  0.19537000000000015  0.8197200000000002  0.53345  1.0000
  C   C51       1.0  0.12011  0.73345  0.56764  1.0000
  C   C52       1.0  0.011489999999999974  0.73595  0.6222  1.0000
  C   C53       1.0  0.98433  0.8250100000000002  0.64268  1.0000
  C   C54       1.0  0.0664100000000001  0.9111000000000002  0.61026  1.0000
  C   C55       1.0  0.1515000000000001  0.6399700000000001  0.54417  1.0000
  C   C56       1.0  0.91766  0.64738  0.66027  1.0000
  C   C57       1.0  0.32845  0.09133  0.55493  1.0000
  C   C58       1.0  0.30463  0.18027000000000004  0.53345  1.0000
  C   C59       1.0  0.37989  0.26654  0.56764  1.0000
  C   C60       1.0  0.48851  0.26405  0.6222  1.0000
  C   C61       1.0  0.51567  0.17499  0.64268  1.0000
  C   C62       1.0  0.43358999999999986  0.08890000000000003  0.61026  1.0000
  C   C63       1.0  0.34850000000000003  0.36003000000000007  0.54417  1.0000
  C   C64       1.0  0.58235  0.35262  0.66027  1.0000
  C   C65       1.0  0.24999999999999994  0.0  0.01831  1.0000
  C   C66       1.0  0.75  0.0  0.4822699999999999  1.0000
  C   C67       1.0  0.75  0.0  0.9816899999999998  1.0000
  C   C68       1.0  0.24999999999999994  0.0  0.51773  1.0000
  O   O1        1.0  0.62764  0.35211  0.00012999999999999996  1.0000
  O   O2        1.0  0.50005  0.44271  0.06187  1.0000
  O   O3        1.0  0.15932  0.39957000000000004  0.14272  1.0000
  O   O4        1.0  0.36665999999999993  0.37587  0.21089  1.0000
  O   O5        1.0  0.87237  0.6478900000000002  0.00012999999999999996  1.0000
  O   O6        1.0  0.9999499999999998  0.55728  0.06187  1.0000
  O   O7        1.0  0.34068  0.60043  0.14272  1.0000
  O   O8        1.0  0.13334  0.62413  0.21089  1.0000
  O   O9        1.0  0.72379  0.35286  0.4973699999999999  1.0000
  O   O10       1.0  0.9442500000000001  0.4420100000000001  0.43538  1.0000
  O   O11       1.0  0.24058  0.3998100000000001  0.35708  1.0000
  O   O12       1.0  0.008900000000000043  0.3720700000000001  0.28873  1.0000
  O   O13       1.0  0.77621  0.64713  0.4973699999999999  1.0000
  O   O14       1.0  0.55575  0.55799  0.43538  1.0000
  O   O15       1.0  0.25942  0.60019  0.35708  1.0000
  O   O16       1.0  0.4911000000000001  0.6279200000000003  0.28873  1.0000
  O   O17       1.0  0.37236  0.6478900000000002  0.9998699999999999  1.0000
  O   O18       1.0  0.4999499999999998  0.55728  0.93814  1.0000
  O   O19       1.0  0.8406899999999998  0.60043  0.8572899999999999  1.0000
  O   O20       1.0  0.63334  0.62413  0.7891099999999999  1.0000
  O   O21       1.0  0.12764  0.35211  0.9998699999999999  1.0000
  O   O22       1.0  4.999999999999235e-05  0.44271  0.93814  1.0000
  O   O23       1.0  0.6593199999999998  0.39957000000000004  0.8572899999999999  1.0000
  O   O24       1.0  0.86666  0.37587  0.7891099999999999  1.0000
  O   O25       1.0  0.27621  0.64713  0.50263  1.0000
  O   O26       1.0  0.05574999999999996  0.55799  0.5646199999999999  1.0000
  O   O27       1.0  0.75943  0.60019  0.64292  1.0000
  O   O28       1.0  0.99111  0.6279200000000003  0.71127  1.0000
  O   O29       1.0  0.22378999999999993  0.35286  0.50263  1.0000
  O   O30       1.0  0.44425  0.4420100000000001  0.5646199999999999  1.0000
  O   O31       1.0  0.7405799999999998  0.3998100000000001  0.64292  1.0000
  O   O32       1.0  0.5089  0.3720700000000001  0.71127  1.0000
  O   O33       1.0  0.24999999999999994  0.0  0.9584499999999999  1.0000
  O   O34       1.0  0.75  0.0  0.5421  1.0000
  O   O35       1.0  0.75  0.0  0.04156  1.0000
  O   O36       1.0  0.24999999999999994  0.0  0.4579  1.0000
