data_image0
_chemical_formula_structural       Ni2H58C64N14O4
_chemical_formula_sum              "Ni2 H58 C64 N14 O4"
_cell_length_a       8.59763
_cell_length_b       14.697199999999999
_cell_length_c       15.75494
_cell_angle_alpha    118.02893
_cell_angle_beta     104.405
_cell_angle_gamma    90.00135999999999

_symmetry_space_group_name_H-M    'P 1'
_symmetry_Int_Tables_number       1

loop_
  _symmetry_equiv_pos_as_xyz
  'x,y,z'

loop_
  _atom_site_type_symbol
  _atom_site_label
  _atom_site_symmetry_multiplicity
  _atom_site_fract_x
  _atom_site_fract_y
  _atom_site_fract_z
  _atom_site_occupancy
  Ni  Ni1       1.0  0.4964299999999999  0.33388999999999996  0.56403  1.0000
  Ni  Ni2       1.0  0.49638  0.7716399999999998  0.43404  1.0000
  H   H1        1.0  0.65917  0.43242  0.47387  1.0000
  H   H2        1.0  0.6211  0.34211  0.26788  1.0000
  H   H3        1.0  0.27998  0.18286  0.32325  1.0000
  H   H4        1.0  0.72586  0.20096  0.42424  1.0000
  H   H5        1.0  0.94179  0.09545999999999995  0.49456  1.0000
  H   H6        1.0  0.62881  0.21775999999999998  0.68031  1.0000
  H   H7        1.0  0.43755  0.55976  0.64126  1.0000
  H   H8        1.0  0.9739100000000002  0.47555  0.65592  1.0000
  H   H9        1.0  0.11958000000000006  0.29954  0.56814  1.0000
  H   H10       1.0  0.31105  0.03995999999999999  0.17582  1.0000
  H   H11       1.0  0.16725000000000004  0.92738  0.99674  1.0000
  H   H12       1.0  0.278  0.17263000000000003  0.93554  1.0000
  H   H13       1.0  0.411  0.28796  0.11573000000000001  1.0000
  H   H14       1.0  0.40276  0.8986199999999998  0.84411  1.0000
  H   H15       1.0  0.43646  0.71208  0.76232  1.0000
  H   H16       1.0  0.9169399999999999  0.6291299999999997  0.6826299999999998  1.0000
  H   H17       1.0  0.8886399999999999  0.8165499999999998  0.7649  1.0000
  H   H18       1.0  0.09564999999999996  0.89994  0.65544  1.0000
  H   H19       1.0  0.95556  0.9704999999999998  0.54791  1.0000
  H   H20       1.0  0.83869  0.21997999999999995  0.80127  1.0000
  H   H21       1.0  0.96674  0.14343000000000003  0.9066600000000001  1.0000
  H   H22       1.0  0.9299100000000001  0.49192  0.8341000000000001  1.0000
  H   H23       1.0  0.9156499999999999  0.61164  0.83319  1.0000
  H   H24       1.0  0.8687700000000002  0.6225100000000001  0.9888700000000001  1.0000
  H   H25       1.0  0.70567  0.52071  0.91467  1.0000
  H   H26       1.0  0.71627  0.7273299999999998  0.91142  1.0000
  H   H27       1.0  0.55263  0.6271000000000001  0.8501700000000001  1.0000
  H   H28       1.0  0.64027  0.7980899999999997  0.05869  1.0000
  H   H29       1.0  0.6395600000000001  0.6797999999999997  0.05946  1.0000
  H   H30       1.0  0.33972  0.9637799999999997  0.52821  1.0000
  H   H31       1.0  0.37938  0.07725999999999998  0.73451  1.0000
  H   H32       1.0  0.71513  0.8589299999999997  0.67368  1.0000
  H   H33       1.0  0.27094  0.7789199999999997  0.57571  1.0000
  H   H34       1.0  0.05868000000000002  0.6013799999999998  0.5071  1.0000
  H   H35       1.0  0.36425  0.5395099999999999  0.31738  1.0000
  H   H36       1.0  0.55755  0.92059  0.35723  1.0000
  H   H37       1.0  0.020380000000000065  0.8202600000000001  0.34331000000000006  1.0000
  H   H38       1.0  0.87229  0.7323799999999999  0.42997  1.0000
  H   H39       1.0  0.68556  0.86297  0.8214999999999999  1.0000
  H   H40       1.0  0.8299  0.9286999999999997  0.00025  1.0000
  H   H41       1.0  0.72248  0.23707  0.06505  1.0000
  H   H42       1.0  0.58922  0.17297  0.88532  1.0000
  H   H43       1.0  0.59569  0.05452999999999999  0.15442  1.0000
  H   H44       1.0  0.5601  0.9506799999999997  0.23625000000000002  1.0000
  H   H45       1.0  0.07886  0.9455699999999998  0.31563  1.0000
  H   H46       1.0  0.10904  0.04935999999999999  0.233  1.0000
  H   H47       1.0  0.90474  0.24355999999999994  0.34369  1.0000
  H   H48       1.0  0.043780000000000006  0.4225099999999999  0.4517  1.0000
  H   H49       1.0  0.1595  0.4186999999999999  0.19878  1.0000
  H   H50       1.0  0.0328  0.23593999999999996  0.09295  1.0000
  H   H51       1.0  0.06306  0.65992  0.16255  1.0000
  H   H52       1.0  0.07973999999999999  0.78032  0.16318999999999997  1.0000
  H   H53       1.0  0.12801  0.63457  0.00893  1.0000
  H   H54       1.0  0.28885  0.6062399999999998  0.08325  1.0000
  H   H55       1.0  0.28293  0.8166099999999997  0.08717  1.0000
  H   H56       1.0  0.44493999999999995  0.7771  0.14852  1.0000
  H   H57       1.0  0.3582300000000001  0.7377899999999997  0.93972  1.0000
  H   H58       1.0  0.35949  0.6190899999999999  0.9396600000000002  1.0000
  C   C1        1.0  0.57489  0.36732  0.4108  1.0000
  C   C2        1.0  0.55628  0.3237  0.30967  1.0000
  C   C3        1.0  0.38093  0.2366499999999999  0.33749  1.0000
  C   C4        1.0  0.73726  0.18844999999999995  0.4878  1.0000
  C   C5        1.0  0.84472  0.13563  0.52155  1.0000
  C   C6        1.0  0.68331  0.20021000000000005  0.62054  1.0000
  C   C7        1.0  0.33251  0.5133199999999999  0.6339299999999999  1.0000
  C   C8        1.0  0.09087  0.46652  0.64093  1.0000
  C   C9        1.0  0.16474  0.3802699999999998  0.59703  1.0000
  C   C10       1.0  0.7195700000000003  0.49054999999999993  0.7272000000000001  1.0000
  C   C11       1.0  0.36607  0.17298999999999998  0.1587  1.0000
  C   C12       1.0  0.29926  0.07019999999999997  0.12371  1.0000
  C   C13       1.0  0.21989  0.006449999999999998  0.02284  1.0000
  C   C14       1.0  0.20832  0.042730000000000004  0.95348  1.0000
  C   C15       1.0  0.28269  0.1443  0.98845  1.0000
  C   C16       1.0  0.35892  0.20879999999999996  0.08969  1.0000
  C   C17       1.0  0.14287000000000005  0.8694599999999999  0.80708  1.0000
  C   C18       1.0  0.2973299999999999  0.8392299999999998  0.8071599999999999  1.0000
  C   C19       1.0  0.31575  0.73441  0.76096  1.0000
  C   C20       1.0  0.17912999999999996  0.6581199999999998  0.71394  1.0000
  C   C21       1.0  0.024069999999999984  0.6873499999999998  0.71514  1.0000
  C   C22       1.0  0.007639999999999954  0.7928299999999998  0.76196  1.0000
  C   C23       1.0  0.044160000000000005  0.01760999999999995  0.78963  1.0000
  C   C24       1.0  0.03910999999999999  0.9697899999999999  0.68752  1.0000
  C   C25       1.0  0.96122  0.010450000000000027  0.62694  1.0000
  C   C26       1.0  0.8894  0.10117999999999996  0.66735  1.0000
  C   C27       1.0  0.8932200000000001  0.1491999999999999  0.76895  1.0000
  C   C28       1.0  0.96757  0.10709000000000002  0.82876  1.0000
  C   C29       1.0  0.8455  0.54701  0.82984  1.0000
  C   C30       1.0  0.77135  0.58694  0.91798  1.0000
  C   C31       1.0  0.65524  0.66628  0.9182300000000001  1.0000
  C   C32       1.0  0.59207  0.7150799999999999  0.01191  1.0000
  C   C33       1.0  0.42343  0.9599899999999998  0.59016  1.0000
  C   C34       1.0  0.4427900000000001  0.016559999999999957  0.6915  1.0000
  C   C35       1.0  0.61523  0.8996999999999998  0.66085  1.0000
  C   C36       1.0  0.25897  0.70256  0.51183  1.0000
  C   C37       1.0  0.15348  0.61509  0.47892  1.0000
  C   C38       1.0  0.31089  0.58145  0.37785  1.0000
  C   C39       1.0  0.66172  0.88079  0.36435  1.0000
  C   C40       1.0  0.9030100000000001  0.82627  0.35776  1.0000
  C   C41       1.0  0.82802  0.7842399999999998  0.4012  1.0000
  C   C42       1.0  0.27256  0.7654499999999997  0.27112  1.0000
  C   C43       1.0  0.63212  0.014120000000000035  0.8405  1.0000
  C   C44       1.0  0.69816  0.9455499999999998  0.87434  1.0000
  C   C45       1.0  0.77785  0.9822399999999998  0.97502  1.0000
  C   C46       1.0  0.79059  0.08821  0.04531999999999999  1.0000
  C   C47       1.0  0.71692  0.15555  0.01147  1.0000
  C   C48       1.0  0.6404700000000001  0.11924000000000005  0.9104700000000001  1.0000
  C   C49       1.0  0.85533  0.06121999999999998  0.19114  1.0000
  C   C50       1.0  0.70051  0.03179  0.19122  1.0000
  C   C51       1.0  0.68104  0.97383  0.23756  1.0000
  C   C52       1.0  0.81689  0.9445099999999997  0.28471  1.0000
  C   C53       1.0  0.97225  0.9715699999999998  0.28327  1.0000
  C   C54       1.0  0.98974  0.02936000000000002  0.23612000000000002  1.0000
  C   C55       1.0  0.95533  0.22704999999999995  0.20956  1.0000
  C   C56       1.0  0.9607299999999999  0.2815  0.31175  1.0000
  C   C57       1.0  0.0381  0.38331  0.37266  1.0000
  C   C58       1.0  0.10884  0.43402  0.33245  1.0000
  C   C59       1.0  0.10539  0.3800699999999999  0.2309  1.0000
  C   C60       1.0  0.031770000000000014  0.27761999999999987  0.17082  1.0000
  C   C61       1.0  0.14896  0.71909  0.16756  1.0000
  C   C62       1.0  0.22473  0.66973  0.08013000000000002  1.0000
  C   C63       1.0  0.34267  0.7482699999999998  0.08039  1.0000
  C   C64       1.0  0.40642  0.7023799999999998  0.98693  1.0000
  N   N1        1.0  0.4649  0.3124199999999999  0.4271499999999999  1.0000
  N   N2        1.0  0.43313  0.23983  0.26287  1.0000
  N   N3        1.0  0.63723  0.22907000000000005  0.5502  1.0000
  N   N4        1.0  0.81044  0.14353999999999995  0.60644  1.0000
  N   N5        1.0  0.315  0.41035  0.5932  1.0000
  N   N6        1.0  0.19929000000000005  0.5515399999999998  0.6651900000000001  1.0000
  N   N7        1.0  0.12507  0.97736  0.85161  1.0000
  N   N8        1.0  0.5315  0.8874499999999996  0.57199  1.0000
  N   N9        1.0  0.56456  0.97762  0.73663  1.0000
  N   N10       1.0  0.3565  0.68116  0.44816  1.0000
  N   N11       1.0  0.18652  0.53804  0.39325  1.0000
  N   N12       1.0  0.67795  0.8185699999999998  0.40476  1.0000
  N   N13       1.0  0.79554  0.8872499999999998  0.33349  1.0000
  N   N14       1.0  0.87446  0.12440999999999999  0.14696  1.0000
  O   O1        1.0  0.6217300000000001  0.41537999999999997  0.7133900000000001  1.0000
  O   O2        1.0  0.71971  0.51868  0.66248  1.0000
  O   O3        1.0  0.3702  0.70406  0.28475  1.0000
  O   O4        1.0  0.27065  0.8581299999999998  0.33665  1.0000
