data_image0
_chemical_formula_structural       Ca4Zn4H24C64O36
_chemical_formula_sum              "Ca4 Zn4 H24 C64 O36"
_cell_length_a       11.00308
_cell_length_b       12.777609999999997
_cell_length_c       18.0944
_cell_angle_alpha    90.1202
_cell_angle_beta     90.06334
_cell_angle_gamma    101.04053

_symmetry_space_group_name_H-M    'P 1'
_symmetry_Int_Tables_number       1

loop_
  _symmetry_equiv_pos_as_xyz
  'x,y,z'

loop_
  _atom_site_type_symbol
  _atom_site_label
  _atom_site_symmetry_multiplicity
  _atom_site_fract_x
  _atom_site_fract_y
  _atom_site_fract_z
  _atom_site_occupancy
  Ca  Ca1       1.0  0.53448  0.45209  0.89983  1.0000
  Ca  Ca2       1.0  0.9659  0.048560000000000006  0.39999  1.0000
  Ca  Ca3       1.0  0.46553000000000005  0.54792  0.10017  1.0000
  Ca  Ca4       1.0  0.03410999999999996  0.95144  0.60001  1.0000
  Zn  Zn1       1.0  0.63332  0.35223  0.06582  1.0000
  Zn  Zn2       1.0  0.8641500000000001  0.15019  0.5677  1.0000
  Zn  Zn3       1.0  0.36669  0.6477700000000001  0.93417  1.0000
  Zn  Zn4       1.0  0.13586000000000004  0.84981  0.4323  1.0000
  H   H1        1.0  0.22073000000000004  0.7658900000000001  0.21265  1.0000
  H   H2        1.0  0.16158  0.08806  0.18848  1.0000
  H   H3        1.0  0.30916000000000005  0.9325200000000001  0.007039999999999999  1.0000
  H   H4        1.0  0.98659  0.39924  0.01128  1.0000
  H   H5        1.0  0.8854599999999999  0.21962  0.053810000000000004  1.0000
  H   H6        1.0  0.010659999999999996  0.07775  0.07291  1.0000
  H   H7        1.0  0.27793  0.7348  0.71336  1.0000
  H   H8        1.0  0.33645999999999987  0.41207  0.69106  1.0000
  H   H9        1.0  0.19011  0.56456  0.50815  1.0000
  H   H10       1.0  0.51108  0.09922000000000002  0.51078  1.0000
  H   H11       1.0  0.61239  0.27941  0.55283  1.0000
  H   H12       1.0  0.48685999999999996  0.42071  0.57408  1.0000
  H   H13       1.0  0.77928  0.23412  0.78734  1.0000
  H   H14       1.0  0.83843  0.9119400000000001  0.8115200000000001  1.0000
  H   H15       1.0  0.69085  0.06749  0.9929599999999998  1.0000
  H   H16       1.0  0.013420000000000008  0.60076  0.98871  1.0000
  H   H17       1.0  0.11455  0.78038  0.9461800000000001  1.0000
  H   H18       1.0  0.98935  0.92225  0.92709  1.0000
  H   H19       1.0  0.72208  0.2652  0.28663  1.0000
  H   H20       1.0  0.66355  0.58794  0.30894  1.0000
  H   H21       1.0  0.8098999999999998  0.43544  0.49185000000000006  1.0000
  H   H22       1.0  0.48893  0.90078  0.48922  1.0000
  H   H23       1.0  0.38762  0.72059  0.44717000000000007  1.0000
  H   H24       1.0  0.51315  0.57929  0.42591  1.0000
  C   C1        1.0  0.26699  0.8377500000000001  0.10584  1.0000
  C   C2        1.0  0.22417  0.83631  0.17862  1.0000
  C   C3        1.0  0.18464000000000005  0.9262200000000002  0.20745  1.0000
  C   C4        1.0  0.19033  0.0185  0.16467  1.0000
  C   C5        1.0  0.23711999999999994  0.01949  0.09301  1.0000
  C   C6        1.0  0.27356  0.9299300000000001  0.06308  1.0000
  C   C7        1.0  0.30784000000000006  0.7434700000000001  0.07135  1.0000
  C   C8        1.0  0.14051999999999995  0.92614  0.28565  1.0000
  C   C9        1.0  0.18322  0.18277  0.04698  1.0000
  C   C10       1.0  0.24187  0.2856  0.02666  1.0000
  C   C11       1.0  0.17039  0.36306  0.01156  1.0000
  C   C12       1.0  0.04155000000000001  0.33862000000000003  0.02152  1.0000
  C   C13       1.0  0.9852599999999999  0.23741000000000007  0.045680000000000005  1.0000
  C   C14       1.0  0.05504  0.15804  0.05708  1.0000
  C   C15       1.0  0.37948999999999994  0.31053  0.01777  1.0000
  C   C16       1.0  0.22987  0.4688  0.9821  1.0000
  C   C17       1.0  0.23213000000000003  0.66154  0.60651  1.0000
  C   C18       1.0  0.27474  0.66402  0.6795  1.0000
  C   C19       1.0  0.31430999999999987  0.57464  0.70898  1.0000
  C   C20       1.0  0.30807000000000007  0.48142  0.66686  1.0000
  C   C21       1.0  0.26074  0.47893  0.59524  1.0000
  C   C22       1.0  0.22523  0.56828  0.56441  1.0000
  C   C23       1.0  0.19311  0.75624  0.57114  1.0000
  C   C24       1.0  0.35949  0.57589  0.78701  1.0000
  C   C25       1.0  0.31432  0.31521  0.54855  1.0000
  C   C26       1.0  0.25568  0.21252  0.52743  1.0000
  C   C27       1.0  0.3270500000000001  0.1353  0.51127  1.0000
  C   C28       1.0  0.45609  0.15994  0.52092  1.0000
  C   C29       1.0  0.51246  0.26127  0.54525  1.0000
  C   C30       1.0  0.44265  0.34044  0.55779  1.0000
  C   C31       1.0  0.11794  0.18955  0.5188  1.0000
  C   C32       1.0  0.26726  0.02946  0.4817699999999999  1.0000
  C   C33       1.0  0.73302  0.16225  0.8941499999999999  1.0000
  C   C34       1.0  0.77584  0.16369000000000003  0.82138  1.0000
  C   C35       1.0  0.8153699999999999  0.07379  0.79255  1.0000
  C   C36       1.0  0.8096799999999998  0.9815100000000001  0.83532  1.0000
  C   C37       1.0  0.76289  0.9805100000000001  0.9069900000000001  1.0000
  C   C38       1.0  0.72645  0.07007  0.9369100000000001  1.0000
  C   C39       1.0  0.69216  0.25653  0.9286500000000001  1.0000
  C   C40       1.0  0.85949  0.07387  0.71434  1.0000
  C   C41       1.0  0.81678  0.81723  0.9530200000000001  1.0000
  C   C42       1.0  0.75814  0.7144  0.9733399999999999  1.0000
  C   C43       1.0  0.82962  0.63695  0.9884400000000001  1.0000
  C   C44       1.0  0.95846  0.66138  0.9784799999999999  1.0000
  C   C45       1.0  0.01474999999999999  0.7626  0.95431  1.0000
  C   C46       1.0  0.94497  0.84197  0.9429100000000001  1.0000
  C   C47       1.0  0.6205199999999998  0.68947  0.9822199999999999  1.0000
  C   C48       1.0  0.77013  0.53121  0.017890000000000003  1.0000
  C   C49       1.0  0.76788  0.33846  0.39349  1.0000
  C   C50       1.0  0.72527  0.33598  0.3205  1.0000
  C   C51       1.0  0.6857  0.42536000000000007  0.29102  1.0000
  C   C52       1.0  0.69194  0.51859  0.33314  1.0000
  C   C53       1.0  0.7392699999999999  0.52108  0.40476  1.0000
  C   C54       1.0  0.77478  0.43172000000000005  0.43559  1.0000
  C   C55       1.0  0.8068999999999998  0.24376  0.42886  1.0000
  C   C56       1.0  0.64052  0.42412  0.21299  1.0000
  C   C57       1.0  0.68569  0.6848  0.45144000000000006  1.0000
  C   C58       1.0  0.74432  0.78748  0.47257  1.0000
  C   C59       1.0  0.67296  0.8647  0.48873000000000005  1.0000
  C   C60       1.0  0.54392  0.84007  0.47908  1.0000
  C   C61       1.0  0.48755  0.73873  0.45475000000000004  1.0000
  C   C62       1.0  0.55736  0.65957  0.4421999999999999  1.0000
  C   C63       1.0  0.88207  0.81046  0.48120000000000007  1.0000
  C   C64       1.0  0.7327499999999999  0.97054  0.51823  1.0000
  O   O1        1.0  0.3205  0.75121  0.00048000000000000007  1.0000
  O   O2        1.0  0.32705000000000006  0.6665000000000001  0.11090999999999998  1.0000
  O   O3        1.0  0.16441999999999996  0.85014  0.32607  1.0000
  O   O4        1.0  0.08548999999999997  0.99978  0.30747  1.0000
  O   O5        1.0  0.2607299999999999  0.10957  0.04866  1.0000
  O   O6        1.0  0.16965  0.52944  0.9516900000000001  1.0000
  O   O7        1.0  0.35312  0.49807  0.9877800000000001  1.0000
  O   O8        1.0  0.42500999999999994  0.30083  0.9550400000000001  1.0000
  O   O9        1.0  0.44315000000000004  0.34377  0.07642  1.0000
  O   O10       1.0  0.18113  0.74714  0.50019  1.0000
  O   O11       1.0  0.17569000000000004  0.8347100000000001  0.61005  1.0000
  O   O12       1.0  0.33428  0.6508  0.8282  1.0000
  O   O13       1.0  0.4168700000000001  0.50334  0.80801  1.0000
  O   O14       1.0  0.23572999999999997  0.38737  0.55207  1.0000
  O   O15       1.0  0.32727999999999996  0.96812  0.45158000000000004  1.0000
  O   O16       1.0  0.14426  0.00037  0.48724  1.0000
  O   O17       1.0  0.0723  0.20038  0.45614000000000005  1.0000
  O   O18       1.0  0.05474  0.15805  0.57765  1.0000
  O   O19       1.0  0.6795  0.2488  0.99952  1.0000
  O   O20       1.0  0.67295  0.3335000000000001  0.88909  1.0000
  O   O21       1.0  0.83559  0.14987  0.67392  1.0000
  O   O22       1.0  0.91452  0.00021999999999999982  0.69253  1.0000
  O   O23       1.0  0.7392800000000003  0.8904400000000001  0.9513400000000001  1.0000
  O   O24       1.0  0.83036  0.47056  0.0483  1.0000
  O   O25       1.0  0.64689  0.50194  0.01222  1.0000
  O   O26       1.0  0.5750000000000001  0.6991700000000001  0.04495  1.0000
  O   O27       1.0  0.5568500000000001  0.65624  0.92358  1.0000
  O   O28       1.0  0.81888  0.25286  0.49981000000000003  1.0000
  O   O29       1.0  0.8243099999999999  0.1653  0.38995  1.0000
  O   O30       1.0  0.66573  0.3492  0.1718  1.0000
  O   O31       1.0  0.5831300000000003  0.49667  0.19198  1.0000
  O   O32       1.0  0.7642799999999998  0.61263  0.44793  1.0000
  O   O33       1.0  0.67273  0.03188  0.54841  1.0000
  O   O34       1.0  0.85575  0.99963  0.51276  1.0000
  O   O35       1.0  0.92771  0.7996300000000001  0.54385  1.0000
  O   O36       1.0  0.9452700000000002  0.8419600000000003  0.42234  1.0000
