data_image0
_chemical_formula_structural       Gd4Ag4H32C56N8O32
_chemical_formula_sum              "Gd4 Ag4 H32 C56 N8 O32"
_cell_length_a       9.61518
_cell_length_b       12.08009
_cell_length_c       16.7951
_cell_angle_alpha    97.56895
_cell_angle_beta     89.9818
_cell_angle_gamma    113.22422

_symmetry_space_group_name_H-M    'P 1'
_symmetry_Int_Tables_number       1

loop_
  _symmetry_equiv_pos_as_xyz
  'x,y,z'

loop_
  _atom_site_type_symbol
  _atom_site_label
  _atom_site_symmetry_multiplicity
  _atom_site_fract_x
  _atom_site_fract_y
  _atom_site_fract_z
  _atom_site_occupancy
  Gd  Gd1       1.0  0.30468  0.00941000000000001  0.93386  1.0000
  Gd  Gd2       1.0  0.29615  0.9914600000000001  0.56602  1.0000
  Gd  Gd3       1.0  0.70385  0.00852999999999998  0.43398  1.0000
  Gd  Gd4       1.0  0.6953200000000002  0.99058  0.06614  1.0000
  Ag  Ag1       1.0  0.04215999999999999  0.31997  0.58578  1.0000
  Ag  Ag2       1.0  0.27777  0.32011  0.08536  1.0000
  Ag  Ag3       1.0  0.72223  0.67989  0.91464  1.0000
  Ag  Ag4       1.0  0.9578400000000001  0.6800199999999998  0.4142099999999999  1.0000
  H   H1        1.0  0.75978  0.71601  0.54792  1.0000
  H   H2        1.0  0.4128200000000001  0.81275  0.7217  1.0000
  H   H3        1.0  0.43828  0.40529  0.36536999999999986  1.0000
  H   H4        1.0  0.56172  0.59471  0.63462  1.0000
  H   H5        1.0  0.04498  0.28621  0.95154  1.0000
  H   H6        1.0  0.028120000000000023  0.90843  0.16453  1.0000
  H   H7        1.0  0.11996000000000001  0.09157  0.3347  1.0000
  H   H8        1.0  0.12995  0.63704  0.87768  1.0000
  H   H9        1.0  0.40012  0.8127  0.22172  1.0000
  H   H10       1.0  0.59988  0.1873  0.77828  1.0000
  H   H11       1.0  0.45428  0.69846  0.82623  1.0000
  H   H12       1.0  0.8700500000000001  0.36295  0.12231999999999998  1.0000
  H   H13       1.0  0.49312000000000006  0.36671  0.6226099999999998  1.0000
  H   H14       1.0  0.24022000000000002  0.28398  0.45207  1.0000
  H   H15       1.0  0.42549  0.58873  0.04896  1.0000
  H   H16       1.0  0.90717  0.79736  0.7760499999999998  1.0000
  H   H17       1.0  0.88004  0.9084299999999998  0.6652999999999998  1.0000
  H   H18       1.0  0.10977000000000002  0.20266  0.72492  1.0000
  H   H19       1.0  0.54572  0.30153  0.17377  1.0000
  H   H20       1.0  0.8364700000000002  0.41111  0.4514  1.0000
  H   H21       1.0  0.24458  0.69824  0.32605  1.0000
  H   H22       1.0  0.9694300000000001  0.40929  0.86532  1.0000
  H   H23       1.0  0.75542  0.30175  0.67395  1.0000
  H   H24       1.0  0.030570000000000035  0.5907  0.13468  1.0000
  H   H25       1.0  0.5871800000000001  0.18724000000000002  0.2783  1.0000
  H   H26       1.0  0.9550200000000001  0.71379  0.04846  1.0000
  H   H27       1.0  0.89023  0.79733  0.27508  1.0000
  H   H28       1.0  0.50688  0.63329  0.37738  1.0000
  H   H29       1.0  0.16352999999999998  0.58889  0.5486  1.0000
  H   H30       1.0  0.97188  0.09157  0.83546  1.0000
  H   H31       1.0  0.57451  0.41127  0.95104  1.0000
  H   H32       1.0  0.09283000000000002  0.20264000000000001  0.22394999999999995  1.0000
  C   C1        1.0  0.7836  0.86375  0.70022  1.0000
  C   C2        1.0  0.6190700000000001  0.5502300000000001  0.59452  1.0000
  C   C3        1.0  0.38976  0.76059  0.9738799999999999  1.0000
  C   C4        1.0  0.66241  0.37431  0.53698  1.0000
  C   C5        1.0  0.84083  0.42264999999999997  0.08847  1.0000
  C   C6        1.0  0.37232  0.75968  0.47363  1.0000
  C   C7        1.0  0.03485  0.06942  0.01266  1.0000
  C   C8        1.0  0.35581  0.12928  0.31448  1.0000
  C   C9        1.0  0.32488  0.55118  0.0081  1.0000
  C   C10       1.0  0.6102300000000002  0.23941000000000004  0.02611  1.0000
  C   C11       1.0  0.9651700000000001  0.93058  0.9873299999999999  1.0000
  C   C12       1.0  0.79898  0.80101  0.76121  1.0000
  C   C13       1.0  0.11205000000000001  0.38313  0.95302  1.0000
  C   C14       1.0  0.72982  0.61898  0.54675  1.0000
  C   C15       1.0  0.08031999999999992  0.8638399999999999  0.19952999999999996  1.0000
  C   C16       1.0  0.67885  0.057289999999999966  0.87715  1.0000
  C   C17       1.0  0.77317  0.12920000000000004  0.81478  1.0000
  C   C18       1.0  0.03382  0.06949  0.51258  1.0000
  C   C19       1.0  0.29016  0.07039  0.75635  1.0000
  C   C20       1.0  0.22636  0.55053  0.50786  1.0000
  C   C21       1.0  0.79917  0.25349  0.71043  1.0000
  C   C22       1.0  0.92915  0.54715  0.09454999999999998  1.0000
  C   C23       1.0  0.5230100000000001  0.8095700000000001  0.73109  1.0000
  C   C24       1.0  0.15917000000000006  0.57735  0.91153  1.0000
  C   C25       1.0  0.2164  0.13625  0.29978  1.0000
  C   C26       1.0  0.9977800000000001  0.19892  0.73954  1.0000
  C   C27       1.0  0.71329  0.19056  0.76903  1.0000
  C   C28       1.0  0.07085  0.45284  0.90545  1.0000
  C   C29       1.0  0.32113  0.9427  0.12284999999999999  1.0000
  C   C30       1.0  0.77364  0.44946  0.49213  1.0000
  C   C31       1.0  0.27018  0.38102  0.45325  1.0000
  C   C32       1.0  0.58227  0.4254800000000001  0.58867  1.0000
  C   C33       1.0  0.22684  0.87079  0.18522  1.0000
  C   C34       1.0  0.6277  0.24032  0.52636  1.0000
  C   C35       1.0  0.6230799999999999  0.94291  0.62285  1.0000
  C   C36       1.0  0.20102  0.19898  0.23879  1.0000
  C   C37       1.0  0.67512  0.44882000000000005  0.9918899999999999  1.0000
  C   C38       1.0  0.37693  0.057090000000000016  0.37715  1.0000
  C   C39       1.0  0.22226999999999997  0.9294700000000001  0.74349  1.0000
  C   C40       1.0  0.38093  0.44977  0.40547  1.0000
  C   C41       1.0  0.20082999999999995  0.7465  0.28956  1.0000
  C   C42       1.0  0.9196800000000002  0.13615  0.80046  1.0000
  C   C43       1.0  0.28977  0.62715  0.96331  1.0000
  C   C44       1.0  0.41773000000000005  0.57451  0.41132  1.0000
  C   C45       1.0  0.70984  0.9296  0.24366  1.0000
  C   C46       1.0  0.96617  0.93051  0.48741999999999996  1.0000
  C   C47       1.0  0.47699  0.19042  0.26891  1.0000
  C   C48       1.0  0.002219999999999987  0.80107  0.26046  1.0000
  C   C49       1.0  0.77774  0.07052  0.25652  1.0000
  C   C50       1.0  0.8879500000000001  0.61686  0.04698  1.0000
  C   C51       1.0  0.6441900000000002  0.87071  0.68551  1.0000
  C   C52       1.0  0.54608  0.74662  0.78981  1.0000
  C   C53       1.0  0.33758  0.62569  0.46302  1.0000
  C   C54       1.0  0.7102300000000001  0.37284  0.03668  1.0000
  C   C55       1.0  0.2867100000000001  0.8094300000000001  0.23096  1.0000
  C   C56       1.0  0.45392  0.25337  0.21019  1.0000
  N   N1        1.0  0.06156999999999999  0.74341  0.30552  1.0000
  N   N2        1.0  0.7634200000000002  0.56843  0.9957399999999998  1.0000
  N   N3        1.0  0.8053800000000001  0.5693200000000002  0.49563  1.0000
  N   N4        1.0  0.93843  0.25658  0.69447  1.0000
  N   N5        1.0  0.31797  0.2567  0.19400999999999993  1.0000
  N   N6        1.0  0.68203  0.7432999999999998  0.80599  1.0000
  N   N7        1.0  0.23658000000000004  0.43157  0.00426  1.0000
  N   N8        1.0  0.19463000000000008  0.43067000000000005  0.50436  1.0000
  O   O1        1.0  0.81975  0.12327000000000002  0.32818  1.0000
  O   O2        1.0  0.66743  0.8778099999999999  0.30548  1.0000
  O   O3        1.0  0.5005  0.04252  0.37724  1.0000
  O   O4        1.0  0.7437200000000002  0.01668999999999999  0.92452  1.0000
  O   O5        1.0  0.47648000000000007  0.20773  0.9963200000000001  1.0000
  O   O6        1.0  0.7288800000000001  0.98245  0.57565  1.0000
  O   O7        1.0  0.18024000000000004  0.87672  0.67181  1.0000
  O   O8        1.0  0.8489  0.8837700000000002  0.44024  1.0000
  O   O9        1.0  0.27111  0.017540000000000017  0.42435  1.0000
  O   O10       1.0  0.7854199999999999  0.12201999999999999  0.19463999999999995  1.0000
  O   O11       1.0  0.21457999999999988  0.87798  0.80535  1.0000
  O   O12       1.0  0.96408  0.11598  0.06005  1.0000
  O   O13       1.0  0.25628  0.9833  0.07548  1.0000
  O   O14       1.0  0.96558  0.12777000000000005  0.4838700000000001  1.0000
  O   O15       1.0  0.29839  0.12288  0.82793  1.0000
  O   O16       1.0  0.52353  0.79227  0.00368  1.0000
  O   O17       1.0  0.49965000000000004  0.17205  0.54769  1.0000
  O   O18       1.0  0.8394400000000001  0.87209  0.01621  1.0000
  O   O19       1.0  0.70161  0.8771099999999998  0.17207  1.0000
  O   O20       1.0  0.49950000000000006  0.9574700000000002  0.62276  1.0000
  O   O21       1.0  0.50034  0.82794  0.45231  1.0000
  O   O22       1.0  0.33207  0.83045  0.95245  1.0000
  O   O23       1.0  0.034420000000000034  0.87222  0.51613  1.0000
  O   O24       1.0  0.6679400000000001  0.16954  0.04755  1.0000
  O   O25       1.0  0.15111  0.11623  0.55976  1.0000
  O   O26       1.0  0.035910000000000095  0.88402  0.93995  1.0000
  O   O27       1.0  0.16055  0.12789999999999999  0.9837899999999999  1.0000
  O   O28       1.0  0.45858000000000004  0.9556800000000001  0.12309  1.0000
  O   O29       1.0  0.27135  0.7932099999999999  0.50342  1.0000
  O   O30       1.0  0.7286400000000001  0.20678999999999995  0.49657999999999997  1.0000
  O   O31       1.0  0.5414300000000001  0.04431000000000001  0.87691  1.0000
  O   O32       1.0  0.33257  0.12218999999999998  0.69451  1.0000
