data_image0
_chemical_formula_structural       Zn4H52C58N12O20
_chemical_formula_sum              "Zn4 H52 C58 N12 O20"
_cell_length_a       8.29707
_cell_length_b       15.31946
_cell_length_c       18.17885
_cell_angle_alpha    111.66959
_cell_angle_beta     89.93335
_cell_angle_gamma    105.85328

_space_group_name_H-M_alt    "P 1"
_space_group_IT_number       1

loop_
  _space_group_symop_operation_xyz
  'x, y, z'

loop_
  _atom_site_type_symbol
  _atom_site_label
  _atom_site_symmetry_multiplicity
  _atom_site_fract_x
  _atom_site_fract_y
  _atom_site_fract_z
  _atom_site_occupancy
  Zn  Zn1       1.0  0.48696  0.3911899999999999  0.8853799999999997  1.0000
  Zn  Zn2       1.0  0.09120999999999996  0.60892  0.61454  1.0000
  Zn  Zn3       1.0  0.5130299999999999  0.6088199999999999  0.11462  1.0000
  Zn  Zn4       1.0  0.90879  0.39109  0.38547  1.0000
  H   H1        1.0  0.22399999999999998  0.41784999999999994  0.6777799999999998  1.0000
  H   H2        1.0  0.76372  0.08421  0.86336  1.0000
  H   H3        1.0  0.97783  0.15342999999999996  0.89318  1.0000
  H   H4        1.0  0.4825499999999999  0.10256999999999994  0.78902  1.0000
  H   H5        1.0  0.4015100000000001  0.18327000000000004  0.86554  1.0000
  H   H6        1.0  0.51599  0.11186  0.8889  1.0000
  H   H7        1.0  0.05176999999999999  0.01189999999999998  0.80017  1.0000
  H   H8        1.0  0.9507399999999999  0.1815699999999999  0.46311999999999987  1.0000
  H   H9        1.0  0.16522  0.11889999999999999  0.64717  1.0000
  H   H10       1.0  0.07301000000000003  0.32826  0.88461  1.0000
  H   H11       1.0  0.8853  0.45836  0.89899  1.0000
  H   H12       1.0  0.8054299999999999  0.0800099999999999  0.7231799999999998  1.0000
  H   H13       1.0  0.018  0.14966  0.75758  1.0000
  H   H14       1.0  0.80254  0.58283  0.82233  1.0000
  H   H15       1.0  0.67801  0.9156299999999999  0.6355299999999998  1.0000
  H   H16       1.0  0.8224099999999999  0.8461699999999999  0.60647  1.0000
  H   H17       1.0  0.37973  0.89794  0.71165  1.0000
  H   H18       1.0  0.21592999999999996  0.81743  0.63591  1.0000
  H   H19       1.0  0.40179000000000004  0.88844  0.61163  1.0000
  H   H20       1.0  0.03840999999999999  0.98745  0.69818  1.0000
  H   H21       1.0  0.76962  0.81861  0.03796  1.0000
  H   H22       1.0  0.04135999999999995  0.8819199999999999  0.85231  1.0000
  H   H23       1.0  0.7419399999999998  0.6724699999999998  0.61618  1.0000
  H   H24       1.0  0.42296000000000006  0.5421699999999999  0.6017999999999998  1.0000
  H   H25       1.0  0.72301  0.92214  0.77621  1.0000
  H   H26       1.0  0.86389  0.85115  0.7427  1.0000
  H   H27       1.0  0.7759999999999999  0.58215  0.32222  1.0000
  H   H28       1.0  0.23627999999999993  0.91579  0.13665  1.0000
  H   H29       1.0  0.02217999999999999  0.84657  0.10681999999999997  1.0000
  H   H30       1.0  0.51746  0.89743  0.21098  1.0000
  H   H31       1.0  0.5984999999999999  0.8167399999999999  0.13445999999999994  1.0000
  H   H32       1.0  0.48401  0.88815  0.11109999999999998  1.0000
  H   H33       1.0  0.94823  0.9881  0.19983  1.0000
  H   H34       1.0  0.04926000000000004  0.81843  0.53688  1.0000
  H   H35       1.0  0.8347800000000001  0.8811000000000001  0.35283  1.0000
  H   H36       1.0  0.9269899999999999  0.6717399999999998  0.11538999999999999  1.0000
  H   H37       1.0  0.11469999999999998  0.54164  0.10101  1.0000
  H   H38       1.0  0.19457999999999998  0.92  0.27682  1.0000
  H   H39       1.0  0.9819999999999999  0.85035  0.24242  1.0000
  H   H40       1.0  0.19745  0.41717  0.17767  1.0000
  H   H41       1.0  0.32199  0.08437  0.36448  1.0000
  H   H42       1.0  0.1776  0.15384  0.39353  1.0000
  H   H43       1.0  0.62027  0.10206  0.28836  1.0000
  H   H44       1.0  0.78407  0.18257  0.3641  1.0000
  H   H45       1.0  0.59821  0.11156  0.38838  1.0000
  H   H46       1.0  0.96159  0.012549999999999993  0.30183  1.0000
  H   H47       1.0  0.23037999999999997  0.18139999999999998  0.9620399999999999  1.0000
  H   H48       1.0  0.95864  0.11807999999999998  0.14769  1.0000
  H   H49       1.0  0.25806  0.32754  0.38382  1.0000
  H   H50       1.0  0.57704  0.45783  0.3982  1.0000
  H   H51       1.0  0.27699  0.07787  0.22379  1.0000
  H   H52       1.0  0.13611  0.14885  0.2573  1.0000
  C   C1        1.0  0.06144999999999999  0.3805  0.53341  1.0000
  C   C2        1.0  0.05148000000000001  0.13828  0.54884  1.0000
  C   C3        1.0  0.17626  0.33975  0.64143  1.0000
  C   C4        1.0  0.08865  0.30755  0.56574  1.0000
  C   C5        1.0  0.8688399999999998  0.1361199999999999  0.85074  1.0000
  C   C6        1.0  0.50847  0.15353000000000006  0.85185  1.0000
  C   C7        1.0  0.20117  0.27085999999999993  0.6700899999999999  1.0000
  C   C8        1.0  0.6646700000000001  0.23574  0.86556  1.0000
  C   C9        1.0  0.024190000000000007  0.20702  0.52024  1.0000
  C   C10       1.0  0.14095  0.16992  0.62366  1.0000
  C   C11       1.0  0.9384600000000001  0.31782  0.88076  1.0000
  C   C12       1.0  0.8446699999999999  0.38075999999999993  0.88763  1.0000
  C   C13       1.0  0.91267  0.09360000000000002  0.7654699999999999  1.0000
  C   C14       1.0  0.29228999999999994  0.30044999999999994  0.7509099999999999  1.0000
  C   C15       1.0  0.682  0.6193  0.96699  1.0000
  C   C16       1.0  0.91123  0.86204  0.95132  1.0000
  C   C17       1.0  0.83362  0.66094  0.85861  1.0000
  C   C18       1.0  0.77986  0.69291  0.93467  1.0000
  C   C19       1.0  0.73071  0.8641  0.64879  1.0000
  C   C20       1.0  0.35297999999999996  0.8468599999999998  0.64885  1.0000
  C   C21       1.0  0.92647  0.72989  0.82965  1.0000
  C   C22       1.0  0.42625  0.76455  0.63475  1.0000
  C   C23       1.0  0.81614  0.79335  0.98039  1.0000
  C   C24       1.0  0.9672900000000001  0.8307  0.87609  1.0000
  C   C25       1.0  0.61765  0.68264  0.61968  1.0000
  C   C26       1.0  0.46041999999999994  0.6196999999999999  0.6129799999999999  1.0000
  C   C27       1.0  0.81675  0.90737  0.73413  1.0000
  C   C28       1.0  0.9863999999999999  0.70031  0.74852  1.0000
  C   C29       1.0  0.9385500000000001  0.61951  0.4666  1.0000
  C   C30       1.0  0.9485199999999999  0.86172  0.45116  1.0000
  C   C31       1.0  0.82374  0.66025  0.35857  1.0000
  C   C32       1.0  0.9113499999999999  0.6924499999999999  0.43425999999999987  1.0000
  C   C33       1.0  0.13116000000000003  0.86389  0.14926  1.0000
  C   C34       1.0  0.49153  0.84647  0.14815  1.0000
  C   C35       1.0  0.79883  0.72914  0.32991  1.0000
  C   C36       1.0  0.33534  0.76427  0.13444  1.0000
  C   C37       1.0  0.9758100000000001  0.79298  0.47975999999999996  1.0000
  C   C38       1.0  0.85905  0.83008  0.37634  1.0000
  C   C39       1.0  0.06153999999999999  0.68219  0.11925000000000001  1.0000
  C   C40       1.0  0.15533  0.61925  0.11238  1.0000
  C   C41       1.0  0.08733999999999997  0.9064  0.23453  1.0000
  C   C42       1.0  0.7077000000000001  0.6995500000000001  0.24909  1.0000
  C   C43       1.0  0.31798  0.38072  0.03302  1.0000
  C   C44       1.0  0.08878  0.13796  0.04867999999999999  1.0000
  C   C45       1.0  0.16638  0.33906  0.14138999999999996  1.0000
  C   C46       1.0  0.22012999999999996  0.30709999999999993  0.06533  1.0000
  C   C47       1.0  0.2693  0.1359  0.35122  1.0000
  C   C48       1.0  0.64702  0.15314  0.35115  1.0000
  C   C49       1.0  0.07353  0.27011  0.17036  1.0000
  C   C50       1.0  0.57375  0.23545  0.36526  1.0000
  C   C51       1.0  0.18384999999999996  0.20665999999999995  0.019609999999999992  1.0000
  C   C52       1.0  0.03271000000000002  0.1693  0.12391999999999999  1.0000
  C   C53       1.0  0.38235  0.31736  0.38032  1.0000
  C   C54       1.0  0.53958  0.38029999999999986  0.3870199999999999  1.0000
  C   C55       1.0  0.18324999999999997  0.09263999999999997  0.26587  1.0000
  C   C56       1.0  0.013599999999999998  0.29969  0.25148  1.0000
  C   C57       1.0  0.9646500000000001  2.9999999999871255e-05  0.7494699999999997  1.0000
  C   C58       1.0  0.03535000000000006  0.99997  0.25054  1.0000
  N   N1        1.0  0.82383  0.22693999999999995  0.86718  1.0000
  N   N2        1.0  0.67486  0.32938000000000006  0.87816  1.0000
  N   N3        1.0  0.9707100000000001  0.036309999999999974  0.49738999999999994  1.0000
  N   N4        1.0  0.59428  0.77338  0.63298  1.0000
  N   N5        1.0  0.34212  0.67093  0.62235  1.0000
  N   N6        1.0  0.93374  0.96389  0.00265  1.0000
  N   N7        1.0  0.17617000000000005  0.77306  0.13281999999999994  1.0000
  N   N8        1.0  0.32514  0.67062  0.12185  1.0000
  N   N9        1.0  0.029289999999999997  0.96369  0.50262  1.0000
  N   N10       1.0  0.4057299999999999  0.22661999999999993  0.3670199999999999  1.0000
  N   N11       1.0  0.65788  0.32908  0.37766  1.0000
  N   N12       1.0  0.06626999999999998  0.03610999999999999  0.99735  1.0000
  O   O1        1.0  0.3015  0.23449000000000006  0.77464  1.0000
  O   O2        1.0  0.35815  0.39332  0.7928999999999999  1.0000
  O   O3        1.0  0.84876  0.017759999999999995  0.44596  1.0000
  O   O4        1.0  0.00810999999999998  0.34621  0.45945  1.0000
  O   O5        1.0  0.09618999999999994  0.4689799999999999  0.58164  1.0000
  O   O6        1.0  0.057219999999999965  0.76576  0.72331  1.0000
  O   O7        1.0  0.96224  0.60751  0.70763  1.0000
  O   O8        1.0  0.83078  0.9826499999999999  0.05433  1.0000
  O   O9        1.0  0.6581599999999999  0.6535299999999999  0.04033  1.0000
  O   O10       1.0  0.63532  0.53026  0.91922  1.0000
  O   O11       1.0  0.6985  0.76551  0.22536  1.0000
  O   O12       1.0  0.64185  0.60668  0.20711  1.0000
  O   O13       1.0  0.15123999999999993  0.98225  0.55405  1.0000
  O   O14       1.0  0.9919  0.6538  0.54055  1.0000
  O   O15       1.0  0.90381  0.53102  0.41836  1.0000
  O   O16       1.0  0.94278  0.23424  0.27669  1.0000
  O   O17       1.0  0.03776  0.39249  0.29237  1.0000
  O   O18       1.0  0.16921999999999993  0.017349999999999855  0.9456699999999998  1.0000
  O   O19       1.0  0.34185  0.34647  0.95967  1.0000
  O   O20       1.0  0.36462  0.46974  0.08077  1.0000
