data_image0
_chemical_formula_structural       Cd4H28C48Br8N8O18
_chemical_formula_sum              "Cd4 H28 C48 Br8 N8 O18"
_cell_length_a       11.71605
_cell_length_b       11.71698
_cell_length_c       15.19947
_cell_angle_alpha    109.6768
_cell_angle_beta     109.70537999999999
_cell_angle_gamma    96.9514

_space_group_name_H-M_alt    "P 1"
_space_group_IT_number       1

loop_
  _space_group_symop_operation_xyz
  'x, y, z'

loop_
  _atom_site_type_symbol
  _atom_site_label
  _atom_site_symmetry_multiplicity
  _atom_site_fract_x
  _atom_site_fract_y
  _atom_site_fract_z
  _atom_site_occupancy
  Cd  Cd1       1.0  0.267  0.002039999999999987  0.2851  1.0000
  Cd  Cd2       1.0  0.9979399999999999  0.73295  0.21491  1.0000
  Cd  Cd3       1.0  0.73299  0.99797  0.7149  1.0000
  Cd  Cd4       1.0  0.0020600000000000392  0.26705  0.78509  1.0000
  H   H1        1.0  0.99048  0.9455400000000002  0.18388  1.0000
  H   H2        1.0  0.97321  0.46985  0.68428  1.0000
  H   H3        1.0  0.11318000000000014  0.8465200000000003  0.9240200000000002  1.0000
  H   H4        1.0  0.1048300000000001  0.5136100000000002  0.9870900000000002  1.0000
  H   H5        1.0  0.31171999999999994  0.34758000000000006  0.8825500000000001  1.0000
  H   H6        1.0  0.4428000000000002  0.2431100000000001  0.6389400000000002  1.0000
  H   H7        1.0  0.049200000000000084  0.17600000000000007  0.5815100000000001  1.0000
  H   H8        1.0  0.05441000000000006  0.009280000000000054  0.3157600000000001  1.0000
  H   H9        1.0  0.53025  0.026850000000000082  0.8158000000000002  1.0000
  H   H10       1.0  0.15336000000000002  0.8867700000000002  0.57605  1.0000
  H   H11       1.0  0.48625  0.89513  0.51297  1.0000
  H   H12       1.0  0.6524400000000001  0.6883300000000001  0.6174000000000001  1.0000
  H   H13       1.0  0.7568399999999998  0.55702  0.861  1.0000
  H   H14       1.0  0.8239700000000001  0.95055  0.9184800000000002  1.0000
  H   H15       1.0  0.0095100000000001  0.05446000000000014  0.8161200000000002  1.0000
  H   H16       1.0  0.026780000000000033  0.53016  0.31572000000000006  1.0000
  H   H17       1.0  0.88681  0.15348  0.07597  1.0000
  H   H18       1.0  0.89517  0.4863900000000001  0.012910000000000001  1.0000
  H   H19       1.0  0.68828  0.6524300000000002  0.11744  1.0000
  H   H20       1.0  0.5572  0.75689  0.36105  1.0000
  H   H21       1.0  0.95079  0.8240000000000001  0.4184800000000001  1.0000
  H   H22       1.0  0.9455900000000002  0.99072  0.68423  1.0000
  H   H23       1.0  0.46974999999999995  0.9731500000000001  0.18420000000000006  1.0000
  H   H24       1.0  0.84664  0.11324000000000004  0.42395  1.0000
  H   H25       1.0  0.51374  0.10488000000000001  0.4870300000000001  1.0000
  H   H26       1.0  0.34756  0.31168  0.38259  1.0000
  H   H27       1.0  0.24315  0.4429800000000001  0.139  1.0000
  H   H28       1.0  0.17603  0.04945  0.08152  1.0000
  C   C1        1.0  0.015059999999999959  0.53464  0.76441  1.0000
  C   C2        1.0  0.039310000000000074  0.6646700000000001  0.7946900000000002  1.0000
  C   C3        1.0  0.09276000000000006  0.7447200000000002  0.8983400000000002  1.0000
  C   C4        1.0  0.11584000000000011  0.6896900000000002  0.9691900000000002  1.0000
  C   C5        1.0  0.08830000000000003  0.55889  0.93379  1.0000
  C   C6        1.0  0.16187000000000007  0.76589  0.08232  1.0000
  C   C7        1.0  0.2948100000000001  0.3081600000000001  0.8020000000000002  1.0000
  C   C8        1.0  0.39311000000000007  0.3019100000000002  0.7697800000000002  1.0000
  C   C9        1.0  0.36798  0.24966000000000002  0.66599  1.0000
  C   C10       1.0  0.24208000000000005  0.20394000000000007  0.5960300000000001  1.0000
  C   C11       1.0  0.14805  0.21173  0.63333  1.0000
  C   C12       1.0  0.20611000000000002  0.14345000000000008  0.48214000000000007  1.0000
  C   C13       1.0  0.4654  0.98497  0.73567  1.0000
  C   C14       1.0  0.3353400000000001  0.9607200000000001  0.70539  1.0000
  C   C15       1.0  0.2552  0.90714  0.60173  1.0000
  C   C16       1.0  0.31019  0.88399  0.53086  1.0000
  C   C17       1.0  0.44103  0.9116  0.56629  1.0000
  C   C18       1.0  0.23402  0.8378500000000001  0.41767  1.0000
  C   C19       1.0  0.6918300000000001  0.7051400000000002  0.6979500000000001  1.0000
  C   C20       1.0  0.69809  0.6068200000000001  0.73017  1.0000
  C   C21       1.0  0.7503200000000001  0.63188  0.83397  1.0000
  C   C22       1.0  0.796  0.7577400000000001  0.90394  1.0000
  C   C23       1.0  0.78822  0.8517600000000002  0.8666100000000001  1.0000
  C   C24       1.0  0.85651  0.7939700000000001  0.0179  1.0000
  C   C25       1.0  0.98493  0.46536  0.23559  1.0000
  C   C26       1.0  0.96069  0.33534  0.2053  1.0000
  C   C27       1.0  0.90723  0.25529  0.10166000000000003  1.0000
  C   C28       1.0  0.88415  0.31031000000000003  0.0308  1.0000
  C   C29       1.0  0.9116900000000001  0.44112  0.06621  1.0000
  C   C30       1.0  0.83812  0.23411000000000004  0.9176700000000001  1.0000
  C   C31       1.0  0.70518  0.69184  0.198  1.0000
  C   C32       1.0  0.6068900000000002  0.6981000000000002  0.23021000000000005  1.0000
  C   C33       1.0  0.63202  0.75035  0.334  1.0000
  C   C34       1.0  0.75792  0.7960600000000002  0.40397  1.0000
  C   C35       1.0  0.8519400000000001  0.7882700000000001  0.36667000000000005  1.0000
  C   C36       1.0  0.7938799999999999  0.85656  0.5178500000000001  1.0000
  C   C37       1.0  0.5346  0.015040000000000022  0.26433000000000006  1.0000
  C   C38       1.0  0.66466  0.03928  0.29461  1.0000
  C   C39       1.0  0.7447999999999999  0.09287000000000005  0.39826  1.0000
  C   C40       1.0  0.6898  0.11601000000000004  0.46913  1.0000
  C   C41       1.0  0.55896  0.08840000000000008  0.4337100000000001  1.0000
  C   C42       1.0  0.76598  0.16216000000000003  0.5823300000000001  1.0000
  C   C43       1.0  0.30816000000000004  0.29486000000000007  0.30204000000000003  1.0000
  C   C44       1.0  0.30190999999999996  0.39318  0.26983  1.0000
  C   C45       1.0  0.24968  0.36813  0.16603000000000004  1.0000
  C   C46       1.0  0.20399999999999996  0.24226  0.09606  1.0000
  C   C47       1.0  0.21178  0.14824000000000004  0.13338000000000003  1.0000
  C   C48       1.0  0.1434800000000001  0.2060300000000001  0.9821000000000002  1.0000
  Br  Br1       1.0  0.99332  0.7299600000000002  0.69144  1.0000
  Br  Br2       1.0  0.5635100000000001  0.36320000000000024  0.8707700000000003  1.0000
  Br  Br3       1.0  0.27010000000000006  0.006760000000000119  0.8086500000000002  1.0000
  Br  Br4       1.0  0.6367800000000001  0.43650000000000017  0.6291700000000002  1.0000
  Br  Br5       1.0  0.006680000000000012  0.27004  0.30856  1.0000
  Br  Br6       1.0  0.43648  0.6368  0.12923  1.0000
  Br  Br7       1.0  0.7299  0.99324  0.19134000000000007  1.0000
  Br  Br8       1.0  0.36321  0.5635000000000001  0.37083  1.0000
  N   N1        1.0  0.04116000000000009  0.4836000000000002  0.8338000000000002  1.0000
  N   N2        1.0  0.17407999999999998  0.26324999999999993  0.73389  1.0000
  N   N3        1.0  0.5164100000000001  0.9588800000000001  0.6662700000000003  1.0000
  N   N4        1.0  0.73675  0.82583  0.76606  1.0000
  N   N5        1.0  0.9588399999999999  0.5164  0.16619  1.0000
  N   N6        1.0  0.82592  0.73676  0.2661  1.0000
  N   N7        1.0  0.48358  0.04112000000000001  0.33372  1.0000
  N   N8        1.0  0.26325000000000004  0.17417000000000005  0.23394000000000006  1.0000
  O   O1        1.0  0.21864  0.88159  0.11561000000000003  1.0000
  O   O2        1.0  0.13895000000000002  0.7082600000000001  0.13388  1.0000
  O   O3        1.0  0.08877000000000003  0.10055000000000006  0.4262400000000001  1.0000
  O   O4        1.0  0.29584  0.13961  0.45259  1.0000
  O   O5        1.0  0.11845000000000003  0.7805400000000001  0.38433  1.0000
  O   O6        1.0  0.29149  0.8610100000000002  0.3661  1.0000
  O   O7        1.0  0.89914  0.91134  0.07357  1.0000
  O   O8        1.0  0.86061  0.7045  0.04774  1.0000
  O   O9        1.0  0.7813500000000002  0.11841000000000014  0.8843800000000003  1.0000
  O   O10       1.0  0.8610400000000002  0.2917400000000001  0.86612  1.0000
  O   O11       1.0  0.9112200000000001  0.8994500000000001  0.5737600000000002  1.0000
  O   O12       1.0  0.70415  0.8604  0.54741  1.0000
  O   O13       1.0  0.8815400000000001  0.21946000000000013  0.6156700000000003  1.0000
  O   O14       1.0  0.7085000000000001  0.13899  0.6339  1.0000
  O   O15       1.0  0.10084999999999993  0.08866000000000003  0.92642  1.0000
  O   O16       1.0  0.13938000000000014  0.2955100000000001  0.9522600000000002  1.0000
  O   O17       1.0  0.054360000000000026  0.9453800000000003  0.24983000000000002  1.0000
  O   O18       1.0  0.9456299999999999  0.054620000000000106  0.7501700000000002  1.0000
