data_image0
_chemical_formula_structural       Mn6H24C48O24
_chemical_formula_sum              "Mn6 H24 C48 O24"
_cell_length_a       11.51778
_cell_length_b       13.501160000000002
_cell_length_c       14.28966
_cell_angle_alpha    76.06684
_cell_angle_beta     66.46161
_cell_angle_gamma    64.94018

_symmetry_space_group_name_H-M    'P 1'
_symmetry_Int_Tables_number       1

loop_
  _symmetry_equiv_pos_as_xyz
  'x,y,z'

loop_
  _atom_site_type_symbol
  _atom_site_label
  _atom_site_symmetry_multiplicity
  _atom_site_fract_x
  _atom_site_fract_y
  _atom_site_fract_z
  _atom_site_occupancy
  Mn  Mn1       1.0  0.8793999999999998  0.03452999999999999  0.12388  1.0000
  Mn  Mn2       1.0  0.5382299999999999  0.46601  0.37578  1.0000
  Mn  Mn3       1.0  0.12059999999999993  0.9654699999999999  0.8761300000000002  1.0000
  Mn  Mn4       1.0  0.46176999999999996  0.53399  0.6242200000000002  1.0000
  Mn  Mn5       1.0  0.8004699999999998  0.25036  0.2505  1.0000
  Mn  Mn6       1.0  0.19953  0.74964  0.7495  1.0000
  H   H1        1.0  0.21222000000000005  0.16324999999999995  0.85242  1.0000
  H   H2        1.0  0.30222  0.30962000000000006  0.75207  1.0000
  H   H3        1.0  0.9294300000000001  0.5565999999999998  0.91045  1.0000
  H   H4        1.0  0.8393499999999999  0.41002999999999995  0.015420000000000003  1.0000
  H   H5        1.0  0.52826  0.18026  0.4550900000000001  1.0000
  H   H6        1.0  0.61733  0.86588  0.36795  1.0000
  H   H7        1.0  0.7283499999999999  0.33594  0.6501000000000002  1.0000
  H   H8        1.0  0.8650299999999997  0.18860999999999997  0.74935  1.0000
  H   H9        1.0  0.8975799999999999  0.94402  0.5864000000000001  1.0000
  H   H10       1.0  0.7648399999999997  0.09167  0.48287  1.0000
  H   H11       1.0  0.66423  0.32047  0.04436  1.0000
  H   H12       1.0  0.3499299999999999  0.6324599999999999  0.13328000000000004  1.0000
  H   H13       1.0  0.7877800000000001  0.83676  0.14758  1.0000
  H   H14       1.0  0.6977799999999998  0.69038  0.24793  1.0000
  H   H15       1.0  0.07057  0.4434  0.08956  1.0000
  H   H16       1.0  0.16064999999999982  0.58997  0.9845900000000002  1.0000
  H   H17       1.0  0.47174  0.81974  0.54492  1.0000
  H   H18       1.0  0.38267000000000007  0.13411999999999993  0.63206  1.0000
  H   H19       1.0  0.27165000000000006  0.6640599999999999  0.3499  1.0000
  H   H20       1.0  0.13496999999999998  0.81139  0.25066  1.0000
  H   H21       1.0  0.10242000000000001  0.055980000000000016  0.41361  1.0000
  H   H22       1.0  0.23515000000000014  0.9083299999999999  0.51713  1.0000
  H   H23       1.0  0.33575999999999995  0.6795299999999999  0.9556400000000002  1.0000
  H   H24       1.0  0.65007  0.36754  0.8667200000000002  1.0000
  C   C1        1.0  0.97132  0.18987  0.00231  1.0000
  C   C2        1.0  0.020550000000000027  0.27785  0.94094  1.0000
  C   C3        1.0  0.15073999999999987  0.24891999999999997  0.8656400000000001  1.0000
  C   C4        1.0  0.20070999999999986  0.33015  0.8090600000000002  1.0000
  C   C5        1.0  0.12163999999999994  0.4411499999999999  0.8255500000000002  1.0000
  C   C6        1.0  0.99005  0.47037999999999996  0.8988000000000003  1.0000
  C   C7        1.0  0.9399799999999998  0.38894  0.9570800000000003  1.0000
  C   C8        1.0  0.18481999999999998  0.52415  0.76639  1.0000
  C   C9        1.0  0.67097  0.05201999999999999  0.29832000000000003  1.0000
  C   C10       1.0  0.58057  0.025900000000000003  0.40146  1.0000
  C   C11       1.0  0.5147099999999999  0.10191999999999997  0.4757300000000001  1.0000
  C   C12       1.0  0.56525  0.92392  0.42619000000000007  1.0000
  C   C13       1.0  0.66407  0.31206999999999996  0.4988400000000001  1.0000
  C   C14       1.0  0.73984  0.22277  0.55943  1.0000
  C   C15       1.0  0.7661199999999998  0.25051  0.6357  1.0000
  C   C16       1.0  0.8410899999999999  0.16863  0.69166  1.0000
  C   C17       1.0  0.8895699999999999  0.05795999999999999  0.6736600000000003  1.0000
  C   C18       1.0  0.8601699999999998  0.02995000000000001  0.59936  1.0000
  C   C19       1.0  0.78642  0.11206  0.54177  1.0000
  C   C20       1.0  0.9764800000000001  0.97393  0.7324800000000001  1.0000
  C   C21       1.0  0.5213899999999999  0.44762  0.20191000000000003  1.0000
  C   C22       1.0  0.50796  0.47368999999999994  0.09865000000000003  1.0000
  C   C23       1.0  0.5927799999999994  0.39851  0.02388  1.0000
  C   C24       1.0  0.41477  0.57522  0.07445  1.0000
  C   C25       1.0  0.028670000000000063  0.8101299999999998  0.9977000000000001  1.0000
  C   C26       1.0  0.97945  0.72215  0.05907000000000001  1.0000
  C   C27       1.0  0.8492499999999997  0.75108  0.13436000000000003  1.0000
  C   C28       1.0  0.79929  0.66985  0.19094  1.0000
  C   C29       1.0  0.8783599999999998  0.55885  0.17445000000000005  1.0000
  C   C30       1.0  0.009949999999999947  0.52962  0.10120000000000001  1.0000
  C   C31       1.0  0.06002  0.61106  0.04293  1.0000
  C   C32       1.0  0.8151799999999997  0.47585  0.23361  1.0000
  C   C33       1.0  0.3290299999999998  0.94798  0.7016800000000002  1.0000
  C   C34       1.0  0.4194300000000001  0.9741  0.5985400000000001  1.0000
  C   C35       1.0  0.4852899999999999  0.89808  0.52427  1.0000
  C   C36       1.0  0.43474  0.07608  0.57381  1.0000
  C   C37       1.0  0.33593000000000006  0.68793  0.50117  1.0000
  C   C38       1.0  0.2601599999999998  0.77723  0.44058000000000014  1.0000
  C   C39       1.0  0.23387999999999998  0.7494999999999999  0.36430000000000007  1.0000
  C   C40       1.0  0.15889999999999993  0.83137  0.30835000000000007  1.0000
  C   C41       1.0  0.11043000000000001  0.94204  0.32634  1.0000
  C   C42       1.0  0.1398300000000001  0.9700499999999999  0.40064000000000005  1.0000
  C   C43       1.0  0.21357999999999983  0.88794  0.45823  1.0000
  C   C44       1.0  0.023519999999999992  0.02607  0.26753  1.0000
  C   C45       1.0  0.4785999999999997  0.5523799999999999  0.7981000000000003  1.0000
  C   C46       1.0  0.49203  0.5263099999999998  0.9013500000000002  1.0000
  C   C47       1.0  0.40721  0.60149  0.97613  1.0000
  C   C48       1.0  0.5852200000000001  0.4247799999999999  0.9255600000000002  1.0000
  O   O1        1.0  0.032729999999999926  0.09102999999999996  0.9756900000000002  1.0000
  O   O2        1.0  0.86558  0.20865  0.08428  1.0000
  O   O3        1.0  0.1218000000000001  0.6239999999999999  0.78699  1.0000
  O   O4        1.0  0.30280999999999997  0.48560999999999993  0.6986900000000001  1.0000
  O   O5        1.0  0.7045099999999999  0.13474  0.2832700000000001  1.0000
  O   O6        1.0  0.71794  0.9889899999999999  0.2266  1.0000
  O   O7        1.0  0.60238  0.41021  0.52674  1.0000
  O   O8        1.0  0.6573  0.29497  0.41644  1.0000
  O   O9        1.0  0.0343799999999999  0.87472  0.7100800000000003  1.0000
  O   O10       1.0  0.98794  0.010690000000000005  0.80193  1.0000
  O   O11       1.0  0.6221199999999999  0.36522  0.21749000000000004  1.0000
  O   O12       1.0  0.43393999999999994  0.51075  0.27324  1.0000
  O   O13       1.0  0.9672599999999999  0.90897  0.02432000000000001  1.0000
  O   O14       1.0  0.1344200000000001  0.79135  0.91572  1.0000
  O   O15       1.0  0.8781999999999999  0.376  0.21302000000000004  1.0000
  O   O16       1.0  0.69718  0.51439  0.30132  1.0000
  O   O17       1.0  0.29548  0.86526  0.7167400000000002  1.0000
  O   O18       1.0  0.28205  0.011010000000000006  0.7734  1.0000
  O   O19       1.0  0.3976199999999999  0.58979  0.4732600000000001  1.0000
  O   O20       1.0  0.34269999999999995  0.70503  0.58356  1.0000
  O   O21       1.0  0.9656099999999997  0.12528  0.28993  1.0000
  O   O22       1.0  0.012059999999999993  0.98931  0.19807  1.0000
  O   O23       1.0  0.37787999999999994  0.6347799999999999  0.7825100000000003  1.0000
  O   O24       1.0  0.5660599999999999  0.48925  0.72676  1.0000
