data_image0
_chemical_formula_structural       Ce2H36C30S6N24O12
_chemical_formula_sum              "Ce2 H36 C30 S6 N24 O12"
_cell_length_a       8.47129
_cell_length_b       11.77155
_cell_length_c       14.43721
_cell_angle_alpha    67.14585
_cell_angle_beta     80.24635
_cell_angle_gamma    78.53979

_space_group_name_H-M_alt    "P 1"
_space_group_IT_number       1

loop_
  _space_group_symop_operation_xyz
  'x, y, z'

loop_
  _atom_site_type_symbol
  _atom_site_label
  _atom_site_symmetry_multiplicity
  _atom_site_fract_x
  _atom_site_fract_y
  _atom_site_fract_z
  _atom_site_occupancy
  Ce  Ce1       1.0  0.76584  0.97446  0.01173  1.0000
  Ce  Ce2       1.0  0.24016  0.02763999999999983  0.9841600000000003  1.0000
  H   H1        1.0  0.84112  0.38681  0.83697  1.0000
  H   H2        1.0  0.9760000000000001  0.38311999999999985  0.7264300000000001  1.0000
  H   H3        1.0  0.39256  0.38948000000000005  0.8752  1.0000
  H   H4        1.0  0.33566  0.51699  0.7742900000000003  1.0000
  H   H5        1.0  0.83717  0.96058  0.55649  1.0000
  H   H6        1.0  0.8575700000000002  0.09479999999999998  0.44689  1.0000
  H   H7        1.0  0.24157000000000006  0.19307999999999995  0.44999  1.0000
  H   H8        1.0  0.31252  0.28353  0.3286  1.0000
  H   H9        1.0  0.8303299999999999  0.09186  0.30519  1.0000
  H   H10       1.0  0.77808  0.23589  0.20324  1.0000
  H   H11       1.0  0.16212  0.5055  0.43107000000000006  1.0000
  H   H12       1.0  0.11755999999999997  0.37859000000000004  0.54059  1.0000
  H   H13       1.0  0.5972  0.21525  0.55572  1.0000
  H   H14       1.0  0.59316  0.07806999999999993  0.6542300000000001  1.0000
  H   H15       1.0  0.4422099999999999  0.8700200000000001  0.80292  1.0000
  H   H16       1.0  0.6513899999999997  0.8839  0.76233  1.0000
  H   H17       1.0  0.04400999999999999  0.49688  0.89223  1.0000
  H   H18       1.0  0.11733  0.38004  0.00216  1.0000
  H   H19       1.0  0.16185000000000002  0.61338  0.16279000000000002  1.0000
  H   H20       1.0  0.02426000000000005  0.61929  0.27141  1.0000
  H   H21       1.0  0.6084799999999999  0.6104400000000001  0.12459  1.0000
  H   H22       1.0  0.6656299999999999  0.48264  0.22520000000000007  1.0000
  H   H23       1.0  0.16213  0.04103000000000001  0.4426  1.0000
  H   H24       1.0  0.14176999999999995  0.90665  0.55205  1.0000
  H   H25       1.0  0.75977  0.80908  0.54943  1.0000
  H   H26       1.0  0.68895  0.71801  0.67071  1.0000
  H   H27       1.0  0.17489999999999994  0.90835  0.69207  1.0000
  H   H28       1.0  0.22727999999999998  0.7644699999999999  0.7941100000000002  1.0000
  H   H29       1.0  0.8386900000000003  0.49581000000000003  0.56854  1.0000
  H   H30       1.0  0.8825399999999999  0.62281  0.45885  1.0000
  H   H31       1.0  0.40243999999999985  0.7843100000000001  0.44426000000000004  1.0000
  H   H32       1.0  0.40662999999999994  0.92265  0.34716  1.0000
  H   H33       1.0  0.5607499999999999  0.12932000000000005  0.19398  1.0000
  H   H34       1.0  0.35118  0.11546000000000001  0.23335  1.0000
  H   H35       1.0  0.9580599999999999  0.50413  0.10672  1.0000
  H   H36       1.0  0.8846999999999997  0.6212499999999999  0.9968900000000003  1.0000
  C   C1        1.0  0.92758  0.08950999999999999  0.15898  1.0000
  C   C2        1.0  0.86205  0.20574999999999996  0.68109  1.0000
  C   C3        1.0  0.009990000000000023  0.22398999999999997  0.86202  1.0000
  C   C4        1.0  0.9014400000000001  0.32928  0.79272  1.0000
  C   C5        1.0  0.91615  0.031800000000000016  0.51464  1.0000
  C   C6        1.0  0.9747  0.3056900000000001  0.32062  1.0000
  C   C7        1.0  0.87454  0.15862000000000004  0.23237  1.0000
  C   C8        1.0  0.9278999999999997  0.10165000000000002  0.57891  1.0000
  C   C9        1.0  0.9866800000000001  0.4088900000000001  0.41802  1.0000
  C   C10       1.0  0.06131000000000001  0.45743  0.47881000000000007  1.0000
  C   C11       1.0  0.5658000000000001  0.8357599999999998  0.82493  1.0000
  C   C12       1.0  0.5809500000000003  0.8710599999999998  0.9129700000000002  1.0000
  C   C13       1.0  0.4333000000000001  0.6301699999999999  0.9103600000000001  1.0000
  C   C14       1.0  0.20625999999999994  0.55185  0.95798  1.0000
  C   C15       1.0  0.07511000000000002  0.4806999999999999  0.9678000000000001  1.0000
  C   C16       1.0  0.07946999999999993  0.91088  0.83848  1.0000
  C   C17       1.0  0.13871000000000006  0.79484  0.31842  1.0000
  C   C18       1.0  0.99619  0.7783899999999999  0.13511  1.0000
  C   C19       1.0  0.10112999999999996  0.6720200000000001  0.20596  1.0000
  C   C20       1.0  0.08325  0.9697  0.48428  1.0000
  C   C21       1.0  0.027459999999999977  0.69551  0.67832  1.0000
  C   C22       1.0  0.13079  0.8418399999999998  0.7651100000000002  1.0000
  C   C23       1.0  0.07186999999999995  0.89985  0.4199200000000001  1.0000
  C   C24       1.0  0.014240000000000023  0.59264  0.58099  1.0000
  C   C25       1.0  0.93915  0.54404  0.52049  1.0000
  C   C26       1.0  0.43742  0.16468000000000002  0.17187  1.0000
  C   C27       1.0  0.42282000000000003  0.13231  0.08251  1.0000
  C   C28       1.0  0.56954  0.36996999999999997  0.08862  1.0000
  C   C29       1.0  0.79583  0.44932  0.04084  1.0000
  C   C30       1.0  0.9268599999999999  0.52056  0.031120000000000005  1.0000
  S   S1        1.0  0.05013999999999997  0.21713  0.24514000000000005  1.0000
  S   S2        1.0  0.61842  0.67132  0.8446  1.0000
  S   S3        1.0  0.7390399999999999  0.28119999999999995  0.75612  1.0000
  S   S4        1.0  0.9534999999999999  0.78407  0.7538300000000001  1.0000
  S   S5        1.0  0.3847  0.32832  0.15444000000000005  1.0000
  S   S6        1.0  0.26274000000000003  0.7178699999999998  0.24488000000000004  1.0000
  N   N1        1.0  0.35036000000000017  0.54844  0.8975  1.0000
  N   N2        1.0  0.20288999999999996  0.63016  0.00403  1.0000
  N   N3        1.0  0.07902999999999996  0.32917999999999986  0.37381  1.0000
  N   N4        1.0  0.02182999999999999  0.18832000000000002  0.66525  1.0000
  N   N5        1.0  0.34757999999999983  0.6793  0.9748500000000001  1.0000
  N   N6        1.0  0.7965199999999999  0.15338999999999994  0.6284800000000003  1.0000
  N   N7        1.0  0.40632999999999997  0.48074000000000006  0.8339  1.0000
  N   N8        1.0  0.23908  0.27934000000000003  0.39365  1.0000
  N   N9        1.0  0.06277000000000003  0.12223999999999997  0.59988  1.0000
  N   N10       1.0  0.83605  0.43189999999999995  0.3953  1.0000
  N   N11       1.0  0.82875  0.36824000000000007  0.33163  1.0000
  N   N12       1.0  0.6297  0.16362999999999997  0.6267900000000001  1.0000
  N   N13       1.0  0.65179  0.45196  0.10156  1.0000
  N   N14       1.0  0.7996099999999999  0.37120999999999993  0.99454  1.0000
  N   N15       1.0  0.9225399999999999  0.67257  0.62519  1.0000
  N   N16       1.0  0.9788499999999999  0.81272  0.3335200000000001  1.0000
  N   N17       1.0  0.65548  0.32132  0.02388  1.0000
  N   N18       1.0  0.20365  0.84757  0.371  1.0000
  N   N19       1.0  0.59502  0.51907  0.16554  1.0000
  N   N20       1.0  0.7625300000000002  0.7227399999999999  0.60561  1.0000
  N   N21       1.0  0.9372900000000001  0.8794499999999998  0.39845  1.0000
  N   N22       1.0  0.16498000000000004  0.5691199999999998  0.60359  1.0000
  N   N23       1.0  0.1730800000000001  0.6326099999999999  0.66721  1.0000
  N   N24       1.0  0.37038999999999994  0.83709  0.37325  1.0000
  O   O1        1.0  0.81642  0.045919999999999996  0.14038  1.0000
  O   O2        1.0  0.95103  0.12842999999999985  0.9292200000000002  1.0000
  O   O3        1.0  0.15818000000000002  0.2325699999999999  0.8561400000000002  1.0000
  O   O4        1.0  0.07615  0.08019999999999998  0.12456  1.0000
  O   O5        1.0  0.6527100000000001  0.7991100000000002  0.98825  1.0000
  O   O6        1.0  0.5235800000000002  0.9862699999999996  0.9018500000000003  1.0000
  O   O7        1.0  0.19112000000000004  0.9543399999999999  0.8566500000000002  1.0000
  O   O8        1.0  0.05721000000000002  0.87357  0.06938  1.0000
  O   O9        1.0  0.84796  0.77082  0.13901  1.0000
  O   O10       1.0  0.9313000000000001  0.9201099999999999  0.87366  1.0000
  O   O11       1.0  0.34847  0.20499  0.00863  1.0000
  O   O12       1.0  0.48277999999999993  0.018049999999999993  0.09143000000000001  1.0000
