data_image0
_chemical_formula_structural       Eu4H48C68O16
_chemical_formula_sum              "Eu4 H48 C68 O16"
_cell_length_a       8.9588
_cell_length_b       9.53118
_cell_length_c       27.75545
_cell_angle_alpha    89.98719000000001
_cell_angle_beta     89.85318
_cell_angle_gamma    90.37242000000002

_space_group_name_H-M_alt    "P 1"
_space_group_IT_number       1

loop_
  _space_group_symop_operation_xyz
  'x, y, z'

loop_
  _atom_site_type_symbol
  _atom_site_label
  _atom_site_symmetry_multiplicity
  _atom_site_fract_x
  _atom_site_fract_y
  _atom_site_fract_z
  _atom_site_occupancy
  Eu  Eu1       1.0  0.00993  0.7533  0.99898  1.0000
  Eu  Eu2       1.0  0.47698  0.75033  0.50057  1.0000
  Eu  Eu3       1.0  0.98302  0.24715000000000004  0.99881  1.0000
  Eu  Eu4       1.0  0.52208  0.24766000000000002  0.49892  1.0000
  H   H1        1.0  0.1811  0.6906  0.14734  1.0000
  H   H2        1.0  0.16637  0.24835  0.11627000000000003  1.0000
  H   H3        1.0  0.22105999999999998  0.19175  0.20202000000000003  1.0000
  H   H4        1.0  0.08484  0.81038  0.22906  1.0000
  H   H5        1.0  0.1355  0.81512  0.29095  1.0000
  H   H6        1.0  0.015390000000000001  0.68065  0.26932  1.0000
  H   H7        1.0  0.17838  0.81016  0.85021  1.0000
  H   H8        1.0  0.16302  0.25391  0.8817  1.0000
  H   H9        1.0  0.21793  0.31227  0.79666  1.0000
  H   H10       1.0  0.08394  0.68947  0.76948  1.0000
  H   H11       1.0  0.13539999999999996  0.68544  0.7074900000000002  1.0000
  H   H12       1.0  0.015529999999999999  0.81885  0.72925  1.0000
  H   H13       1.0  0.32003  0.81154  0.64794  1.0000
  H   H14       1.0  0.3387  0.25531  0.61664  1.0000
  H   H15       1.0  0.28273  0.31317  0.70174  1.0000
  H   H16       1.0  0.4154199999999999  0.69124  0.72871  1.0000
  H   H17       1.0  0.36411  0.6866  0.79072  1.0000
  H   H18       1.0  0.48429999999999995  0.82126  0.7689000000000002  1.0000
  H   H19       1.0  0.31813  0.6869  0.3519  1.0000
  H   H20       1.0  0.33212  0.24368  0.38073  1.0000
  H   H21       1.0  0.27953  0.19012  0.29455  1.0000
  H   H22       1.0  0.41621  0.81155  0.27027  1.0000
  H   H23       1.0  0.36582  0.81684  0.20834  1.0000
  H   H24       1.0  0.48547999999999997  0.68314  0.22982  1.0000
  H   H25       1.0  0.81428  0.31016  0.8519900000000002  1.0000
  H   H26       1.0  0.83049  0.75274  0.8826200000000002  1.0000
  H   H27       1.0  0.78208  0.80889  0.79635  1.0000
  H   H28       1.0  0.9158499999999999  0.18862  0.77042  1.0000
  H   H29       1.0  0.86513  0.1844  0.7085000000000001  1.0000
  H   H30       1.0  0.9858199999999999  0.31839  0.73019  1.0000
  H   H31       1.0  0.81474  0.1927  0.14797000000000005  1.0000
  H   H32       1.0  0.83581  0.74924  0.1163  1.0000
  H   H33       1.0  0.78472  0.69021  0.20166  1.0000
  H   H34       1.0  0.91584  0.31253  0.22969  1.0000
  H   H35       1.0  0.86442  0.31491  0.29172  1.0000
  H   H36       1.0  0.9843699999999999  0.18214  0.26957  1.0000
  H   H37       1.0  0.68077  0.18685  0.3515  1.0000
  H   H38       1.0  0.66431  0.74172  0.38091  1.0000
  H   H39       1.0  0.71975  0.68743  0.29540000000000005  1.0000
  H   H40       1.0  0.58517  0.31013  0.27105  1.0000
  H   H41       1.0  0.63512  0.31609  0.20894  1.0000
  H   H42       1.0  0.51507  0.18121  0.23061  1.0000
  H   H43       1.0  0.68416  0.30862  0.64819  1.0000
  H   H44       1.0  0.66553  0.75019  0.61732  1.0000
  H   H45       1.0  0.72093  0.80852  0.7030400000000001  1.0000
  H   H46       1.0  0.58439  0.18897  0.72912  1.0000
  H   H47       1.0  0.63461  0.18351  0.79107  1.0000
  H   H48       1.0  0.51573  0.31781  0.76953  1.0000
  C   C1        1.0  0.13497  0.5048  0.07587000000000002  1.0000
  C   C2        1.0  0.17045  0.47215  0.12687  1.0000
  C   C3        1.0  0.19021  0.58309  0.16004  1.0000
  C   C4        1.0  0.18239  0.33194  0.14243  1.0000
  C   C5        1.0  0.21326  0.30049  0.19037  1.0000
  C   C6        1.0  0.23322  0.41113  0.22316000000000003  1.0000
  C   C7        1.0  0.2214  0.55227  0.20776000000000003  1.0000
  C   C8        1.0  0.11331  0.74526  0.26029  1.0000
  C   C9        1.0  0.13727  0.99439  0.92172  1.0000
  C   C10       1.0  0.16846  0.02855  0.8715  1.0000
  C   C11       1.0  0.18811  0.91777  0.83752  1.0000
  C   C12       1.0  0.17995  0.17067  0.8554800000000001  1.0000
  C   C13       1.0  0.21076  0.20316  0.80802  1.0000
  C   C14       1.0  0.23267  0.09238  0.7741500000000002  1.0000
  C   C15       1.0  0.21989  0.9491899999999999  0.7904  1.0000
  C   C16       1.0  0.11293999999999998  0.75482  0.73822  1.0000
  C   C17       1.0  0.35846  0.9971299999999998  0.5763  1.0000
  C   C18       1.0  0.33087999999999995  0.03057  0.62674  1.0000
  C   C19       1.0  0.31097  0.91905  0.66061  1.0000
  C   C20       1.0  0.32128999999999996  0.17223  0.64299  1.0000
  C   C21       1.0  0.29006  0.20413  0.69042  1.0000
  C   C22       1.0  0.26737999999999995  0.09275  0.72415  1.0000
  C   C23       1.0  0.27989  0.9498200000000001  0.70779  1.0000
  C   C24       1.0  0.38669  0.75626  0.75997  1.0000
  C   C25       1.0  0.3576499999999999  0.49879999999999997  0.4227600000000001  1.0000
  C   C26       1.0  0.32635  0.46789  0.37131  1.0000
  C   C27       1.0  0.30858  0.57997  0.33858  1.0000
  C   C28       1.0  0.31629  0.32817  0.35496  1.0000
  C   C29       1.0  0.28652  0.29838  0.30679  1.0000
  C   C30       1.0  0.26679  0.41021  0.27453  1.0000
  C   C31       1.0  0.27862  0.55079  0.29063  1.0000
  C   C32       1.0  0.38772  0.74671  0.23889  1.0000
  C   C33       1.0  0.85218  0.49628999999999995  0.92384  1.0000
  C   C34       1.0  0.8241  0.52894  0.87237  1.0000
  C   C35       1.0  0.8068399999999998  0.41773  0.8392  1.0000
  C   C36       1.0  0.81538  0.66905  0.8564200000000001  1.0000
  C   C37       1.0  0.78791  0.70017  0.80823  1.0000
  C   C38       1.0  0.7685399999999999  0.58921  0.7755500000000001  1.0000
  C   C39       1.0  0.7792  0.44824  0.7913  1.0000
  C   C40       1.0  0.88773  0.25398  0.7392100000000003  1.0000
  C   C41       1.0  0.85981  0.00911  0.0765  1.0000
  C   C42       1.0  0.82869  0.97432  0.12672  1.0000
  C   C43       1.0  0.8078299999999999  0.08494  0.16072  1.0000
  C   C44       1.0  0.81929  0.83214  0.14266  1.0000
  C   C45       1.0  0.79009  0.79933  0.19024  1.0000
  C   C46       1.0  0.76821  0.90982  0.22408  1.0000
  C   C47       1.0  0.77879  0.053099999999999994  0.20802  1.0000
  C   C48       1.0  0.88696  0.24636000000000002  0.26076  1.0000
  C   C49       1.0  0.63977  0.9985299999999999  0.42231  1.0000
  C   C50       1.0  0.67033  0.96731  0.37177  1.0000
  C   C51       1.0  0.68996  0.0798  0.33832  1.0000
  C   C52       1.0  0.6812499999999999  0.82607  0.35505  1.0000
  C   C53       1.0  0.71265  0.79591  0.30741  1.0000
  C   C54       1.0  0.73451  0.9083899999999999  0.27422  1.0000
  C   C55       1.0  0.72112  0.05067  0.29094  1.0000
  C   C56       1.0  0.61304  0.24572  0.23953  1.0000
  C   C57       1.0  0.6416499999999999  0.49488  0.57668  1.0000
  C   C58       1.0  0.6734  0.52712  0.62788  1.0000
  C   C59       1.0  0.6929099999999999  0.41638  0.66091  1.0000
  C   C60       1.0  0.6829499999999997  0.66747  0.64361  1.0000
  C   C61       1.0  0.71414  0.69951  0.69149  1.0000
  C   C62       1.0  0.73517  0.58896  0.72416  1.0000
  C   C63       1.0  0.7232  0.44775000000000004  0.70858  1.0000
  C   C64       1.0  0.61312  0.25367  0.76051  1.0000
  C   C65       1.0  0.25032  0.65321  0.24944000000000005  1.0000
  C   C66       1.0  0.2499  0.8480399999999999  0.74908  1.0000
  C   C67       1.0  0.7510199999999999  0.34647  0.74996  1.0000
  C   C68       1.0  0.74984  0.15339  0.24976000000000007  1.0000
  O   O1        1.0  0.11958999999999999  0.63367  0.0641  1.0000
  O   O2        1.0  0.11927  0.40423  0.04543000000000001  1.0000
  O   O3        1.0  0.12665  0.86381  0.93397  1.0000
  O   O4        1.0  0.12003999999999998  0.09426  0.9529700000000001  1.0000
  O   O5        1.0  0.35779  0.8667599999999999  0.56363  1.0000
  O   O6        1.0  0.3843699999999999  0.09621  0.54523  1.0000
  O   O7        1.0  0.3638  0.62722  0.43604  1.0000
  O   O8        1.0  0.37813  0.39682  0.45229  1.0000
  O   O9        1.0  0.8614699999999997  0.36703  0.93593  1.0000
  O   O10       1.0  0.8667199999999999  0.59672  0.95443  1.0000
  O   O11       1.0  0.86646  0.13971  0.06424  1.0000
  O   O12       1.0  0.88125  0.9105400000000001  0.04503000000000001  1.0000
  O   O13       1.0  0.63757  0.12827  0.43584  1.0000
  O   O14       1.0  0.61518  0.89725  0.45254  1.0000
  O   O15       1.0  0.64139  0.36633  0.56347  1.0000
  O   O16       1.0  0.61444  0.59614  0.54741  1.0000
