data_image0
_chemical_formula_structural       Ba4Li8H16C40N16O32
_chemical_formula_sum              "Ba4 Li8 H16 C40 N16 O32"
_cell_length_a       10.36114
_cell_length_b       15.23971
_cell_length_c       15.23971
_cell_angle_alpha    90.0
_cell_angle_beta     90.0
_cell_angle_gamma    90.0

_space_group_name_H-M_alt    "P 1"
_space_group_IT_number       1

loop_
  _space_group_symop_operation_xyz
  'x, y, z'

loop_
  _atom_site_type_symbol
  _atom_site_label
  _atom_site_symmetry_multiplicity
  _atom_site_fract_x
  _atom_site_fract_y
  _atom_site_fract_z
  _atom_site_occupancy
  Ba  Ba1       1.0  0.60689  0.5  0.0  1.0000
  Ba  Ba2       1.0  0.39311  0.0  0.5  1.0000
  Ba  Ba3       1.0  0.8955099999999999  0.0  0.5  1.0000
  Ba  Ba4       1.0  0.10449  0.5  0.0  1.0000
  Li  Li1       1.0  0.35553  0.4478600000000001  0.16195  1.0000
  Li  Li2       1.0  0.35553  0.55213  0.83805  1.0000
  Li  Li3       1.0  0.64447  0.16195  0.55213  1.0000
  Li  Li4       1.0  0.64447  0.83805  0.4478600000000001  1.0000
  Li  Li5       1.0  0.14472  0.05323000000000001  0.66517  1.0000
  Li  Li6       1.0  0.14472  0.94677  0.3348200000000001  1.0000
  Li  Li7       1.0  0.85529  0.3348200000000001  0.05323000000000001  1.0000
  Li  Li8       1.0  0.85529  0.66517  0.94677  1.0000
  H   H1        1.0  0.4371  0.19701000000000005  0.36655  1.0000
  H   H2        1.0  0.7635099999999999  0.19403  0.19797000000000006  1.0000
  H   H3        1.0  0.4371  0.8029900000000002  0.63345  1.0000
  H   H4        1.0  0.7635099999999999  0.80597  0.8020300000000002  1.0000
  H   H5        1.0  0.5628999999999998  0.36655  0.8029900000000002  1.0000
  H   H6        1.0  0.23649  0.19797000000000006  0.80597  1.0000
  H   H7        1.0  0.5628999999999998  0.63345  0.19701000000000005  1.0000
  H   H8        1.0  0.23649  0.8020300000000002  0.19403  1.0000
  H   H9        1.0  0.06257  0.30311  0.8676100000000002  1.0000
  H   H10       1.0  0.7355399999999999  0.3064600000000001  0.69922  1.0000
  H   H11       1.0  0.06257  0.69689  0.13239  1.0000
  H   H12       1.0  0.7355399999999999  0.6935400000000003  0.30078  1.0000
  H   H13       1.0  0.93743  0.13239  0.30311  1.0000
  H   H14       1.0  0.26446  0.30078  0.3064600000000001  1.0000
  H   H15       1.0  0.93743  0.8676100000000002  0.69689  1.0000
  H   H16       1.0  0.26446  0.69922  0.6935400000000003  1.0000
  C   C1        1.0  0.58653  0.3327600000000001  0.12896  1.0000
  C   C2        1.0  0.5802099999999999  0.27122  0.20353000000000004  1.0000
  C   C3        1.0  0.67181  0.20785000000000006  0.22878  1.0000
  C   C4        1.0  0.62308  0.17119000000000006  0.3054100000000001  1.0000
  C   C5        1.0  0.68339  0.10906000000000003  0.36756  1.0000
  C   C6        1.0  0.58653  0.6672400000000003  0.87104  1.0000
  C   C7        1.0  0.5802099999999999  0.7287800000000002  0.7964700000000002  1.0000
  C   C8        1.0  0.67181  0.79215  0.7712200000000002  1.0000
  C   C9        1.0  0.62308  0.8288  0.6945900000000003  1.0000
  C   C10       1.0  0.68339  0.89094  0.63244  1.0000
  C   C11       1.0  0.41347  0.12896  0.6672400000000003  1.0000
  C   C12       1.0  0.41979  0.20353000000000004  0.7287800000000002  1.0000
  C   C13       1.0  0.3281899999999999  0.22878  0.79215  1.0000
  C   C14       1.0  0.37692  0.3054100000000001  0.8288  1.0000
  C   C15       1.0  0.31662  0.36756  0.89094  1.0000
  C   C16       1.0  0.41347  0.87104  0.3327600000000001  1.0000
  C   C17       1.0  0.41979  0.7964700000000002  0.27122  1.0000
  C   C18       1.0  0.3281899999999999  0.7712200000000002  0.20785000000000006  1.0000
  C   C19       1.0  0.37692  0.6945900000000003  0.17119000000000006  1.0000
  C   C20       1.0  0.31662  0.63244  0.10906000000000003  1.0000
  C   C21       1.0  0.91357  0.16688  0.63052  1.0000
  C   C22       1.0  0.91895  0.22915000000000005  0.7045000000000002  1.0000
  C   C23       1.0  0.8274499999999999  0.2925700000000001  0.72984  1.0000
  C   C24       1.0  0.8766699999999998  0.3288500000000001  0.8065400000000003  1.0000
  C   C25       1.0  0.81651  0.38984  0.86945  1.0000
  C   C26       1.0  0.91357  0.8331200000000002  0.36948  1.0000
  C   C27       1.0  0.91895  0.7708500000000003  0.2955  1.0000
  C   C28       1.0  0.8274499999999999  0.7074300000000002  0.27016  1.0000
  C   C29       1.0  0.8766699999999998  0.6711400000000002  0.19346000000000005  1.0000
  C   C30       1.0  0.81651  0.61016  0.13055  1.0000
  C   C31       1.0  0.08643  0.36948  0.16688  1.0000
  C   C32       1.0  0.08105  0.2955  0.22915000000000005  1.0000
  C   C33       1.0  0.17254999999999998  0.27016  0.2925700000000001  1.0000
  C   C34       1.0  0.12333  0.19346000000000005  0.3288500000000001  1.0000
  C   C35       1.0  0.1835  0.13055  0.38984  1.0000
  C   C36       1.0  0.08643  0.63052  0.8331200000000002  1.0000
  C   C37       1.0  0.08105  0.7045000000000002  0.7708500000000003  1.0000
  C   C38       1.0  0.17254999999999998  0.72984  0.7074300000000002  1.0000
  C   C39       1.0  0.12333  0.8065400000000003  0.6711400000000002  1.0000
  C   C40       1.0  0.1835  0.86945  0.61016  1.0000
  N   N1        1.0  0.50731  0.21295  0.32091  1.0000
  N   N2        1.0  0.47923  0.27338  0.26012  1.0000
  N   N3        1.0  0.50731  0.78705  0.67909  1.0000
  N   N4        1.0  0.47923  0.72662  0.7398800000000002  1.0000
  N   N5        1.0  0.49269  0.32091  0.78705  1.0000
  N   N6        1.0  0.5207699999999998  0.26012  0.72662  1.0000
  N   N7        1.0  0.49269  0.67909  0.21295  1.0000
  N   N8        1.0  0.5207699999999998  0.7398800000000002  0.27338  1.0000
  N   N9        1.0  0.99243  0.28729  0.82181  1.0000
  N   N10       1.0  0.020199999999999996  0.227  0.7609  1.0000
  N   N11       1.0  0.99243  0.71271  0.17818  1.0000
  N   N12       1.0  0.020199999999999996  0.773  0.23909  1.0000
  N   N13       1.0  0.007579999999999999  0.17818  0.28729  1.0000
  N   N14       1.0  0.9798  0.23909  0.227  1.0000
  N   N15       1.0  0.007579999999999999  0.82181  0.71271  1.0000
  N   N16       1.0  0.9798  0.7609  0.773  1.0000
  O   O1        1.0  0.4975  0.39011  0.11999  1.0000
  O   O2        1.0  0.6814499999999999  0.3287400000000001  0.07567  1.0000
  O   O3        1.0  0.62404  0.09381000000000003  0.44059  1.0000
  O   O4        1.0  0.79233  0.07602  0.34773  1.0000
  O   O5        1.0  0.4975  0.60989  0.8800000000000002  1.0000
  O   O6        1.0  0.6814499999999999  0.67126  0.9243300000000002  1.0000
  O   O7        1.0  0.62404  0.90619  0.55941  1.0000
  O   O8        1.0  0.79233  0.92398  0.65226  1.0000
  O   O9        1.0  0.5025  0.11999  0.60989  1.0000
  O   O10       1.0  0.31856  0.07567  0.67126  1.0000
  O   O11       1.0  0.37597  0.44059  0.90619  1.0000
  O   O12       1.0  0.20766999999999997  0.34773  0.92398  1.0000
  O   O13       1.0  0.5025  0.8800000000000002  0.39011  1.0000
  O   O14       1.0  0.31856  0.9243300000000002  0.3287400000000001  1.0000
  O   O15       1.0  0.37597  0.55941  0.09381000000000003  1.0000
  O   O16       1.0  0.20766999999999997  0.65226  0.07602  1.0000
  O   O17       1.0  0.00484  0.11124000000000003  0.62155  1.0000
  O   O18       1.0  0.8179399999999999  0.16887  0.57765  1.0000
  O   O19       1.0  0.8759  0.40448  0.9426500000000002  1.0000
  O   O20       1.0  0.7072  0.42232  0.8498700000000002  1.0000
  O   O21       1.0  0.00484  0.88876  0.3784400000000001  1.0000
  O   O22       1.0  0.8179399999999999  0.83113  0.4223500000000001  1.0000
  O   O23       1.0  0.8759  0.59551  0.05735  1.0000
  O   O24       1.0  0.7072  0.5776800000000001  0.15012  1.0000
  O   O25       1.0  0.9951599999999999  0.3784400000000001  0.11124000000000003  1.0000
  O   O26       1.0  0.18206  0.4223500000000001  0.16887  1.0000
  O   O27       1.0  0.12411  0.05735  0.40448  1.0000
  O   O28       1.0  0.2928  0.15012  0.42232  1.0000
  O   O29       1.0  0.9951599999999999  0.62155  0.88876  1.0000
  O   O30       1.0  0.18206  0.57765  0.83113  1.0000
  O   O31       1.0  0.12411  0.9426500000000002  0.59551  1.0000
  O   O32       1.0  0.2928  0.8498700000000002  0.5776800000000001  1.0000
