data_image0
_chemical_formula_structural       Ca4Zn4H32C64O32
_chemical_formula_sum              "Ca4 Zn4 H32 C64 O32"
_cell_length_a       10.40409
_cell_length_b       14.841120000000002
_cell_length_c       18.51252
_cell_angle_alpha    89.97298
_cell_angle_beta     89.96487
_cell_angle_gamma    103.25715

_symmetry_space_group_name_H-M    'P 1'
_symmetry_Int_Tables_number       1

loop_
  _symmetry_equiv_pos_as_xyz
  'x,y,z'

loop_
  _atom_site_type_symbol
  _atom_site_label
  _atom_site_symmetry_multiplicity
  _atom_site_fract_x
  _atom_site_fract_y
  _atom_site_fract_z
  _atom_site_occupancy
  Ca  Ca1       1.0  0.60733  0.8385700000000003  0.29958  1.0000
  Ca  Ca2       1.0  0.8930999999999999  0.66321  0.79743  1.0000
  Ca  Ca3       1.0  0.3926700000000001  0.16143  0.70042  1.0000
  Ca  Ca4       1.0  0.10689  0.33679  0.20257  1.0000
  Zn  Zn1       1.0  0.71046  0.05545  0.18766  1.0000
  Zn  Zn2       1.0  0.78975  0.44652  0.68886  1.0000
  Zn  Zn3       1.0  0.28953  0.94454  0.81234  1.0000
  Zn  Zn4       1.0  0.21024  0.55347  0.31114  1.0000
  H   H1        1.0  0.6086  0.00386  0.47591999999999995  1.0000
  H   H2        1.0  0.5894  0.09471  0.5865799999999999  1.0000
  H   H3        1.0  0.75348  0.34676  0.47078000000000003  1.0000
  H   H4        1.0  0.7635  0.25476  0.35869  1.0000
  H   H5        1.0  0.029130000000000024  0.81273  0.28087  1.0000
  H   H6        1.0  0.27023  0.82004  0.26667  1.0000
  H   H7        1.0  0.3035  0.04582  0.11683000000000002  1.0000
  H   H8        1.0  0.05943  0.03468  0.12852  1.0000
  H   H9        1.0  0.88986  0.49826  0.9784399999999999  1.0000
  H   H10       1.0  0.91172  0.40571  0.08792  1.0000
  H   H11       1.0  0.75051  0.15525  0.96976  1.0000
  H   H12       1.0  0.7387100000000002  0.24901000000000006  0.85885  1.0000
  H   H13       1.0  0.4718400000000001  0.6864800000000001  0.77974  1.0000
  H   H14       1.0  0.23035000000000003  0.67917  0.76664  1.0000
  H   H15       1.0  0.19575  0.45377  0.6164999999999999  1.0000
  H   H16       1.0  0.43995999999999996  0.4646700000000001  0.62731  1.0000
  H   H17       1.0  0.39139  0.99613  0.52408  1.0000
  H   H18       1.0  0.41059  0.90529  0.41342  1.0000
  H   H19       1.0  0.24651  0.65324  0.5292199999999999  1.0000
  H   H20       1.0  0.23649  0.74524  0.6413  1.0000
  H   H21       1.0  0.97086  0.18727  0.71913  1.0000
  H   H22       1.0  0.72976  0.17996  0.73333  1.0000
  H   H23       1.0  0.69649  0.95417  0.88317  1.0000
  H   H24       1.0  0.9405599999999998  0.96532  0.87147  1.0000
  H   H25       1.0  0.11012999999999999  0.50174  0.021559999999999996  1.0000
  H   H26       1.0  0.08827  0.59429  0.91208  1.0000
  H   H27       1.0  0.24948  0.84475  0.030239999999999996  1.0000
  H   H28       1.0  0.26128  0.75099  0.14115  1.0000
  H   H29       1.0  0.52815  0.31351  0.22026  1.0000
  H   H30       1.0  0.7696399999999999  0.32082  0.23336  1.0000
  H   H31       1.0  0.8042400000000001  0.54623  0.3835  1.0000
  H   H32       1.0  0.56003  0.53532  0.37268999999999997  1.0000
  C   C1        1.0  0.68278  0.12388  0.40992  1.0000
  C   C2        1.0  0.63733  0.07898  0.47489  1.0000
  C   C3        1.0  0.62743  0.13022  0.53687  1.0000
  C   C4        1.0  0.66761  0.22716  0.53524  1.0000
  C   C5        1.0  0.71993  0.27179  0.47122  1.0000
  C   C6        1.0  0.72583  0.22065  0.40879  1.0000
  C   C7        1.0  0.68089  0.06886  0.34217  1.0000
  C   C8        1.0  0.65763  0.28372  0.60123  1.0000
  C   C9        1.0  0.030379999999999997  0.92377  0.20572  1.0000
  C   C10       1.0  0.08943999999999998  0.86301  0.24474  1.0000
  C   C11       1.0  0.22417  0.86772  0.23719  1.0000
  C   C12       1.0  0.30182  0.93416  0.19151  1.0000
  C   C13       1.0  0.24251999999999996  0.99474  0.15214  1.0000
  C   C14       1.0  0.10758999999999999  0.98891  0.15877999999999998  1.0000
  C   C15       1.0  0.88669  0.92198  0.21502  1.0000
  C   C16       1.0  0.44749  0.94177  0.18704  1.0000
  C   C17       1.0  0.81775  0.37927  0.9112999999999999  1.0000
  C   C18       1.0  0.8625099999999999  0.42317  0.9766300000000001  1.0000
  C   C19       1.0  0.87383  0.37102  0.03794  1.0000
  C   C20       1.0  0.8354299999999999  0.27412  0.03528  1.0000
  C   C21       1.0  0.78325  0.23028  0.97095  1.0000
  C   C22       1.0  0.7761599999999999  0.28241  0.9092000000000001  1.0000
  C   C23       1.0  0.8195099999999998  0.43512  0.84392  1.0000
  C   C24       1.0  0.84527  0.21674  0.10078  1.0000
  C   C25       1.0  0.46965  0.57588  0.70432  1.0000
  C   C26       1.0  0.41105  0.63649  0.7437  1.0000
  C   C27       1.0  0.2763  0.63171  0.73683  1.0000
  C   C28       1.0  0.19846  0.56536  0.69135  1.0000
  C   C29       1.0  0.25722  0.5048  0.65159  1.0000
  C   C30       1.0  0.39221000000000006  0.51065  0.65761  1.0000
  C   C31       1.0  0.61318  0.578  0.7134899999999998  1.0000
  C   C32       1.0  0.05300000000000001  0.55809  0.68706  1.0000
  C   C33       1.0  0.31722  0.87612  0.59008  1.0000
  C   C34       1.0  0.36266  0.92102  0.5251  1.0000
  C   C35       1.0  0.37256  0.86978  0.46312999999999993  1.0000
  C   C36       1.0  0.33238  0.77284  0.46476  1.0000
  C   C37       1.0  0.28006  0.72821  0.52878  1.0000
  C   C38       1.0  0.27416  0.77935  0.5912  1.0000
  C   C39       1.0  0.3191  0.93114  0.65783  1.0000
  C   C40       1.0  0.34236  0.71628  0.39877  1.0000
  C   C41       1.0  0.9696199999999999  0.07622  0.79428  1.0000
  C   C42       1.0  0.91056  0.13698  0.75526  1.0000
  C   C43       1.0  0.7758199999999998  0.13227  0.76281  1.0000
  C   C44       1.0  0.69817  0.06584  0.80849  1.0000
  C   C45       1.0  0.75747  0.00525  0.8478599999999998  1.0000
  C   C46       1.0  0.8923999999999999  0.01108  0.84122  1.0000
  C   C47       1.0  0.11329999999999998  0.07802  0.78497  1.0000
  C   C48       1.0  0.5525  0.05822  0.8129599999999999  1.0000
  C   C49       1.0  0.18223999999999996  0.62072  0.0887  1.0000
  C   C50       1.0  0.13748000000000002  0.5768200000000001  0.02337  1.0000
  C   C51       1.0  0.12616  0.62897  0.9620599999999999  1.0000
  C   C52       1.0  0.16456999999999994  0.72588  0.96472  1.0000
  C   C53       1.0  0.21674  0.76972  0.02905  1.0000
  C   C54       1.0  0.22384  0.71759  0.0908  1.0000
  C   C55       1.0  0.18048999999999996  0.56488  0.15607  1.0000
  C   C56       1.0  0.15472000000000005  0.78326  0.8992199999999999  1.0000
  C   C57       1.0  0.5303400000000001  0.42412  0.29568  1.0000
  C   C58       1.0  0.58894  0.36351000000000006  0.25629  1.0000
  C   C59       1.0  0.7237  0.36829  0.26316  1.0000
  C   C60       1.0  0.80153  0.43463  0.30865  1.0000
  C   C61       1.0  0.74277  0.4952  0.34841  1.0000
  C   C62       1.0  0.6077800000000001  0.4893500000000001  0.34239  1.0000
  C   C63       1.0  0.38681  0.422  0.28651  1.0000
  C   C64       1.0  0.9469899999999999  0.44191  0.31293  1.0000
  O   O1        1.0  0.72127  0.11391  0.28418  1.0000
  O   O2        1.0  0.63714  0.9813400000000001  0.34534  1.0000
  O   O3        1.0  0.75247  0.35428  0.61035  1.0000
  O   O4        1.0  0.55879  0.259  0.6434  1.0000
  O   O5        1.0  0.84395  0.98187  0.17784  1.0000
  O   O6        1.0  0.8177800000000001  0.86327  0.25806  1.0000
  O   O7        1.0  0.51895  0.01822  0.1639  1.0000
  O   O8        1.0  0.49295  0.87314  0.20754  1.0000
  O   O9        1.0  0.77818  0.39041  0.78604  1.0000
  O   O10       1.0  0.86385  0.5226  0.8471699999999999  1.0000
  O   O11       1.0  0.75205  0.14481  0.10794  1.0000
  O   O12       1.0  0.94121  0.24138  0.14471  1.0000
  O   O13       1.0  0.6561099999999997  0.51834  0.67605  1.0000
  O   O14       1.0  0.6819600000000001  0.63653  0.75658  1.0000
  O   O15       1.0  0.9812999999999997  0.48104  0.66567  1.0000
  O   O16       1.0  0.007439999999999988  0.62738  0.70575  1.0000
  O   O17       1.0  0.27873  0.88609  0.71581  1.0000
  O   O18       1.0  0.36285  0.01866  0.65466  1.0000
  O   O19       1.0  0.24752  0.64572  0.38965  1.0000
  O   O20       1.0  0.44121  0.741  0.3566  1.0000
  O   O21       1.0  0.15604  0.01812  0.82215  1.0000
  O   O22       1.0  0.18221  0.13672  0.74194  1.0000
  O   O23       1.0  0.48103999999999997  0.98178  0.8361  1.0000
  O   O24       1.0  0.50705  0.12686  0.79246  1.0000
  O   O25       1.0  0.22182  0.60958  0.21395  1.0000
  O   O26       1.0  0.13615  0.4774  0.15283  1.0000
  O   O27       1.0  0.24794  0.85518  0.89205  1.0000
  O   O28       1.0  0.05878000000000003  0.7586200000000001  0.85529  1.0000
  O   O29       1.0  0.34388  0.48166  0.32395  1.0000
  O   O30       1.0  0.31803  0.36347  0.24340999999999996  1.0000
  O   O31       1.0  0.018690000000000002  0.51896  0.33433  1.0000
  O   O32       1.0  0.99256  0.37262  0.29424999999999996  1.0000
