data_image0
_chemical_formula_structural       Na4Zn4H24C64O36
_chemical_formula_sum              "Na4 Zn4 H24 C64 O36"
_cell_length_a       10.69539
_cell_length_b       10.69548
_cell_length_c       21.97515
_cell_angle_alpha    89.56149000000002
_cell_angle_beta     89.55835
_cell_angle_gamma    89.99409999999999

_space_group_name_H-M_alt    "P 1"
_space_group_IT_number       1

loop_
  _space_group_symop_operation_xyz
  'x, y, z'

loop_
  _atom_site_type_symbol
  _atom_site_label
  _atom_site_symmetry_multiplicity
  _atom_site_fract_x
  _atom_site_fract_y
  _atom_site_fract_z
  _atom_site_occupancy
  Na  Na1       1.0  0.61866  0.87498  0.48777000000000004  1.0000
  Na  Na2       1.0  0.12503  0.38133000000000006  0.01223  1.0000
  Na  Na3       1.0  0.38133000000000006  0.12502  0.5122300000000001  1.0000
  Na  Na4       1.0  0.87496  0.61866  0.98777  1.0000
  Zn  Zn1       1.0  0.59028  0.9530500000000001  0.6261600000000002  1.0000
  Zn  Zn2       1.0  0.046939999999999996  0.4097100000000001  0.87384  1.0000
  Zn  Zn3       1.0  0.40971  0.04695  0.37384  1.0000
  Zn  Zn4       1.0  0.95305  0.5902800000000001  0.12616  1.0000
  H   H1        1.0  0.80748  0.2766  0.34642  1.0000
  H   H2        1.0  0.99162  0.38337000000000004  0.3922800000000001  1.0000
  H   H3        1.0  0.015459999999999998  0.38717  0.5056700000000001  1.0000
  H   H4        1.0  0.7491600000000002  0.4905  0.54391  1.0000
  H   H5        1.0  0.78112  0.67016  0.7176700000000001  1.0000
  H   H6        1.0  0.9237599999999999  0.29600000000000004  0.6952  1.0000
  H   H7        1.0  0.72339  0.19252  0.15358  1.0000
  H   H8        1.0  0.61663  0.008380000000000002  0.10772000000000001  1.0000
  H   H9        1.0  0.61282  0.9845400000000001  0.99432  1.0000
  H   H10       1.0  0.50949  0.25083  0.95609  1.0000
  H   H11       1.0  0.32984  0.21888  0.78233  1.0000
  H   H12       1.0  0.704  0.07623  0.8047900000000002  1.0000
  H   H13       1.0  0.19251  0.7234  0.65358  1.0000
  H   H14       1.0  0.00837  0.61663  0.60772  1.0000
  H   H15       1.0  0.98453  0.61282  0.49432000000000004  1.0000
  H   H16       1.0  0.25083  0.5095  0.45609  1.0000
  H   H17       1.0  0.21887  0.32984  0.28233  1.0000
  H   H18       1.0  0.07624  0.7040000000000001  0.30479  1.0000
  H   H19       1.0  0.2766  0.80748  0.8464200000000001  1.0000
  H   H20       1.0  0.38336  0.9916200000000001  0.89228  1.0000
  H   H21       1.0  0.38717  0.015460000000000003  0.00568  1.0000
  H   H22       1.0  0.4905  0.7491600000000002  0.04391  1.0000
  H   H23       1.0  0.67015  0.7811200000000001  0.21766  1.0000
  H   H24       1.0  0.29599  0.9237700000000002  0.19521000000000002  1.0000
  C   C1        1.0  0.74941  0.20957  0.49561  1.0000
  C   C2        1.0  0.7338899999999999  0.21146  0.4319700000000001  1.0000
  C   C3        1.0  0.82084  0.27599  0.39549000000000006  1.0000
  C   C4        1.0  0.9228200000000001  0.3374400000000001  0.42142  1.0000
  C   C5        1.0  0.93706  0.33988000000000007  0.4845300000000001  1.0000
  C   C6        1.0  0.84917  0.27704  0.52061  1.0000
  C   C7        1.0  0.66178  0.14686  0.54  1.0000
  C   C8        1.0  0.62432  0.1498  0.4025  1.0000
  C   C9        1.0  0.83908  0.3822800000000001  0.61587  1.0000
  C   C10       1.0  0.7814  0.48862000000000005  0.59075  1.0000
  C   C11       1.0  0.76241  0.5926800000000001  0.6277000000000001  1.0000
  C   C12       1.0  0.7982  0.58941  0.6889900000000001  1.0000
  C   C13       1.0  0.8566099999999999  0.4826700000000001  0.71323  1.0000
  C   C14       1.0  0.87744  0.37848  0.6769  1.0000
  C   C15       1.0  0.70574  0.70975  0.6012500000000001  1.0000
  C   C16       1.0  0.89762  0.48236000000000007  0.77843  1.0000
  C   C17       1.0  0.79041  0.25059  0.004390000000000001  1.0000
  C   C18       1.0  0.78853  0.26611  0.06803000000000001  1.0000
  C   C19       1.0  0.724  0.17916  0.10451000000000002  1.0000
  C   C20       1.0  0.66256  0.07718  0.07857  1.0000
  C   C21       1.0  0.66011  0.06294  0.015470000000000001  1.0000
  C   C22       1.0  0.72295  0.15082  0.9793800000000001  1.0000
  C   C23       1.0  0.85312  0.33821  0.9600000000000002  1.0000
  C   C24       1.0  0.8501899999999999  0.3757  0.0975  1.0000
  C   C25       1.0  0.61771  0.16091  0.88412  1.0000
  C   C26       1.0  0.51137  0.21859  0.9092500000000001  1.0000
  C   C27       1.0  0.40731000000000006  0.23759000000000002  0.8723  1.0000
  C   C28       1.0  0.41059  0.20179  0.81101  1.0000
  C   C29       1.0  0.51733  0.14338  0.78676  1.0000
  C   C30       1.0  0.62152  0.12255000000000003  0.8231000000000002  1.0000
  C   C31       1.0  0.29024  0.29426  0.89875  1.0000
  C   C32       1.0  0.51764  0.10236  0.72156  1.0000
  C   C33       1.0  0.25057999999999997  0.7904200000000001  0.50439  1.0000
  C   C34       1.0  0.2661  0.78854  0.56802  1.0000
  C   C35       1.0  0.17915000000000006  0.72401  0.60451  1.0000
  C   C36       1.0  0.07717  0.6625600000000001  0.57857  1.0000
  C   C37       1.0  0.06293  0.66011  0.51547  1.0000
  C   C38       1.0  0.15082  0.7229600000000003  0.47938000000000003  1.0000
  C   C39       1.0  0.33821  0.85314  0.4600000000000001  1.0000
  C   C40       1.0  0.37567  0.85019  0.5975  1.0000
  C   C41       1.0  0.16092  0.6177200000000002  0.3841300000000001  1.0000
  C   C42       1.0  0.21859  0.51138  0.40925  1.0000
  C   C43       1.0  0.23759  0.40732  0.3723  1.0000
  C   C44       1.0  0.20179000000000002  0.41059000000000007  0.31101  1.0000
  C   C45       1.0  0.14338  0.51733  0.28676  1.0000
  C   C46       1.0  0.12256000000000002  0.62152  0.32310000000000005  1.0000
  C   C47       1.0  0.29425  0.29025  0.39875000000000005  1.0000
  C   C48       1.0  0.10237000000000002  0.51764  0.22157000000000002  1.0000
  C   C49       1.0  0.20958  0.7494100000000001  0.99561  1.0000
  C   C50       1.0  0.21146000000000004  0.7338800000000001  0.9319700000000001  1.0000
  C   C51       1.0  0.27599  0.8208400000000002  0.8954900000000002  1.0000
  C   C52       1.0  0.33743  0.9228200000000001  0.9214300000000002  1.0000
  C   C53       1.0  0.33988  0.93706  0.9845300000000002  1.0000
  C   C54       1.0  0.27704  0.84917  0.02062  1.0000
  C   C55       1.0  0.14687  0.66178  0.04  1.0000
  C   C56       1.0  0.1498  0.6243  0.9025000000000002  1.0000
  C   C57       1.0  0.38228  0.8390800000000003  0.11587  1.0000
  C   C58       1.0  0.48862  0.7814  0.09075000000000001  1.0000
  C   C59       1.0  0.59268  0.7624100000000001  0.1277  1.0000
  C   C60       1.0  0.5894  0.7982  0.18899000000000002  1.0000
  C   C61       1.0  0.48266  0.8566200000000002  0.21324  1.0000
  C   C62       1.0  0.37847  0.8774400000000001  0.1769  1.0000
  C   C63       1.0  0.70975  0.7057400000000003  0.10125  1.0000
  C   C64       1.0  0.48235  0.8976300000000001  0.27843  1.0000
  O   O1        1.0  0.56805  0.20605  0.55796  1.0000
  O   O2        1.0  0.69446  0.03648  0.5577500000000001  1.0000
  O   O3        1.0  0.55623  0.07286  0.4356000000000001  1.0000
  O   O4        1.0  0.59763  0.17424000000000003  0.34853  1.0000
  O   O5        1.0  0.85725  0.27387000000000006  0.58386  1.0000
  O   O6        1.0  0.69327  0.80031  0.63909  1.0000
  O   O7        1.0  0.67721  0.7120300000000003  0.5458600000000001  1.0000
  O   O8        1.0  0.8639400000000002  0.56902  0.8127  1.0000
  O   O9        1.0  0.96822  0.38949  0.7946500000000001  1.0000
  O   O10       1.0  0.7939400000000001  0.43194000000000005  0.94204  1.0000
  O   O11       1.0  0.96351  0.30553  0.9422400000000001  1.0000
  O   O12       1.0  0.9271500000000001  0.44377  0.06439  1.0000
  O   O13       1.0  0.82575  0.40244000000000013  0.15146  1.0000
  O   O14       1.0  0.72612  0.14274  0.91613  1.0000
  O   O15       1.0  0.19968000000000002  0.30672  0.86091  1.0000
  O   O16       1.0  0.28796  0.32280000000000003  0.9541400000000001  1.0000
  O   O17       1.0  0.43097  0.13603000000000004  0.6873  1.0000
  O   O18       1.0  0.61051  0.03177  0.7053400000000001  1.0000
  O   O19       1.0  0.43194  0.79395  0.44204  1.0000
  O   O20       1.0  0.30553  0.9635200000000002  0.44224  1.0000
  O   O21       1.0  0.44377000000000005  0.92714  0.5644  1.0000
  O   O22       1.0  0.40237  0.82576  0.65147  1.0000
  O   O23       1.0  0.14274  0.7261300000000002  0.41613000000000006  1.0000
  O   O24       1.0  0.30673  0.19968000000000002  0.3609  1.0000
  O   O25       1.0  0.32278  0.28797  0.45414  1.0000
  O   O26       1.0  0.13605  0.43098  0.18729  1.0000
  O   O27       1.0  0.03177  0.6105  0.20534  1.0000
  O   O28       1.0  0.20605  0.56806  0.057960000000000005  1.0000
  O   O29       1.0  0.03649  0.69446  0.05776000000000001  1.0000
  O   O30       1.0  0.07284  0.5562300000000001  0.9356100000000003  1.0000
  O   O31       1.0  0.17424000000000006  0.59756  0.84853  1.0000
  O   O32       1.0  0.27387  0.8572600000000001  0.08387000000000001  1.0000
  O   O33       1.0  0.8003100000000001  0.6932800000000002  0.13909  1.0000
  O   O34       1.0  0.71203  0.6771900000000001  0.04586  1.0000
  O   O35       1.0  0.56902  0.86397  0.3127  1.0000
  O   O36       1.0  0.38948000000000005  0.96823  0.29466  1.0000
