data_image0
_chemical_formula_structural       Cu4H36C52O16
_chemical_formula_sum              "Cu4 H36 C52 O16"
_cell_length_a       11.10899
_cell_length_b       15.364579999999998
_cell_length_c       16.82788
_cell_angle_alpha    117.02334
_cell_angle_beta     109.21251999999998
_cell_angle_gamma    89.98587

_space_group_name_H-M_alt    "P 1"
_space_group_IT_number       1

loop_
  _space_group_symop_operation_xyz
  'x, y, z'

loop_
  _atom_site_type_symbol
  _atom_site_label
  _atom_site_symmetry_multiplicity
  _atom_site_fract_x
  _atom_site_fract_y
  _atom_site_fract_z
  _atom_site_occupancy
  Cu  Cu1       1.0  0.04227999999999992  0.46757000000000004  0.9351999999999999  1.0000
  Cu  Cu2       1.0  0.60649  0.03178  0.06455  1.0000
  Cu  Cu3       1.0  0.39349999999999996  0.9682100000000002  0.93545  1.0000
  Cu  Cu4       1.0  0.9577199999999999  0.5324300000000002  0.0648  1.0000
  H   H1        1.0  0.73182  0.22045000000000006  0.72017  1.0000
  H   H2        1.0  0.6857599999999999  0.87981  0.61498  1.0000
  H   H3        1.0  0.7721  0.0027899999999999904  0.67907  1.0000
  H   H4        1.0  0.78948  0.9162100000000002  0.57112  1.0000
  H   H5        1.0  0.51057  0.27916  0.27974  1.0000
  H   H6        1.0  0.57031  0.62047  0.38501  1.0000
  H   H7        1.0  0.59344  0.4976400000000002  0.32087  1.0000
  H   H8        1.0  0.71804  0.58446  0.429  1.0000
  H   H9        1.0  0.49127  0.0004399999999999931  0.71994  1.0000
  H   H10       1.0  0.42966000000000004  0.23557  0.61439  1.0000
  H   H11       1.0  0.40641  0.17672000000000004  0.67857  1.0000
  H   H12       1.0  0.28215  0.15552  0.57016  1.0000
  H   H13       1.0  0.27127  0.5  0.28016  1.0000
  H   H14       1.0  0.31498999999999994  0.26477999999999996  0.3857199999999999  1.0000
  H   H15       1.0  0.2284599999999999  0.32387  0.32151999999999986  1.0000
  H   H16       1.0  0.21175999999999998  0.3452700000000001  0.42981999999999987  1.0000
  H   H17       1.0  0.26818  0.7795500000000001  0.27983  1.0000
  H   H18       1.0  0.31424  0.12019  0.38502  1.0000
  H   H19       1.0  0.22789999999999996  0.9972000000000002  0.32093  1.0000
  H   H20       1.0  0.21052  0.08378000000000002  0.42888  1.0000
  H   H21       1.0  0.4894299999999999  0.7208400000000003  0.72026  1.0000
  H   H22       1.0  0.42968999999999996  0.37951999999999997  0.61499  1.0000
  H   H23       1.0  0.40656  0.5023500000000002  0.67913  1.0000
  H   H24       1.0  0.28196  0.41554000000000013  0.571  1.0000
  H   H25       1.0  0.50873  0.9995499999999999  0.28007  1.0000
  H   H26       1.0  0.5703399999999997  0.76442  0.38561  1.0000
  H   H27       1.0  0.59359  0.8232800000000003  0.32143  1.0000
  H   H28       1.0  0.7178499999999999  0.8444800000000002  0.42984  1.0000
  H   H29       1.0  0.72873  0.49999000000000016  0.71984  1.0000
  H   H30       1.0  0.68501  0.73521  0.61428  1.0000
  H   H31       1.0  0.77154  0.6761200000000003  0.6784799999999999  1.0000
  H   H32       1.0  0.78824  0.6547300000000003  0.57018  1.0000
  H   H33       1.0  0.74468  0.24376000000000012  0.9879  1.0000
  H   H34       1.0  0.25658  0.25601  0.01223  1.0000
  H   H35       1.0  0.25532  0.75623  0.0121  1.0000
  H   H36       1.0  0.74342  0.7439899999999999  0.9877699999999998  1.0000
  C   C1        1.0  0.74563  0.24249000000000007  0.859  1.0000
  C   C2        1.0  0.84026  0.3371800000000001  0.91084  1.0000
  C   C3        1.0  0.60742  0.9715099999999999  0.55068  1.0000
  C   C4        1.0  0.69722  0.1913100000000001  0.75832  1.0000
  C   C5        1.0  0.71982  0.94146  0.60672  1.0000
  C   C6        1.0  0.3858599999999999  0.25733  0.14108  1.0000
  C   C7        1.0  0.42804  0.16239  0.08902  1.0000
  C   C8        1.0  0.55661  0.52858  0.44918  1.0000
  C   C9        1.0  0.43812  0.30857  0.24174  1.0000
  C   C10       1.0  0.6129500000000001  0.55888  0.39321  1.0000
  C   C11       1.0  0.61528  0.11679999999999999  0.85901  1.0000
  C   C12       1.0  0.5724099999999999  0.07392999999999987  0.9110199999999998  1.0000
  C   C13       1.0  0.44384  0.07970000000000003  0.55059  1.0000
  C   C14       1.0  0.56344  0.06785000000000009  0.75832  1.0000
  C   C15       1.0  0.38722  0.16578000000000007  0.6062  1.0000
  C   C16       1.0  0.25656  0.38364  0.14111  1.0000
  C   C17       1.0  0.16223  0.42684  0.08913  1.0000
  C   C18       1.0  0.39331999999999995  0.42052000000000006  0.44957999999999987  1.0000
  C   C19       1.0  0.30523  0.43260000000000004  0.24177  1.0000
  C   C20       1.0  0.28106  0.33468  0.39389  1.0000
  C   C21       1.0  0.25437  0.7575000000000002  0.14101  1.0000
  C   C22       1.0  0.15974  0.66281  0.08915  1.0000
  C   C23       1.0  0.39258000000000004  0.02848  0.44933  1.0000
  C   C24       1.0  0.30278  0.80868  0.24167999999999995  1.0000
  C   C25       1.0  0.2801799999999999  0.05854000000000001  0.39328  1.0000
  C   C26       1.0  0.6141500000000002  0.74266  0.85893  1.0000
  C   C27       1.0  0.57193  0.8375900000000002  0.91097  1.0000
  C   C28       1.0  0.44339000000000006  0.47141  0.55082  1.0000
  C   C29       1.0  0.56188  0.69143  0.75826  1.0000
  C   C30       1.0  0.3870499999999999  0.44111000000000006  0.6067899999999999  1.0000
  C   C31       1.0  0.38473  0.8832000000000002  0.141  1.0000
  C   C32       1.0  0.42756  0.9260600000000002  0.08896  1.0000
  C   C33       1.0  0.55616  0.9203000000000001  0.44941  1.0000
  C   C34       1.0  0.43656  0.9321400000000001  0.24167  1.0000
  C   C35       1.0  0.61278  0.83421  0.3938  1.0000
  C   C36       1.0  0.7434399999999999  0.61636  0.8589  1.0000
  C   C37       1.0  0.83778  0.57314  0.91085  1.0000
  C   C38       1.0  0.60668  0.57948  0.55042  1.0000
  C   C39       1.0  0.69477  0.5674  0.75822  1.0000
  C   C40       1.0  0.7189399999999999  0.6653199999999999  0.6061099999999999  1.0000
  C   C41       1.0  0.60471  0.10420000000000006  0.70715  1.0000
  C   C42       1.0  0.70577  0.20496  0.90986  1.0000
  C   C43       1.0  0.55074  0.05059  0.59994  1.0000
  C   C44       1.0  0.39721  0.39606000000000013  0.29293  1.0000
  C   C45       1.0  0.29571  0.2951000000000001  0.09024  1.0000
  C   C46       1.0  0.45062999999999986  0.44972000000000006  0.40011999999999986  1.0000
  C   C47       1.0  0.39529  0.8958000000000002  0.29285  1.0000
  C   C48       1.0  0.29422  0.7950300000000002  0.09014  1.0000
  C   C49       1.0  0.44926  0.9494100000000002  0.40007  1.0000
  C   C50       1.0  0.60279  0.6039400000000003  0.70707  1.0000
  C   C51       1.0  0.70428  0.70489  0.90975  1.0000
  C   C52       1.0  0.54937  0.55027  0.5998799999999999  1.0000
  O   O1        1.0  0.91473  0.34469000000000016  0.86926  1.0000
  O   O2        1.0  0.8383999999999999  0.40299  0.9915499999999998  1.0000
  O   O3        1.0  0.54386  0.15455  0.13054  1.0000
  O   O4        1.0  0.34569  0.09679000000000003  0.0082  1.0000
  O   O5        1.0  0.45632  0.025349999999999998  0.86952  1.0000
  O   O6        1.0  0.65451  0.08844  0.99183  1.0000
  O   O7        1.0  0.08834  0.4763400000000001  0.13094  1.0000
  O   O8        1.0  0.1635  0.4116400000000001  0.00809  1.0000
  O   O9        1.0  0.08525999999999999  0.6553000000000002  0.13075  1.0000
  O   O10       1.0  0.1616  0.59701  0.00846  1.0000
  O   O11       1.0  0.45613999999999993  0.8454500000000001  0.8694599999999998  1.0000
  O   O12       1.0  0.65432  0.90322  0.99181  1.0000
  O   O13       1.0  0.54369  0.9746500000000002  0.13049  1.0000
  O   O14       1.0  0.3455  0.9115500000000002  0.00818  1.0000
  O   O15       1.0  0.91165  0.52366  0.86907  1.0000
  O   O16       1.0  0.8364999999999999  0.58836  0.99192  1.0000
