data_image0
_chemical_formula_structural       Cd4H46C56N6O16
_chemical_formula_sum              "Cd4 H46 C56 N6 O16"
_cell_length_a       10.1764
_cell_length_b       14.04345
_cell_length_c       14.62698
_cell_angle_alpha    53.78171
_cell_angle_beta     66.27715
_cell_angle_gamma    67.68771

_space_group_name_H-M_alt    "P 1"
_space_group_IT_number       1

loop_
  _space_group_symop_operation_xyz
  'x, y, z'

loop_
  _atom_site_type_symbol
  _atom_site_label
  _atom_site_symmetry_multiplicity
  _atom_site_fract_x
  _atom_site_fract_y
  _atom_site_fract_z
  _atom_site_occupancy
  Cd  Cd1       1.0  0.18610999999999997  0.05714000000000002  0.38999000000000006  1.0000
  Cd  Cd2       1.0  0.8017799999999998  0.97074  0.007060000000000002  1.0000
  Cd  Cd3       1.0  0.8138799999999999  0.94283  0.6100300000000001  1.0000
  Cd  Cd4       1.0  0.19823000000000005  0.029250000000000026  0.99293  1.0000
  H   H1        1.0  0.17885999999999994  0.7603300000000001  0.58285  1.0000
  H   H2        1.0  0.16589000000000007  0.5901999999999998  0.5793400000000001  1.0000
  H   H3        1.0  0.23870999999999998  0.81767  0.20490000000000005  1.0000
  H   H4        1.0  0.25090999999999986  0.9807000000000002  0.22387000000000007  1.0000
  H   H5        1.0  0.20918999999999996  0.62965  0.28274  1.0000
  H   H6        1.0  0.17114999999999986  0.4532  0.54788  1.0000
  H   H7        1.0  0.17180999999999996  0.25046  0.61969  1.0000
  H   H8        1.0  0.15843  0.09719000000000001  0.58901  1.0000
  H   H9        1.0  0.16036999999999998  0.34477000000000013  0.24138000000000007  1.0000
  H   H10       1.0  0.16995  0.51073  0.25523  1.0000
  H   H11       1.0  0.60319  0.90244  0.24949000000000005  1.0000
  H   H12       1.0  0.53821  0.71519  0.43141  1.0000
  H   H13       1.0  0.57709  0.58093  0.21866  1.0000
  H   H14       1.0  0.64612  0.77372  0.04364  1.0000
  H   H15       1.0  0.5255300000000004  0.44723999999999997  0.42585  1.0000
  H   H16       1.0  0.51649  0.26577  0.23175000000000004  1.0000
  H   H17       1.0  0.6505400000000001  0.08798000000000002  0.37571  1.0000
  H   H18       1.0  0.7579800000000001  0.04392999999999999  0.27221  1.0000
  H   H19       1.0  0.74691  0.27831  0.24721000000000004  1.0000
  H   H20       1.0  0.9335899999999999  0.32395  0.07347  1.0000
  H   H21       1.0  0.68403  0.40194  0.05285000000000001  1.0000
  H   H22       1.0  0.7909600000000001  0.36438999999999994  0.94417  1.0000
  H   H23       1.0  0.54122  0.3074  0.04283  1.0000
  H   H24       1.0  0.82121  0.23960999999999996  0.41718  1.0000
  H   H25       1.0  0.8341  0.4097700000000001  0.42067000000000004  1.0000
  H   H26       1.0  0.7612399999999999  0.1823399999999999  0.7951100000000002  1.0000
  H   H27       1.0  0.74912  0.019269999999999936  0.7761700000000001  1.0000
  H   H28       1.0  0.79079  0.37035  0.7172600000000001  1.0000
  H   H29       1.0  0.8288399999999999  0.54679  0.45212  1.0000
  H   H30       1.0  0.8282299999999998  0.7495300000000003  0.3803100000000001  1.0000
  H   H31       1.0  0.8416400000000002  0.90278  0.4110000000000001  1.0000
  H   H32       1.0  0.83958  0.6552099999999998  0.7586500000000002  1.0000
  H   H33       1.0  0.8300000000000001  0.48925999999999986  0.7447900000000001  1.0000
  H   H34       1.0  0.39676  0.09754000000000002  0.75051  1.0000
  H   H35       1.0  0.46176  0.28478999999999993  0.5685800000000001  1.0000
  H   H36       1.0  0.4229500000000001  0.41905000000000003  0.7813200000000001  1.0000
  H   H37       1.0  0.3539099999999999  0.2262599999999999  0.9563400000000002  1.0000
  H   H38       1.0  0.4744700000000001  0.5527299999999999  0.57413  1.0000
  H   H39       1.0  0.48356000000000005  0.73412  0.76834  1.0000
  H   H40       1.0  0.34953000000000006  0.91192  0.62437  1.0000
  H   H41       1.0  0.24207999999999993  0.95596  0.7278800000000001  1.0000
  H   H42       1.0  0.2531499999999999  0.7216  0.7528500000000001  1.0000
  H   H43       1.0  0.06644999999999993  0.6759699999999998  0.9265800000000002  1.0000
  H   H44       1.0  0.31599000000000005  0.5979799999999998  0.9472300000000001  1.0000
  H   H45       1.0  0.20904  0.63555  0.05589  1.0000
  H   H46       1.0  0.4587699999999998  0.69253  0.9572700000000002  1.0000
  C   C1        1.0  0.19391000000000005  0.76912  0.50046  1.0000
  C   C2        1.0  0.18589999999999993  0.6743400000000002  0.4977700000000001  1.0000
  C   C3        1.0  0.20107999999999998  0.69014  0.38982  1.0000
  C   C4        1.0  0.2244399999999998  0.8028400000000002  0.28986000000000006  1.0000
  C   C5        1.0  0.23274999999999987  0.89254  0.29978  1.0000
  C   C6        1.0  0.19675  0.59892  0.37336  1.0000
  C   C7        1.0  0.18086999999999986  0.48420000000000013  0.4577300000000001  1.0000
  C   C8        1.0  0.17525999999999997  0.3946  0.43932  1.0000
  C   C9        1.0  0.17116999999999996  0.27569  0.5336800000000002  1.0000
  C   C10       1.0  0.16425999999999996  0.18950000000000006  0.51789  1.0000
  C   C11       1.0  0.16444  0.32874000000000003  0.32283000000000006  1.0000
  C   C12       1.0  0.17081999999999994  0.42014  0.3315100000000001  1.0000
  C   C13       1.0  0.5980700000000001  0.82815  0.24668  1.0000
  C   C14       1.0  0.56179  0.72242  0.34835000000000005  1.0000
  C   C15       1.0  0.5555599999999998  0.62815  0.34189  1.0000
  C   C16       1.0  0.5842299999999999  0.64898  0.22949  1.0000
  C   C17       1.0  0.6221399999999998  0.75688  0.13116000000000003  1.0000
  C   C18       1.0  0.5197499999999998  0.51376  0.44402  1.0000
  C   C19       1.0  0.45869000000000004  0.11848999999999997  0.26599000000000006  1.0000
  C   C20       1.0  0.5772299999999999  0.19021000000000002  0.21673000000000003  1.0000
  C   C21       1.0  0.6995799999999999  0.12166999999999996  0.28245000000000003  1.0000
  C   C22       1.0  0.80813  0.20102000000000003  0.23485000000000003  1.0000
  C   C23       1.0  0.8703500000000001  0.25860000000000005  0.10153000000000002  1.0000
  C   C24       1.0  0.74497  0.32659  0.0383  1.0000
  C   C25       1.0  0.63404  0.24864  0.0834  1.0000
  C   C26       1.0  0.9266200000000001  0.14094  0.30288  1.0000
  C   C27       1.0  0.9824900000000001  0.17477  0.05941000000000001  1.0000
  C   C28       1.0  0.69588  0.15648  0.045380000000000004  1.0000
  C   C29       1.0  0.8061300000000001  0.23082999999999992  0.4995600000000001  1.0000
  C   C30       1.0  0.8141  0.32563  0.50225  1.0000
  C   C31       1.0  0.7989  0.30985  0.6102  1.0000
  C   C32       1.0  0.77554  0.19714999999999985  0.7101600000000002  1.0000
  C   C33       1.0  0.7672800000000001  0.10742999999999998  0.70025  1.0000
  C   C34       1.0  0.8032299999999996  0.40107000000000004  0.6266500000000002  1.0000
  C   C35       1.0  0.8191200000000001  0.5158  0.54228  1.0000
  C   C36       1.0  0.8247399999999998  0.6053900000000002  0.56068  1.0000
  C   C37       1.0  0.8288599999999999  0.7242900000000001  0.46633  1.0000
  C   C38       1.0  0.83578  0.81047  0.48212  1.0000
  C   C39       1.0  0.8355400000000001  0.67124  0.67718  1.0000
  C   C40       1.0  0.8291500000000002  0.5798500000000001  0.6685  1.0000
  C   C41       1.0  0.40191  0.1718299999999999  0.7533100000000003  1.0000
  C   C42       1.0  0.43820000000000003  0.27756  0.65163  1.0000
  C   C43       1.0  0.44445000000000007  0.37182  0.6581000000000001  1.0000
  C   C44       1.0  0.41579  0.351  0.77049  1.0000
  C   C45       1.0  0.37788  0.24308999999999997  0.86883  1.0000
  C   C46       1.0  0.48026000000000035  0.4862199999999999  0.55596  1.0000
  C   C47       1.0  0.5413400000000002  0.8814499999999998  0.73405  1.0000
  C   C48       1.0  0.4228200000000001  0.8096899999999998  0.7833500000000002  1.0000
  C   C49       1.0  0.3004899999999998  0.8782300000000001  0.71763  1.0000
  C   C50       1.0  0.19193999999999994  0.7988999999999999  0.7652100000000001  1.0000
  C   C51       1.0  0.12966999999999979  0.7413300000000002  0.8985200000000001  1.0000
  C   C52       1.0  0.25505  0.6733400000000003  0.96176  1.0000
  C   C53       1.0  0.3659800000000001  0.7512899999999999  0.91667  1.0000
  C   C54       1.0  0.0735100000000001  0.85907  0.69709  1.0000
  C   C55       1.0  0.017539999999999816  0.8251800000000002  0.94061  1.0000
  C   C56       1.0  0.30416  0.8434599999999999  0.95467  1.0000
  N   N1        1.0  0.21740999999999996  0.8767800000000001  0.40338  1.0000
  N   N2        1.0  0.16101999999999994  0.2149899999999999  0.4144700000000001  1.0000
  N   N3        1.0  0.63116  0.8451900000000001  0.13904  1.0000
  N   N4        1.0  0.78266  0.12315999999999999  0.59665  1.0000
  N   N5        1.0  0.83899  0.78499  0.58555  1.0000
  N   N6        1.0  0.36885  0.15478999999999984  0.8609500000000002  1.0000
  O   O1        1.0  0.43381000000000003  0.03917999999999999  0.37504  1.0000
  O   O2        1.0  0.38233999999999996  0.14799  0.19903  1.0000
  O   O3        1.0  0.91313  0.043269999999999996  0.40158  1.0000
  O   O4        1.0  0.03185999999999999  0.19487999999999997  0.25970000000000004  1.0000
  O   O5        1.0  0.01402999999999994  0.2108499999999999  0.9516600000000002  1.0000
  O   O6        1.0  0.047279999999999996  0.07272999999999999  0.13169000000000003  1.0000
  O   O7        1.0  0.7569200000000003  0.04958999999999999  0.11434000000000001  1.0000
  O   O8        1.0  0.68594  0.1855  0.94764  1.0000
  O   O9        1.0  0.5661900000000001  0.9607199999999999  0.6249700000000001  1.0000
  O   O10       1.0  0.6177  0.85202  0.80097  1.0000
  O   O11       1.0  0.08706999999999994  0.95674  0.59842  1.0000
  O   O12       1.0  0.9682099999999999  0.80522  0.7402  1.0000
  O   O13       1.0  0.98598  0.78913  0.048360000000000014  1.0000
  O   O14       1.0  0.95277  0.9272299999999997  0.8683200000000002  1.0000
  O   O15       1.0  0.24336999999999992  0.9504000000000001  0.8856000000000002  1.0000
  O   O16       1.0  0.31393999999999994  0.81441  0.05246000000000001  1.0000
