data_image0
_chemical_formula_structural       Mn6H32C48N8O18
_chemical_formula_sum              "Mn6 H32 C48 N8 O18"
_cell_length_a       11.30679
_cell_length_b       11.28291
_cell_length_c       19.8423
_cell_angle_alpha    90.44789
_cell_angle_beta     90.49104
_cell_angle_gamma    62.97664000000001

_symmetry_space_group_name_H-M    'P 1'
_symmetry_Int_Tables_number       1

loop_
  _symmetry_equiv_pos_as_xyz
  'x,y,z'

loop_
  _atom_site_type_symbol
  _atom_site_label
  _atom_site_symmetry_multiplicity
  _atom_site_fract_x
  _atom_site_fract_y
  _atom_site_fract_z
  _atom_site_occupancy
  Mn  Mn1       1.0  0.71968  0.69806  0.17297000000000004  1.0000
  Mn  Mn2       1.0  0.90744  0.39186  0.25478  1.0000
  Mn  Mn3       1.0  0.7211999999999998  0.6918999999999998  0.33239  1.0000
  Mn  Mn4       1.0  0.3032399999999999  0.28223  0.8267  1.0000
  Mn  Mn5       1.0  0.60836  0.09379  0.7441900000000001  1.0000
  Mn  Mn6       1.0  0.30888  0.27791999999999994  0.6669600000000001  1.0000
  H   H1        1.0  0.002680000000000014  0.61028  0.02444  1.0000
  H   H2        1.0  0.14361000000000002  0.54378  0.9197800000000002  1.0000
  H   H3        1.0  0.19338  0.15875  0.93048  1.0000
  H   H4        1.0  0.06537  0.20544999999999997  0.03887  1.0000
  H   H5        1.0  0.27358000000000005  0.9418499999999999  0.35491000000000006  1.0000
  H   H6        1.0  0.06914  0.16211  0.35261  1.0000
  H   H7        1.0  0.18109999999999998  0.2656  0.17332  1.0000
  H   H8        1.0  0.38669999999999993  0.04927  0.16728  1.0000
  H   H9        1.0  0.82788  0.01335  0.14537  1.0000
  H   H10       1.0  0.86297  0.21905999999999998  0.14954  1.0000
  H   H11       1.0  0.77696  0.27226  0.35315  1.0000
  H   H12       1.0  0.7356899999999997  0.06969  0.35643  1.0000
  H   H13       1.0  0.06912  0.60041  0.46337  1.0000
  H   H14       1.0  0.22613999999999998  0.51832  0.56227  1.0000
  H   H15       1.0  0.21730000000000002  0.15593999999999997  0.55953  1.0000
  H   H16       1.0  0.05458000000000004  0.22636999999999993  0.46298  1.0000
  H   H17       1.0  0.39216999999999996  2.9999999999998994e-05  0.97487  1.0000
  H   H18       1.0  0.4584200000000001  0.86034  0.0801  1.0000
  H   H19       1.0  0.8429699999999999  0.80876  0.06867  1.0000
  H   H20       1.0  0.79674  0.9348799999999998  0.9594500000000001  1.0000
  H   H21       1.0  0.059719999999999974  0.72785  0.64449  1.0000
  H   H22       1.0  0.83884  0.93161  0.6465400000000001  1.0000
  H   H23       1.0  0.73617  0.81691  0.8252700000000001  1.0000
  H   H24       1.0  0.9534299999999998  0.61201  0.83158  1.0000
  H   H25       1.0  0.99008  0.17002999999999996  0.8534  1.0000
  H   H26       1.0  0.7844  0.13526  0.85012  1.0000
  H   H27       1.0  0.7253899999999999  0.228  0.64736  1.0000
  H   H28       1.0  0.9289600000000002  0.26638999999999996  0.64293  1.0000
  H   H29       1.0  0.39968  0.9291399999999999  0.53662  1.0000
  H   H30       1.0  0.481  0.773  0.43724  1.0000
  H   H31       1.0  0.8436000000000002  0.7792799999999999  0.44129  1.0000
  H   H32       1.0  0.7741999999999998  0.94122  0.53804  1.0000
  C   C1        1.0  0.9347900000000002  0.45116999999999996  0.10062  1.0000
  C   C2        1.0  0.023459999999999995  0.41264  0.03996  1.0000
  C   C3        1.0  0.046030000000000015  0.50859  0.00567  1.0000
  C   C4        1.0  0.12296000000000001  0.47262  0.9477000000000001  1.0000
  C   C5        1.0  0.15195  0.25657  0.95412  1.0000
  C   C6        1.0  0.07991999999999999  0.28303  0.01362  1.0000
  C   C7        1.0  0.46799000000000013  0.8451499999999998  0.25731  1.0000
  C   C8        1.0  0.34619  0.97645  0.26028  1.0000
  C   C9        1.0  0.25544  0.01082  0.31356000000000006  1.0000
  C   C10       1.0  0.14229000000000003  0.13277  0.31265  1.0000
  C   C11       1.0  0.20434000000000002  0.19163999999999995  0.21254000000000003  1.0000
  C   C12       1.0  0.31831  0.07078  0.2091  1.0000
  C   C13       1.0  0.7719399999999998  0.89717  0.25247  1.0000
  C   C14       1.0  0.7829  0.02486  0.25137  1.0000
  C   C15       1.0  0.8159  0.06893  0.19198000000000004  1.0000
  C   C16       1.0  0.8348299999999998  0.18216999999999994  0.19401  1.0000
  C   C17       1.0  0.78636  0.21228999999999998  0.3083600000000001  1.0000
  C   C18       1.0  0.76478  0.10048  0.3102  1.0000
  C   C19       1.0  0.9538199999999999  0.46673  0.39735  1.0000
  C   C20       1.0  0.04942000000000005  0.4194399999999999  0.45553  1.0000
  C   C21       1.0  0.09938  0.50188  0.48409  1.0000
  C   C22       1.0  0.18730000000000002  0.4562699999999999  0.53813  1.0000
  C   C23       1.0  0.18098  0.25371  0.53689  1.0000
  C   C24       1.0  0.09189999999999997  0.29275  0.4833  1.0000
  C   C25       1.0  0.5505300000000001  0.06670999999999999  0.8981800000000001  1.0000
  C   C26       1.0  0.5896500000000001  0.9779299999999997  0.9588500000000001  1.0000
  C   C27       1.0  0.4937599999999999  0.95624  0.9935  1.0000
  C   C28       1.0  0.52959  0.88008  0.0518  1.0000
  C   C29       1.0  0.7454100000000002  0.85005  0.04495  1.0000
  C   C30       1.0  0.71916  0.9210999999999999  0.98502  1.0000
  C   C31       1.0  0.1574800000000001  0.5327699999999997  0.742  1.0000
  C   C32       1.0  0.025640000000000013  0.65395  0.73888  1.0000
  C   C33       1.0  0.9907  0.74519  0.68562  1.0000
  C   C34       1.0  0.8684  0.85796  0.68642  1.0000
  C   C35       1.0  0.8101299999999999  0.7944499999999999  0.78624  1.0000
  C   C36       1.0  0.9313599999999999  0.68087  0.78983  1.0000
  C   C37       1.0  0.10365000000000006  0.22877999999999998  0.74657  1.0000
  C   C38       1.0  0.9762399999999999  0.21750999999999998  0.74777  1.0000
  C   C39       1.0  0.9333199999999999  0.18311  0.8071400000000001  1.0000
  C   C40       1.0  0.82009  0.16445999999999997  0.8055900000000001  1.0000
  C   C41       1.0  0.7870300000000001  0.2162999999999999  0.69171  1.0000
  C   C42       1.0  0.89928  0.23683  0.68933  1.0000
  C   C43       1.0  0.53231  0.044469999999999996  0.60274  1.0000
  C   C44       1.0  0.5805  0.9481799999999999  0.5448600000000001  1.0000
  C   C45       1.0  0.49804000000000004  0.89864  0.5159700000000002  1.0000
  C   C46       1.0  0.54318  0.81123  0.4617  1.0000
  C   C47       1.0  0.7458299999999998  0.81625  0.46367  1.0000
  C   C48       1.0  0.70726  0.90493  0.51746  1.0000
  N   N1        1.0  0.17431  0.34875  0.92131  1.0000
  N   N2        1.0  0.11441  0.2241  0.26303  1.0000
  N   N3        1.0  0.8233399999999998  0.25213  0.25151  1.0000
  N   N4        1.0  0.22911999999999996  0.33335999999999993  0.56475  1.0000
  N   N5        1.0  0.65323  0.82873  0.07821  1.0000
  N   N6        1.0  0.7772000000000001  0.8850099999999999  0.73587  1.0000
  N   N7        1.0  0.74829  0.17808999999999997  0.74854  1.0000
  N   N8        1.0  0.66585  0.76928  0.4351900000000001  1.0000
  O   O1        1.0  0.78203  0.57893  0.25162000000000007  1.0000
  O   O2        1.0  0.84538  0.57167  0.10102  1.0000
  O   O3        1.0  0.9529199999999999  0.36335  0.14481  1.0000
  O   O4        1.0  0.52035  0.8083899999999999  0.19887  1.0000
  O   O5        1.0  0.51174  0.7809699999999999  0.31212  1.0000
  O   O6        1.0  0.8031300000000001  0.8278199999999999  0.19862000000000002  1.0000
  O   O7        1.0  0.7331300000000001  0.8688  0.30736  1.0000
  O   O8        1.0  0.91865  0.38508  0.36931  1.0000
  O   O9        1.0  0.9139199999999998  0.5873699999999998  0.37986  1.0000
  O   O10       1.0  0.42143  0.21904  0.7479300000000001  1.0000
  O   O11       1.0  0.43061999999999995  0.15711  0.8985500000000001  1.0000
  O   O12       1.0  0.63717  0.04753  0.85332  1.0000
  O   O13       1.0  0.19592999999999997  0.48152  0.80063  1.0000
  O   O14       1.0  0.22034  0.48817  0.68703  1.0000
  O   O15       1.0  0.17057000000000005  0.20256999999999997  0.8012000000000001  1.0000
  O   O16       1.0  0.13465  0.26252  0.69088  1.0000
  O   O17       1.0  0.61271  0.08181  0.6304300000000002  1.0000
  O   O18       1.0  0.41216  0.083  0.62021  1.0000
