data_image0
_chemical_formula_structural       Mg3H48C78N2O12
_chemical_formula_sum              "Mg3 H48 C78 N2 O12"
_cell_length_a       8.42055
_cell_length_b       12.82357
_cell_length_c       20.93181
_cell_angle_alpha    73.68538
_cell_angle_beta     84.46681000000001
_cell_angle_gamma    77.68131

_symmetry_space_group_name_H-M    'P 1'
_symmetry_Int_Tables_number       1

loop_
  _symmetry_equiv_pos_as_xyz
  'x,y,z'

loop_
  _atom_site_type_symbol
  _atom_site_label
  _atom_site_symmetry_multiplicity
  _atom_site_fract_x
  _atom_site_fract_y
  _atom_site_fract_z
  _atom_site_occupancy
  Mg  Mg1       1.0  0.4043200000000001  0.8486899999999999  0.9998100000000001  1.0000
  Mg  Mg2       1.0  0.59568  0.15131  0.00019  1.0000
  Mg  Mg3       1.0  0.0  0.0  0.0  1.0000
  H   H1        1.0  0.58858  0.05876999999999999  0.18387  1.0000
  H   H2        1.0  0.35162000000000015  0.73406  0.30959  1.0000
  H   H3        1.0  0.343  0.79658  0.18642  1.0000
  H   H4        1.0  0.16456  0.6956699999999999  0.74071  1.0000
  H   H5        1.0  0.9271099999999999  0.54163  0.74801  1.0000
  H   H6        1.0  0.6196000000000002  0.9872199999999998  0.30567  1.0000
  H   H7        1.0  0.03235000000000002  0.78922  0.62813  1.0000
  H   H8        1.0  0.64495  0.8026  0.77713  1.0000
  H   H9        1.0  0.14927000000000004  0.14569  0.85721  1.0000
  H   H10       1.0  0.4722299999999999  0.7423699999999998  0.7109  1.0000
  H   H11       1.0  0.45024  0.40621  0.77913  1.0000
  H   H12       1.0  0.3173  0.7160899999999999  0.8312800000000001  1.0000
  H   H13       1.0  0.93237  0.9804099999999998  0.86212  1.0000
  H   H14       1.0  0.6353899999999999  0.52194  0.70988  1.0000
  H   H15       1.0  0.07825000000000003  0.5592  0.63609  1.0000
  H   H16       1.0  0.32226  0.25917  0.77762  1.0000
  H   H17       1.0  0.26210000000000006  0.67773  0.56732  1.0000
  H   H18       1.0  0.57175  0.5647199999999999  0.5109  1.0000
  H   H19       1.0  0.7763999999999999  0.95534  0.77513  1.0000
  H   H20       1.0  0.75631  0.4282000000000001  0.83156  1.0000
  H   H21       1.0  0.5273699999999999  0.8953599999999999  0.529  1.0000
  H   H22       1.0  0.86005  0.7270499999999999  0.5619  1.0000
  H   H23       1.0  0.49033  0.97023  0.40732  1.0000
  H   H24       1.0  0.53931  0.6383499999999998  0.38915  1.0000
  H   H25       1.0  0.41142000000000006  0.9412299999999999  0.8161300000000001  1.0000
  H   H26       1.0  0.64838  0.2659500000000001  0.69042  1.0000
  H   H27       1.0  0.6570099999999999  0.2034199999999999  0.8135800000000001  1.0000
  H   H28       1.0  0.83545  0.30434  0.2593  1.0000
  H   H29       1.0  0.07289  0.45837  0.252  1.0000
  H   H30       1.0  0.3804  0.012780000000000017  0.69434  1.0000
  H   H31       1.0  0.9676599999999999  0.21079  0.37187  1.0000
  H   H32       1.0  0.35505  0.19740999999999997  0.22287  1.0000
  H   H33       1.0  0.8507399999999999  0.85431  0.14279  1.0000
  H   H34       1.0  0.5277700000000001  0.25763  0.28911  1.0000
  H   H35       1.0  0.5497599999999999  0.5937900000000003  0.22087  1.0000
  H   H36       1.0  0.68271  0.28391  0.16872  1.0000
  H   H37       1.0  0.06764000000000002  0.019589999999999993  0.13788  1.0000
  H   H38       1.0  0.36462  0.47806  0.29013  1.0000
  H   H39       1.0  0.92175  0.4408  0.36391  1.0000
  H   H40       1.0  0.6777400000000005  0.74083  0.22238  1.0000
  H   H41       1.0  0.7379  0.32227  0.43268  1.0000
  H   H42       1.0  0.4282500000000002  0.43528  0.48911  1.0000
  H   H43       1.0  0.2236  0.04466999999999999  0.22487  1.0000
  H   H44       1.0  0.2437  0.5717999999999998  0.16844  1.0000
  H   H45       1.0  0.47264000000000006  0.10464  0.471  1.0000
  H   H46       1.0  0.13996  0.2729500000000001  0.43811  1.0000
  H   H47       1.0  0.50968  0.02976999999999999  0.59268  1.0000
  H   H48       1.0  0.4607  0.36165  0.61085  1.0000
  C   C1        1.0  0.54019  0.98624  0.21148  1.0000
  C   C2        1.0  0.46702  0.93098  0.17698  1.0000
  C   C3        1.0  0.40735  0.80352  0.28211  1.0000
  C   C4        1.0  0.39988  0.83953  0.21306  1.0000
  C   C5        1.0  0.8452600000000002  0.21321999999999994  0.90253  1.0000
  C   C6        1.0  0.48941  0.8544399999999999  0.31675  1.0000
  C   C7        1.0  0.11398000000000003  0.75821  0.76704  1.0000
  C   C8        1.0  0.95688  0.8222299999999999  0.75306  1.0000
  C   C9        1.0  0.24888999999999997  0.47497999999999996  0.71333  1.0000
  C   C10       1.0  0.9756500000000001  0.45475000000000004  0.77146  1.0000
  C   C11       1.0  0.9419500000000002  0.2803400000000001  0.8500499999999999  1.0000
  C   C12       1.0  0.22431000000000004  0.84837  0.9106  1.0000
  C   C13       1.0  0.85267  0.7984599999999998  0.70812  1.0000
  C   C14       1.0  0.46703  0.9662199999999999  0.10253  1.0000
  C   C15       1.0  0.13288000000000016  0.84619  0.8542299999999999  1.0000
  C   C16       1.0  0.4601800000000001  0.6102299999999998  0.63447  1.0000
  C   C17       1.0  0.55434  0.94708  0.28018  1.0000
  C   C18       1.0  0.9096300000000004  0.77901  0.64636  1.0000
  C   C19       1.0  0.69199  0.7871799999999999  0.72969  1.0000
  C   C20       1.0  0.13826  0.40835  0.75743  1.0000
  C   C21       1.0  0.10154  0.23257  0.83391  1.0000
  C   C22       1.0  0.5950199999999999  0.75259  0.69273  1.0000
  C   C23       1.0  0.4088200000000001  0.4648  0.73239  1.0000
  C   C24       1.0  0.19958000000000006  0.76906  0.8176799999999999  1.0000
  C   C25       1.0  0.98176  0.9161399999999998  0.83698  1.0000
  C   C26       1.0  0.5496  0.72537  0.52797  1.0000
  C   C27       1.0  0.5132099999999999  0.5303100000000001  0.69364  1.0000
  C   C28       1.0  0.20003000000000018  0.55103  0.65258  1.0000
  C   C29       1.0  0.6564999999999999  0.7269800000000001  0.63293  1.0000
  C   C30       1.0  0.19833999999999996  0.29638  0.78893  1.0000
  C   C31       1.0  0.3031300000000002  0.6180199999999998  0.61369  1.0000
  C   C32       1.0  0.55238  0.65354  0.48792  1.0000
  C   C33       1.0  0.8949000000000001  0.9029899999999997  0.78741  1.0000
  C   C34       1.0  0.8795500000000002  0.39175  0.81815  1.0000
  C   C35       1.0  0.51002  0.8103  0.38912  1.0000
  C   C36       1.0  0.53018  0.8396899999999999  0.49798000000000003  1.0000
  C   C37       1.0  0.81353  0.74368  0.60911  1.0000
  C   C38       1.0  0.5108400000000001  0.88112  0.4296499999999999  1.0000
  C   C39       1.0  0.53227  0.69552  0.41966  1.0000
  C   C40       1.0  0.45982  0.013760000000000014  0.78852  1.0000
  C   C41       1.0  0.5329800000000002  0.06902999999999998  0.82303  1.0000
  C   C42       1.0  0.59265  0.19648  0.7179  1.0000
  C   C43       1.0  0.6001300000000003  0.16046999999999995  0.78695  1.0000
  C   C44       1.0  0.15475  0.78679  0.09747  1.0000
  C   C45       1.0  0.5106  0.14556  0.68325  1.0000
  C   C46       1.0  0.8860300000000001  0.24178999999999998  0.23296  1.0000
  C   C47       1.0  0.04313000000000001  0.17776999999999996  0.24694  1.0000
  C   C48       1.0  0.75112  0.52503  0.28667  1.0000
  C   C49       1.0  0.024360000000000007  0.54526  0.22854  1.0000
  C   C50       1.0  0.05805000000000002  0.7196599999999999  0.14995  1.0000
  C   C51       1.0  0.7757000000000002  0.15162999999999993  0.0894  1.0000
  C   C52       1.0  0.14733999999999997  0.20155000000000006  0.29189  1.0000
  C   C53       1.0  0.53297  0.033780000000000004  0.89747  1.0000
  C   C54       1.0  0.86713  0.15380999999999995  0.14578  1.0000
  C   C55       1.0  0.53983  0.38978  0.36553  1.0000
  C   C56       1.0  0.44567000000000007  0.05291999999999997  0.71982  1.0000
  C   C57       1.0  0.09036999999999998  0.22099  0.35364  1.0000
  C   C58       1.0  0.30802  0.21281999999999998  0.27032  1.0000
  C   C59       1.0  0.8617500000000001  0.5916599999999999  0.24257000000000004  1.0000
  C   C60       1.0  0.8984700000000001  0.76743  0.16609  1.0000
  C   C61       1.0  0.40499  0.24741  0.30727  1.0000
  C   C62       1.0  0.59118  0.5352  0.26761  1.0000
  C   C63       1.0  0.8004300000000002  0.23094  0.18232  1.0000
  C   C64       1.0  0.018240000000000003  0.08386000000000002  0.16303  1.0000
  C   C65       1.0  0.45041  0.27463  0.47203  1.0000
  C   C66       1.0  0.48680000000000007  0.46969  0.30636  1.0000
  C   C67       1.0  0.7999700000000001  0.44897  0.34742  1.0000
  C   C68       1.0  0.3435000000000002  0.27302000000000004  0.36708  1.0000
  C   C69       1.0  0.8016600000000002  0.70362  0.21108000000000002  1.0000
  C   C70       1.0  0.69687  0.38198000000000004  0.38631  1.0000
  C   C71       1.0  0.44763000000000014  0.34646  0.51208  1.0000
  C   C72       1.0  0.10511  0.09701  0.21259  1.0000
  C   C73       1.0  0.12046000000000005  0.60825  0.18185  1.0000
  C   C74       1.0  0.48998  0.18971000000000002  0.61088  1.0000
  C   C75       1.0  0.46983000000000014  0.16030999999999995  0.50202  1.0000
  C   C76       1.0  0.18646999999999997  0.25633000000000006  0.39089  1.0000
  C   C77       1.0  0.48917000000000005  0.11888000000000001  0.57036  1.0000
  C   C78       1.0  0.4677299999999999  0.3044800000000001  0.58035  1.0000
  N   N1        1.0  0.5625000000000001  0.68284  0.59798  1.0000
  N   N2        1.0  0.43751000000000007  0.31715999999999994  0.40202  1.0000
  O   O1        1.0  0.35420000000000007  0.7782099999999998  0.92687  1.0000
  O   O2        1.0  0.17553000000000002  0.92352  0.94382  1.0000
  O   O3        1.0  0.7143200000000001  0.2592399999999999  0.9268100000000001  1.0000
  O   O4        1.0  0.90239  0.10742999999999994  0.9213300000000001  1.0000
  O   O5        1.0  0.4536700000000001  0.06901  0.07321  1.0000
  O   O6        1.0  0.48373  0.88883  0.07382  1.0000
  O   O7        1.0  0.6458  0.22179  0.07314  1.0000
  O   O8        1.0  0.82447  0.07648  0.05618  1.0000
  O   O9        1.0  0.28568999999999994  0.74076  0.07319  1.0000
  O   O10       1.0  0.09761999999999997  0.89257  0.07867  1.0000
  O   O11       1.0  0.5463400000000002  0.9309999999999999  0.9267900000000001  1.0000
  O   O12       1.0  0.5162699999999999  0.11117000000000002  0.92618  1.0000
