data_image0
_chemical_formula_structural       Zn8H24C32O40
_chemical_formula_sum              "Zn8 H24 C32 O40"
_cell_length_a       10.0309
_cell_length_b       9.966729999999998
_cell_length_c       13.44102
_cell_angle_alpha    87.63244
_cell_angle_beta     87.96804
_cell_angle_gamma    83.41002

_symmetry_space_group_name_H-M    'P 1'
_symmetry_Int_Tables_number       1

loop_
  _symmetry_equiv_pos_as_xyz
  'x,y,z'

loop_
  _atom_site_type_symbol
  _atom_site_label
  _atom_site_symmetry_multiplicity
  _atom_site_fract_x
  _atom_site_fract_y
  _atom_site_fract_z
  _atom_site_occupancy
  Zn  Zn1       1.0  0.7242700000000002  0.7185399999999998  0.7079399999999998  1.0000
  Zn  Zn2       1.0  0.27844  0.27596  0.7876899999999999  1.0000
  Zn  Zn3       1.0  0.28213000000000005  0.28214  0.2921  1.0000
  Zn  Zn4       1.0  0.7181500000000002  0.71745  0.21236999999999995  1.0000
  Zn  Zn5       1.0  0.50178  0.54282  0.016619999999999996  1.0000
  Zn  Zn6       1.0  0.45615  0.4995  0.48729999999999996  1.0000
  Zn  Zn7       1.0  0.9472300000000001  0.0437  0.74755  1.0000
  Zn  Zn8       1.0  0.05611000000000001  0.95073  0.25262  1.0000
  H   H1        1.0  0.91098  0.44015999999999994  0.84251  1.0000
  H   H2        1.0  0.91303  0.61369  0.86036  1.0000
  H   H3        1.0  0.89525  0.38896  0.0237  1.0000
  H   H4        1.0  0.55021  0.89935  0.8426799999999998  1.0000
  H   H5        1.0  0.66084  0.8383899999999999  0.93721  1.0000
  H   H6        1.0  0.62688  0.07439  0.011299999999999996  1.0000
  H   H7        1.0  0.56303  0.08767  0.65814  1.0000
  H   H8        1.0  0.38975000000000004  0.08657000000000001  0.6413199999999998  1.0000
  H   H9        1.0  0.61172  0.10218  0.47784  1.0000
  H   H10       1.0  0.10071000000000001  0.44603  0.6614199999999999  1.0000
  H   H11       1.0  0.16549000000000003  0.33986  0.56566  1.0000
  H   H12       1.0  0.92851  0.37219  0.49067  1.0000
  H   H13       1.0  0.07525000000000001  0.53732  0.16296  1.0000
  H   H14       1.0  0.09396000000000002  0.36342  0.13911999999999997  1.0000
  H   H15       1.0  0.09575000000000003  0.59548  0.9799599999999999  1.0000
  H   H16       1.0  0.45604  0.10166999999999998  0.16142  1.0000
  H   H17       1.0  0.34714  0.17212  0.06845  1.0000
  H   H18       1.0  0.36870000000000014  0.9403499999999999  0.98835  1.0000
  H   H19       1.0  0.46237  0.9275199999999999  0.33651  1.0000
  H   H20       1.0  0.63447  0.9069799999999999  0.36341  1.0000
  H   H21       1.0  0.3999400000000001  0.90689  0.5181799999999999  1.0000
  H   H22       1.0  0.90179  0.54505  0.3399399999999999  1.0000
  H   H23       1.0  0.82951  0.6509  0.43365  1.0000
  H   H24       1.0  0.06254  0.63168  0.51327  1.0000
  C   C1        1.0  0.7222000000000001  0.5415699999999999  0.8910099999999997  1.0000
  C   C2        1.0  0.87346  0.52244  0.8918199999999997  1.0000
  C   C3        1.0  0.92  0.48958  0.99896  1.0000
  C   C4        1.0  0.8470800000000002  0.59209  0.06944999999999998  1.0000
  C   C5        1.0  0.74233  0.96927  0.8357399999999999  1.0000
  C   C6        1.0  0.6219299999999999  0.93063  0.89466  1.0000
  C   C7        1.0  0.55263  0.036080000000000015  0.9651099999999998  1.0000
  C   C8        1.0  0.47684000000000004  0.15709  0.9089199999999998  1.0000
  C   C9        1.0  0.4615600000000001  0.27779  0.6087499999999999  1.0000
  C   C10       1.0  0.48025  0.12581  0.60936  1.0000
  C   C11       1.0  0.51092  0.07996000000000002  0.50224  1.0000
  C   C12       1.0  0.4109300000000001  0.15551  0.43134  1.0000
  C   C13       1.0  0.03624  0.25026000000000004  0.66372  1.0000
  C   C14       1.0  0.07245000000000004  0.3749699999999999  0.6074499999999999  1.0000
  C   C15       1.0  0.9674  0.44616  0.53693  1.0000
  C   C16       1.0  0.8485500000000002  0.5223599999999999  0.59354  1.0000
  C   C17       1.0  0.2718000000000001  0.46247999999999995  0.11271999999999997  1.0000
  C   C18       1.0  0.12152000000000002  0.46175999999999995  0.11096  1.0000
  C   C19       1.0  0.07229000000000001  0.49443  0.004889999999999999  1.0000
  C   C20       1.0  0.14623999999999998  0.39332  0.9340899999999999  1.0000
  C   C21       1.0  0.26102  0.03859  0.16788999999999996  1.0000
  C   C22       1.0  0.3817  0.07678  0.10887  1.0000
  C   C23       1.0  0.44560999999999995  0.97311  0.034929999999999996  1.0000
  C   C24       1.0  0.51685  0.84738  0.08683  1.0000
  C   C25       1.0  0.53483  0.72902  0.38856  1.0000
  C   C26       1.0  0.53597  0.87984  0.38964  1.0000
  C   C27       1.0  0.50181  0.9278999999999998  0.49552  1.0000
  C   C28       1.0  0.5996100000000001  0.8515199999999999  0.56763  1.0000
  C   C29       1.0  0.9593500000000005  0.7432099999999998  0.33532  1.0000
  C   C30       1.0  0.92478  0.61932  0.3934699999999999  1.0000
  C   C31       1.0  0.02933000000000001  0.55457  0.46689999999999987  1.0000
  C   C32       1.0  0.15318  0.48349999999999993  0.4141299999999999  1.0000
  O   O1        1.0  0.65399  0.62003  0.8307699999999999  1.0000
  O   O2        1.0  0.6661100000000001  0.47314  0.96124  1.0000
  O   O3        1.0  0.83356  0.71578  0.04482999999999999  1.0000
  O   O4        1.0  0.8009  0.54664  0.1545  1.0000
  O   O5        1.0  0.7942100000000001  0.89385  0.76476  1.0000
  O   O6        1.0  0.79992  0.07278  0.8548099999999998  1.0000
  O   O7        1.0  0.47914000000000007  0.27338  0.93928  1.0000
  O   O8        1.0  0.40704999999999997  0.1262  0.8352699999999997  1.0000
  O   O9        1.0  0.20217000000000002  0.8742099999999999  0.8143599999999998  1.0000
  O   O10       1.0  0.07979000000000006  0.8924199999999999  0.8357999999999998  1.0000
  O   O11       1.0  0.37967  0.34686  0.66545  1.0000
  O   O12       1.0  0.53231  0.33405  0.53997  1.0000
  O   O13       1.0  0.28766  0.17256  0.45535  1.0000
  O   O14       1.0  0.45666000000000007  0.19946999999999995  0.3460399999999999  1.0000
  O   O15       1.0  0.11387000000000001  0.19337  0.73175  1.0000
  O   O16       1.0  0.93147  0.19491999999999998  0.64473  1.0000
  O   O17       1.0  0.7315599999999999  0.51974  0.5656099999999998  1.0000
  O   O18       1.0  0.8806  0.59428  0.66555  1.0000
  O   O19       1.0  0.20106  0.8674  0.6800599999999998  1.0000
  O   O20       1.0  0.07853000000000003  0.88544  0.6647199999999998  1.0000
  O   O21       1.0  0.34673  0.39341  0.17442999999999995  1.0000
  O   O22       1.0  0.31899000000000005  0.54008  0.04469  1.0000
  O   O23       1.0  0.16534999999999997  0.27019999999999994  0.96001  1.0000
  O   O24       1.0  0.1865  0.44017999999999996  0.84816  1.0000
  O   O25       1.0  0.20755  0.11326999999999998  0.23854  1.0000
  O   O26       1.0  0.20638000000000004  0.93273  0.14958  1.0000
  O   O27       1.0  0.5073000000000001  0.7338399999999999  0.05024999999999999  1.0000
  O   O28       1.0  0.58775  0.8664699999999999  0.16090999999999994  1.0000
  O   O29       1.0  0.8050200000000001  0.12586  0.18612  1.0000
  O   O30       1.0  0.92761  0.10652  0.16483999999999993  1.0000
  O   O31       1.0  0.60662  0.65275  0.32982  1.0000
  O   O32       1.0  0.45456000000000013  0.68296  0.45498  1.0000
  O   O33       1.0  0.7231899999999999  0.83461  0.54455  1.0000
  O   O34       1.0  0.5529100000000001  0.8072999999999999  0.6520999999999998  1.0000
  O   O35       1.0  0.87943  0.80076  0.26925999999999994  1.0000
  O   O36       1.0  0.06768  0.79501  0.35051  1.0000
  O   O37       1.0  0.26695  0.49218999999999996  0.44987999999999995  1.0000
  O   O38       1.0  0.13285  0.41313  0.33999  1.0000
  O   O39       1.0  0.80345  0.12651  0.32046  1.0000
  O   O40       1.0  0.9254400000000002  0.10631999999999998  0.33863999999999994  1.0000
