data_image0
_chemical_formula_structural       Mn6H22C54O36
_chemical_formula_sum              "Mn6 H22 C54 O36"
_cell_length_a       9.56398
_cell_length_b       12.81536
_cell_length_c       14.33377
_cell_angle_alpha    89.97359000000002
_cell_angle_beta     111.83967
_cell_angle_gamma    89.9924

_symmetry_space_group_name_H-M    'P 1'
_symmetry_Int_Tables_number       1

loop_
  _symmetry_equiv_pos_as_xyz
  'x,y,z'

loop_
  _atom_site_type_symbol
  _atom_site_label
  _atom_site_symmetry_multiplicity
  _atom_site_fract_x
  _atom_site_fract_y
  _atom_site_fract_z
  _atom_site_occupancy
  Mn  Mn1       1.0  0.56383  0.73995  0.1484  1.0000
  Mn  Mn2       1.0  0.4350599999999999  0.73908  0.34843999999999997  1.0000
  Mn  Mn3       1.0  0.4393  0.25904  0.85164  1.0000
  Mn  Mn4       1.0  0.5633899999999998  0.26061  0.6489799999999999  1.0000
  Mn  Mn5       1.0  0.50088  0.49989  0.99905  1.0000
  Mn  Mn6       1.0  0.49887  0.49986999999999987  0.4988499999999999  1.0000
  H   H1        1.0  0.11958999999999997  0.15809999999999996  0.13003999999999996  1.0000
  H   H2        1.0  0.04661  0.70243  0.13144  1.0000
  H   H3        1.0  0.24905  0.40344  0.12105  1.0000
  H   H4        1.0  0.81085  0.41808999999999996  0.13952  1.0000
  H   H5        1.0  0.52643  0.06409  0.10629999999999999  1.0000
  H   H6        1.0  0.8802  0.15808999999999998  0.37138999999999994  1.0000
  H   H7        1.0  0.9531200000000001  0.7023699999999999  0.36661  1.0000
  H   H8        1.0  0.75127  0.40411  0.38016  1.0000
  H   H9        1.0  0.18733  0.41724  0.35825  1.0000
  H   H10       1.0  0.47509  0.06413  0.39322999999999997  1.0000
  H   H11       1.0  0.8780300000000001  0.83847  0.87132  1.0000
  H   H12       1.0  0.95706  0.29578  0.86744  1.0000
  H   H13       1.0  0.7543199999999999  0.5939  0.8797399999999999  1.0000
  H   H14       1.0  0.1918799999999999  0.58095  0.8601399999999998  1.0000
  H   H15       1.0  0.47319  0.93578  0.89168  1.0000
  H   H16       1.0  0.11942999999999998  0.84153  0.6291  1.0000
  H   H17       1.0  0.04575999999999997  0.29746  0.6321599999999999  1.0000
  H   H18       1.0  0.24671  0.5961399999999999  0.61903  1.0000
  H   H19       1.0  0.80964  0.58211  0.63929  1.0000
  H   H20       1.0  0.5223499999999999  0.9355399999999999  0.6040799999999997  1.0000
  H   H21       1.0  0.50047  0.35429  0.2496  1.0000
  H   H22       1.0  0.4988899999999999  0.64548  0.7485399999999998  1.0000
  C   C1        1.0  0.9133900000000001  0.56696  0.13216  1.0000
  C   C2        1.0  0.04208999999999999  0.6175999999999999  0.13018  1.0000
  C   C3        1.0  0.16308  0.55803  0.12723  1.0000
  C   C4        1.0  0.15537  0.44836  0.12565  1.0000
  C   C5        1.0  0.028850000000000015  0.39827  0.13075  1.0000
  C   C6        1.0  0.90779  0.45770999999999995  0.13403  1.0000
  C   C7        1.0  0.78521  0.6286599999999999  0.13684  1.0000
  C   C8        1.0  0.2976  0.60754  0.11709  1.0000
  C   C9        1.0  0.013939999999999989  0.28283  0.13098999999999997  1.0000
  C   C10       1.0  0.51488  0.10663999999999997  0.16869  1.0000
  C   C11       1.0  0.51187  0.21583  0.1678  1.0000
  C   C12       1.0  0.51503  0.27655  0.07949  1.0000
  C   C13       1.0  0.08557999999999993  0.56648  0.3653899999999999  1.0000
  C   C14       1.0  0.9575399999999998  0.61753  0.36804  1.0000
  C   C15       1.0  0.83695  0.55828  0.3721  1.0000
  C   C16       1.0  0.8444900000000001  0.44862  0.3744  1.0000
  C   C17       1.0  0.97038  0.39814  0.36888999999999994  1.0000
  C   C18       1.0  0.09088999999999998  0.45716  0.36418999999999996  1.0000
  C   C19       1.0  0.21405999999999997  0.6273199999999999  0.35995999999999995  1.0000
  C   C20       1.0  0.70275  0.60786  0.3825599999999999  1.0000
  C   C21       1.0  0.9856999999999999  0.28276  0.37059  1.0000
  C   C22       1.0  0.48646000000000006  0.10662  0.33071  1.0000
  C   C23       1.0  0.48951999999999996  0.21582  0.33154  1.0000
  C   C24       1.0  0.4877699999999999  0.27647  0.42026999999999987  1.0000
  C   C25       1.0  0.08957999999999992  0.4318099999999999  0.86664  1.0000
  C   C26       1.0  0.96119  0.38059999999999994  0.8687899999999997  1.0000
  C   C27       1.0  0.84033  0.43974  0.8724999999999999  1.0000
  C   C28       1.0  0.84781  0.54928  0.87453  1.0000
  C   C29       1.0  0.9738899999999999  0.59986  0.86939  1.0000
  C   C30       1.0  0.09495999999999992  0.5410299999999999  0.8653999999999998  1.0000
  C   C31       1.0  0.21828  0.37085  0.86193  1.0000
  C   C32       1.0  0.70562  0.3912199999999999  0.8831499999999999  1.0000
  C   C33       1.0  0.98707  0.71533  0.87051  1.0000
  C   C34       1.0  0.48444999999999994  0.89328  0.8291599999999998  1.0000
  C   C35       1.0  0.48790999999999995  0.7840299999999999  0.83029  1.0000
  C   C36       1.0  0.48716000000000004  0.7235  0.91949  1.0000
  C   C37       1.0  0.91251  0.43318  0.63286  1.0000
  C   C38       1.0  0.04104  0.3823  0.63059  1.0000
  C   C39       1.0  0.16127999999999992  0.44165999999999994  0.6262299999999997  1.0000
  C   C40       1.0  0.15354999999999994  0.55127  0.62442  1.0000
  C   C41       1.0  0.02745000000000004  0.60156  0.62994  1.0000
  C   C42       1.0  0.9067000000000001  0.54238  0.63402  1.0000
  C   C43       1.0  0.78464  0.37167  0.63817  1.0000
  C   C44       1.0  0.29489999999999994  0.39250999999999997  0.6144299999999999  1.0000
  C   C45       1.0  0.012919999999999996  0.71704  0.62916  1.0000
  C   C46       1.0  0.5113499999999999  0.89312  0.6667299999999999  1.0000
  C   C47       1.0  0.5084399999999999  0.7839099999999998  0.6659599999999998  1.0000
  C   C48       1.0  0.51098  0.72333  0.57735  1.0000
  C   C49       1.0  0.50066  0.05203999999999999  0.24971  1.0000
  C   C50       1.0  0.50053  0.26961999999999997  0.24961  1.0000
  C   C51       1.0  0.50096  0.93531  0.2498  1.0000
  C   C52       1.0  0.4981300000000001  0.94782  0.74794  1.0000
  C   C53       1.0  0.4984099999999999  0.7301599999999998  0.7482499999999997  1.0000
  C   C54       1.0  0.49941  0.06452  0.7481399999999999  1.0000
  O   O1        1.0  0.65937  0.58151  0.12553  1.0000
  O   O2        1.0  0.79763  0.72555  0.15451  1.0000
  O   O3        1.0  0.3618  0.68696  0.1703  1.0000
  O   O4        1.0  0.33893  0.56659  0.05086  1.0000
  O   O5        1.0  0.13655  0.23287  0.12538  1.0000
  O   O6        1.0  0.90367  0.23754  0.13462  1.0000
  O   O7        1.0  0.43618  0.88944  0.3017499999999999  1.0000
  O   O8        1.0  0.52063  0.22736  0.00433  1.0000
  O   O9        1.0  0.50751  0.3763  0.08726999999999997  1.0000
  O   O10       1.0  0.33892999999999995  0.57903  0.37065999999999993  1.0000
  O   O11       1.0  0.20259999999999995  0.7244099999999998  0.34248999999999996  1.0000
  O   O12       1.0  0.63842  0.6870799999999998  0.3292  1.0000
  O   O13       1.0  0.6616399999999999  0.56672  0.44890999999999986  1.0000
  O   O14       1.0  0.86208  0.2329  0.37461  1.0000
  O   O15       1.0  0.09762  0.23730999999999997  0.36986  1.0000
  O   O16       1.0  0.5659899999999999  0.88947  0.19794  1.0000
  O   O17       1.0  0.48562999999999995  0.22728999999999996  0.4962999999999999  1.0000
  O   O18       1.0  0.49313  0.37631  0.4118999999999999  1.0000
  O   O19       1.0  0.3428499999999998  0.4187499999999999  0.8713899999999998  1.0000
  O   O20       1.0  0.20820000000000008  0.27344  0.84644  1.0000
  O   O21       1.0  0.6389399999999997  0.31266999999999995  0.8294999999999998  1.0000
  O   O22       1.0  0.66593  0.4331499999999999  0.94974  1.0000
  O   O23       1.0  0.86218  0.7633699999999999  0.8746699999999997  1.0000
  O   O24       1.0  0.09740999999999986  0.7623499999999999  0.8691999999999998  1.0000
  O   O25       1.0  0.56179  0.11011  0.69453  1.0000
  O   O26       1.0  0.48552000000000006  0.77278  0.99564  1.0000
  O   O27       1.0  0.4928  0.62366  0.91159  1.0000
  O   O28       1.0  0.6580299999999998  0.4185  0.6256599999999998  1.0000
  O   O29       1.0  0.79769  0.27497  0.6573  1.0000
  O   O30       1.0  0.36145  0.31388  0.66771  1.0000
  O   O31       1.0  0.33311  0.4335699999999999  0.54665  1.0000
  O   O32       1.0  0.13685  0.76672  0.62528  1.0000
  O   O33       1.0  0.9017499999999999  0.7627999999999998  0.63069  1.0000
  O   O34       1.0  0.43797  0.11049999999999997  0.80212  1.0000
  O   O35       1.0  0.51323  0.77236  0.5011799999999998  1.0000
  O   O36       1.0  0.5066  0.62343  0.58617  1.0000
