data_image0
_chemical_formula_structural       Ni6H24C72O52
_chemical_formula_sum              "Ni6 H24 C72 O52"
_cell_length_a       10.55908
_cell_length_b       13.431690000000001
_cell_length_c       18.50561
_cell_angle_alpha    89.95274999999998
_cell_angle_beta     96.53195
_cell_angle_gamma    89.96380000000002

_symmetry_space_group_name_H-M    'P 1'
_symmetry_Int_Tables_number       1

loop_
  _symmetry_equiv_pos_as_xyz
  'x,y,z'

loop_
  _atom_site_type_symbol
  _atom_site_label
  _atom_site_symmetry_multiplicity
  _atom_site_fract_x
  _atom_site_fract_y
  _atom_site_fract_z
  _atom_site_occupancy
  Ni  Ni1       1.0  0.4151  0.27888  0.5255400000000001  1.0000
  Ni  Ni2       1.0  0.58615  0.7800100000000002  0.97284  1.0000
  Ni  Ni3       1.0  0.58771  0.71794  0.47451999999999994  1.0000
  Ni  Ni4       1.0  0.41599  0.21861  0.027180000000000003  1.0000
  Ni  Ni5       1.0  0.50212  0.9992000000000001  0.00018  1.0000
  Ni  Ni6       1.0  0.5025  0.4977900000000001  0.49986  1.0000
  H   H1        1.0  0.37675  0.20693  0.23304000000000002  1.0000
  H   H2        1.0  0.55258  0.9173000000000002  0.22407000000000002  1.0000
  H   H3        1.0  0.48207  0.042770000000000016  0.43125  1.0000
  H   H4        1.0  0.09066000000000002  0.9119200000000002  0.98089  1.0000
  H   H5        1.0  0.8801100000000001  0.63804  0.9398800000000002  1.0000
  H   H6        1.0  0.28974  0.6386300000000001  0.9451  1.0000
  H   H7        1.0  0.62507  0.70923  0.26671  1.0000
  H   H8        1.0  0.44778  0.42029  0.27645  1.0000
  H   H9        1.0  0.52124  0.5437700000000001  0.06911  1.0000
  H   H10       1.0  0.90886  0.40724000000000005  0.51511  1.0000
  H   H11       1.0  0.12406000000000002  0.13592  0.5585000000000001  1.0000
  H   H12       1.0  0.7145200000000002  0.13302000000000003  0.5544300000000001  1.0000
  H   H13       1.0  0.62581  0.7905600000000003  0.7668100000000001  1.0000
  H   H14       1.0  0.44752  0.07936  0.77551  1.0000
  H   H15       1.0  0.5206  0.9547700000000002  0.56856  1.0000
  H   H16       1.0  0.91102  0.08801  0.01893  1.0000
  H   H17       1.0  0.12265000000000002  0.36132000000000003  0.06027  1.0000
  H   H18       1.0  0.71303  0.36182000000000003  0.05489  1.0000
  H   H19       1.0  0.37759  0.28925  0.73408  1.0000
  H   H20       1.0  0.55327  0.57849  0.7224  1.0000
  H   H21       1.0  0.48175000000000007  0.45718  0.9306699999999999  1.0000
  H   H22       1.0  0.09258  0.5887  0.48500000000000004  1.0000
  H   H23       1.0  0.88085  0.8617100000000002  0.4411900000000001  1.0000
  H   H24       1.0  0.29044  0.8612600000000002  0.44571  1.0000
  C   C1        1.0  0.42355  0.13215  0.33616000000000007  1.0000
  C   C2        1.0  0.41536000000000006  0.13992000000000002  0.26042  1.0000
  C   C3        1.0  0.45971000000000006  0.061190000000000015  0.22052  1.0000
  C   C4        1.0  0.51451  0.9764700000000001  0.25553  1.0000
  C   C5        1.0  0.52208  0.9700300000000002  0.33154  1.0000
  C   C6        1.0  0.47565  0.04699000000000001  0.37228  1.0000
  C   C7        1.0  0.39195  0.22165  0.37948000000000004  1.0000
  C   C8        1.0  0.45820000000000005  0.07193  0.14019  1.0000
  C   C9        1.0  0.58923  0.8804000000000002  0.36782  1.0000
  C   C10       1.0  0.20219000000000004  0.78022  0.96392  1.0000
  C   C11       1.0  0.08830000000000002  0.8323  0.9692300000000001  1.0000
  C   C12       1.0  0.9725700000000003  0.7801000000000002  0.96089  1.0000
  C   C13       1.0  0.9703599999999999  0.67768  0.94599  1.0000
  C   C14       1.0  0.08442  0.62726  0.93987  1.0000
  C   C15       1.0  0.20057000000000003  0.67777  0.9492000000000002  1.0000
  C   C16       1.0  0.3296200000000001  0.8284800000000002  0.9763500000000002  1.0000
  C   C17       1.0  0.84798  0.83178  0.9676000000000001  1.0000
  C   C18       1.0  0.08371  0.51937  0.92713  1.0000
  C   C19       1.0  0.57883  0.63393  0.16373  1.0000
  C   C20       1.0  0.58619  0.6422400000000003  0.23952000000000004  1.0000
  C   C21       1.0  0.54115  0.56387  0.27974000000000004  1.0000
  C   C22       1.0  0.48632  0.47914000000000007  0.24488000000000001  1.0000
  C   C23       1.0  0.47984000000000004  0.4720900000000001  0.16894  1.0000
  C   C24       1.0  0.52695  0.54857  0.12802  1.0000
  C   C25       1.0  0.61126  0.72257  0.11944  1.0000
  C   C26       1.0  0.5429  0.57382  0.36028  1.0000
  C   C27       1.0  0.41342000000000007  0.3824  0.13252  1.0000
  C   C28       1.0  0.7998500000000001  0.27498  0.53368  1.0000
  C   C29       1.0  0.9126900000000001  0.32774000000000003  0.52725  1.0000
  C   C30       1.0  0.029110000000000025  0.2766  0.53552  1.0000
  C   C31       1.0  0.033070000000000016  0.17459  0.55206  1.0000
  C   C32       1.0  0.9200300000000001  0.12337000000000002  0.55943  1.0000
  C   C33       1.0  0.80296  0.17279000000000003  0.54959  1.0000
  C   C34       1.0  0.6726500000000001  0.32377  0.5217400000000001  1.0000
  C   C35       1.0  0.15248999999999996  0.32895  0.52736  1.0000
  C   C36       1.0  0.92379  0.016110000000000003  0.5752  1.0000
  C   C37       1.0  0.57914  0.8653800000000003  0.6636600000000001  1.0000
  C   C38       1.0  0.58672  0.8574500000000003  0.73943  1.0000
  C   C39       1.0  0.54123  0.93582  0.77925  1.0000
  C   C40       1.0  0.4859900000000001  0.02029  0.74417  1.0000
  C   C41       1.0  0.47897000000000006  0.026880000000000005  0.66821  1.0000
  C   C42       1.0  0.5264400000000001  0.95029  0.6275  1.0000
  C   C43       1.0  0.6121400000000001  0.7759000000000001  0.62064  1.0000
  C   C44       1.0  0.54267  0.9254400000000003  0.85962  1.0000
  C   C45       1.0  0.41288  0.11694000000000003  0.63215  1.0000
  C   C46       1.0  0.80036  0.22009  0.03572  1.0000
  C   C47       1.0  0.91406  0.16768  0.03042  1.0000
  C   C48       1.0  0.029990000000000003  0.21948000000000004  0.03877  1.0000
  C   C49       1.0  0.03234  0.32186  0.05401  1.0000
  C   C50       1.0  0.9186300000000001  0.37257  0.06051000000000001  1.0000
  C   C51       1.0  0.80211  0.32249000000000005  0.05072  1.0000
  C   C52       1.0  0.67326  0.17124  0.02356  1.0000
  C   C53       1.0  0.15477  0.16797  0.03233  1.0000
  C   C54       1.0  0.9204200000000001  0.4802900000000001  0.07441  1.0000
  C   C55       1.0  0.42407  0.36567  0.83661  1.0000
  C   C56       1.0  0.41620000000000007  0.3566400000000001  0.76083  1.0000
  C   C57       1.0  0.46069000000000004  0.43457  0.72006  1.0000
  C   C58       1.0  0.51531  0.51982  0.75437  1.0000
  C   C59       1.0  0.52227  0.52783  0.83031  1.0000
  C   C60       1.0  0.47568  0.45157  0.87177  1.0000
  C   C61       1.0  0.39268000000000003  0.27648  0.88073  1.0000
  C   C62       1.0  0.4586900000000001  0.4233800000000001  0.6395800000000001  1.0000
  C   C63       1.0  0.58853  0.61834  0.86594  1.0000
  C   C64       1.0  0.20333000000000004  0.7199700000000002  0.46614000000000005  1.0000
  C   C65       1.0  0.08976000000000002  0.66813  0.47259  1.0000
  C   C66       1.0  0.9739200000000001  0.72028  0.46409  1.0000
  C   C67       1.0  0.97129  0.82227  0.44767000000000007  1.0000
  C   C68       1.0  0.085  0.8725500000000003  0.44065  1.0000
  C   C69       1.0  0.20142000000000002  0.8222000000000003  0.45036  1.0000
  C   C70       1.0  0.33066999999999996  0.6711800000000001  0.47825999999999996  1.0000
  C   C71       1.0  0.8495200000000002  0.6696400000000002  0.47233  1.0000
  C   C72       1.0  0.08303000000000003  0.9803300000000003  0.4271200000000001  1.0000
  O   O1        1.0  0.3628100000000001  0.19806000000000007  0.44402  1.0000
  O   O2        1.0  0.40059  0.30617  0.3535  1.0000
  O   O3        1.0  0.46945000000000026  0.16314000000000006  0.12003000000000001  1.0000
  O   O4        1.0  0.45093  0.9946900000000002  0.10114  1.0000
  O   O5        1.0  0.68101  0.8476400000000002  0.33813  1.0000
  O   O6        1.0  0.5436500000000001  0.8486000000000002  0.4255500000000001  1.0000
  O   O7        1.0  0.41901  0.7666700000000002  0.99998  1.0000
  O   O8        1.0  0.3426600000000001  0.91969  0.96364  1.0000
  O   O9        1.0  0.84252  0.91847  0.98945  1.0000
  O   O10       1.0  0.75124  0.7730200000000002  0.94574  1.0000
  O   O11       1.0  0.98603  0.46950000000000003  0.90201  1.0000
  O   O12       1.0  0.18168  0.4643800000000001  0.94156  1.0000
  O   O13       1.0  0.60949  0.8949200000000003  0.02194  1.0000
  O   O14       1.0  0.63724  0.69809  0.05442  1.0000
  O   O15       1.0  0.60564  0.8075000000000002  0.14511  1.0000
  O   O16       1.0  0.53162  0.6646100000000003  0.38132000000000005  1.0000
  O   O17       1.0  0.55064  0.49586000000000013  0.3989400000000001  1.0000
  O   O18       1.0  0.31887000000000004  0.35135  0.16048  1.0000
  O   O19       1.0  0.4621700000000001  0.34860000000000013  0.07643  1.0000
  O   O20       1.0  0.58224  0.26264  0.49864  1.0000
  O   O21       1.0  0.6618400000000001  0.41523  0.5345  1.0000
  O   O22       1.0  0.15659000000000003  0.41371000000000013  0.50161  1.0000
  O   O23       1.0  0.25012  0.27295  0.55262  1.0000
  O   O24       1.0  0.025190000000000008  0.9676700000000001  0.5961700000000001  1.0000
  O   O25       1.0  0.82602  0.9597900000000003  0.56795  1.0000
  O   O26       1.0  0.39435000000000003  0.39424  0.47653  1.0000
  O   O27       1.0  0.6405400000000001  0.79853  0.55579  1.0000
  O   O28       1.0  0.6053  0.6916000000000002  0.64709  1.0000
  O   O29       1.0  0.53108  0.8342200000000002  0.87991  1.0000
  O   O30       1.0  0.55035  0.00286  0.8985500000000001  1.0000
  O   O31       1.0  0.32328000000000007  0.15216  0.6624600000000002  1.0000
  O   O32       1.0  0.4571  0.14726  0.5737  1.0000
  O   O33       1.0  0.58306  0.23250000000000007  0.00012  1.0000
  O   O34       1.0  0.66189  0.07981000000000003  0.03629  1.0000
  O   O35       1.0  0.1621  0.08129000000000003  0.01069  1.0000
  O   O36       1.0  0.2511  0.22701000000000002  0.05423  1.0000
  O   O37       1.0  0.019280000000000002  0.53004  0.09792000000000001  1.0000
  O   O38       1.0  0.82216  0.5356400000000001  0.06286000000000001  1.0000
  O   O39       1.0  0.39398000000000005  0.10332  0.9782300000000002  1.0000
  O   O40       1.0  0.36417  0.29947000000000007  0.94549  1.0000
  O   O41       1.0  0.40078  0.19191  0.85484  1.0000
  O   O42       1.0  0.46978000000000003  0.33248  0.6189  1.0000
  O   O43       1.0  0.4508  0.5006  0.60027  1.0000
  O   O44       1.0  0.67985  0.65187  0.83622  1.0000
  O   O45       1.0  0.54288  0.65028  0.9236400000000001  1.0000
  O   O46       1.0  0.42042  0.7326500000000002  0.50171  1.0000
  O   O47       1.0  0.34279000000000004  0.57999  0.4653  1.0000
  O   O48       1.0  0.8437  0.58525  0.49849000000000004  1.0000
  O   O49       1.0  0.75242  0.72622  0.44723000000000007  1.0000
  O   O50       1.0  0.9837900000000002  0.029970000000000007  0.40381  1.0000
  O   O51       1.0  0.18111  0.0356  0.43948000000000004  1.0000
  O   O52       1.0  0.6096  0.60183  0.52328  1.0000
