data_image0
_chemical_formula_structural       Cd3H32C54N2O12
_chemical_formula_sum              "Cd3 H32 C54 N2 O12"
_cell_length_a       9.41774
_cell_length_b       15.25564
_cell_length_c       15.20517
_cell_angle_alpha    70.46046
_cell_angle_beta     82.94046999999999
_cell_angle_gamma    84.95788

_symmetry_space_group_name_H-M    'P 1'
_symmetry_Int_Tables_number       1

loop_
  _symmetry_equiv_pos_as_xyz
  'x,y,z'

loop_
  _atom_site_type_symbol
  _atom_site_label
  _atom_site_symmetry_multiplicity
  _atom_site_fract_x
  _atom_site_fract_y
  _atom_site_fract_z
  _atom_site_occupancy
  Cd  Cd1       1.0  0.64688  0.72735  0.02492  1.0000
  Cd  Cd2       1.0  0.35312000000000004  0.27264999999999995  0.97508  1.0000
  Cd  Cd3       1.0  0.5  0.5  0.0  1.0000
  H   H1        1.0  0.16041  0.20411  0.89548  1.0000
  H   H2        1.0  0.08587000000000002  0.30767  0.89843  1.0000
  H   H3        1.0  0.15507999999999997  0.51004  0.59128  1.0000
  H   H4        1.0  0.30951000000000006  0.5753  0.47773  1.0000
  H   H5        1.0  0.6698499999999998  0.05917000000000005  0.87002  1.0000
  H   H6        1.0  0.39946999999999994  0.64318  0.31027  1.0000
  H   H7        1.0  0.5663  0.21661  0.78139  1.0000
  H   H8        1.0  0.41613  0.2611  0.59897  1.0000
  H   H9        1.0  0.48564  0.36884  0.29116  1.0000
  H   H10       1.0  0.26807  0.9404  0.88707  1.0000
  H   H11       1.0  0.38966  0.30025000000000013  0.45688  1.0000
  H   H12       1.0  0.08557000000000002  0.5822499999999999  0.92468  1.0000
  H   H13       1.0  0.16316  0.09679999999999998  0.79705  1.0000
  H   H14       1.0  0.71847  0.54183  0.80495  1.0000
  H   H15       1.0  0.8698799999999999  0.44993999999999995  0.71715  1.0000
  H   H16       1.0  0.23819999999999997  0.48681  0.8419299999999998  1.0000
  H   H17       1.0  0.8395899999999998  0.79588  0.10452  1.0000
  H   H18       1.0  0.91413  0.69233  0.10157  1.0000
  H   H19       1.0  0.8449200000000001  0.48996  0.40872  1.0000
  H   H20       1.0  0.6904999999999999  0.42470000000000024  0.52227  1.0000
  H   H21       1.0  0.33016  0.94083  0.12998  1.0000
  H   H22       1.0  0.60054  0.3568200000000001  0.68973  1.0000
  H   H23       1.0  0.43371000000000004  0.78338  0.2186  1.0000
  H   H24       1.0  0.58388  0.73889  0.40103  1.0000
  H   H25       1.0  0.51437  0.63115  0.70884  1.0000
  H   H26       1.0  0.73193  0.05959999999999999  0.11293  1.0000
  H   H27       1.0  0.61035  0.69975  0.54312  1.0000
  H   H28       1.0  0.91443  0.41774  0.07532  1.0000
  H   H29       1.0  0.83685  0.9032  0.20295  1.0000
  H   H30       1.0  0.28153  0.45817  0.19505  1.0000
  H   H31       1.0  0.13013000000000002  0.55006  0.28285  1.0000
  H   H32       1.0  0.76181  0.51319  0.15807  1.0000
  C   C1        1.0  0.35877  0.16704  0.78196  1.0000
  C   C2        1.0  0.4755199999999999  0.99066  0.88276  1.0000
  C   C3        1.0  0.44914000000000004  0.51069  0.28964  1.0000
  C   C4        1.0  0.80471  0.62067  0.92476  1.0000
  C   C5        1.0  0.53924  0.89686  0.93441  1.0000
  C   C6        1.0  0.06425000000000002  0.46014  0.77484  1.0000
  C   C7        1.0  0.19766999999999998  0.44067999999999996  0.62878  1.0000
  C   C8        1.0  0.34503  0.5296  0.43686  1.0000
  C   C9        1.0  0.29123  0.39104000000000005  0.58086  1.0000
  C   C10       1.0  0.55955  0.06859  0.85289  1.0000
  C   C11       1.0  0.39743  0.5681  0.34315  1.0000
  C   C12       1.0  0.8920899999999999  0.5647100000000002  0.8724399999999999  1.0000
  C   C13       1.0  0.2993  0.26087  0.7283599999999999  1.0000
  C   C14       1.0  0.3418  0.43235000000000007  0.48056999999999994  1.0000
  C   C15       1.0  0.50176  0.15586999999999998  0.80299  1.0000
  C   C16       1.0  0.4966400000000001  0.55148  0.1875  1.0000
  C   C17       1.0  0.3407300000000001  0.30100000000000005  0.6327999999999999  1.0000
  C   C18       1.0  0.20633999999999997  0.3126  0.77476  1.0000
  C   C19       1.0  0.44701  0.41361  0.33258  1.0000
  C   C20       1.0  0.33208  0.0015100000000000228  0.8631  1.0000
  C   C21       1.0  0.39355000000000007  0.37546  0.42597  1.0000
  C   C22       1.0  0.15669999999999995  0.40358999999999995  0.72502  1.0000
  C   C23       1.0  0.039740000000000025  0.55088  0.88078  1.0000
  C   C24       1.0  0.27399  0.08893999999999999  0.81337  1.0000
  C   C25       1.0  0.83182  0.52806  0.8134  1.0000
  C   C26       1.0  0.91733  0.47709  0.76397  1.0000
  C   C27       1.0  0.12421999999999998  0.49765  0.83394  1.0000
  C   C28       1.0  0.64124  0.83296  0.21804  1.0000
  C   C29       1.0  0.52449  0.009340000000000003  0.11724  1.0000
  C   C30       1.0  0.5508699999999999  0.4893100000000001  0.7103599999999999  1.0000
  C   C31       1.0  0.1953  0.37933  0.07524  1.0000
  C   C32       1.0  0.46076000000000006  0.10313  0.06559  1.0000
  C   C33       1.0  0.9357599999999999  0.53986  0.22516  1.0000
  C   C34       1.0  0.8023399999999999  0.55932  0.37122  1.0000
  C   C35       1.0  0.65497  0.47039999999999993  0.56313  1.0000
  C   C36       1.0  0.7087800000000001  0.60896  0.41914  1.0000
  C   C37       1.0  0.44046  0.93141  0.14711  1.0000
  C   C38       1.0  0.60257  0.43189000000000005  0.65685  1.0000
  C   C39       1.0  0.10792000000000002  0.43529  0.12756  1.0000
  C   C40       1.0  0.70071  0.73913  0.27164  1.0000
  C   C41       1.0  0.6582  0.56765  0.51943  1.0000
  C   C42       1.0  0.49825  0.8441300000000002  0.19701  1.0000
  C   C43       1.0  0.50337  0.44852  0.8125  1.0000
  C   C44       1.0  0.65928  0.699  0.3672  1.0000
  C   C45       1.0  0.7936600000000001  0.6874  0.22524  1.0000
  C   C46       1.0  0.5529900000000001  0.5863900000000001  0.6674199999999999  1.0000
  C   C47       1.0  0.66792  0.99848  0.1369  1.0000
  C   C48       1.0  0.6064599999999999  0.6245400000000001  0.57403  1.0000
  C   C49       1.0  0.8433100000000001  0.59641  0.27498  1.0000
  C   C50       1.0  0.96026  0.44912000000000013  0.11922  1.0000
  C   C51       1.0  0.72601  0.91106  0.18663  1.0000
  C   C52       1.0  0.16819  0.4719400000000001  0.1866  1.0000
  C   C53       1.0  0.08267999999999992  0.52291  0.23603  1.0000
  C   C54       1.0  0.87578  0.5023499999999997  0.16606  1.0000
  N   N1        1.0  0.17229000000000003  0.2744400000000001  0.87325  1.0000
  N   N2        1.0  0.82771  0.72555  0.12675  1.0000
  O   O1        1.0  0.46247  0.8259000000000001  0.95564  1.0000
  O   O2        1.0  0.66815  0.8894800000000005  0.95537  1.0000
  O   O3        1.0  0.66715  0.6099  0.94623  1.0000
  O   O4        1.0  0.8644000000000001  0.67945  0.94773  1.0000
  O   O5        1.0  0.52222  0.49182  0.14299  1.0000
  O   O6        1.0  0.50626  0.6388  0.1517  1.0000
  O   O7        1.0  0.53754  0.1741  0.04436  1.0000
  O   O8        1.0  0.33186  0.11052  0.04463  1.0000
  O   O9        1.0  0.33286000000000004  0.3901  0.05377  1.0000
  O   O10       1.0  0.13561  0.32055000000000006  0.05227  1.0000
  O   O11       1.0  0.47778999999999994  0.50818  0.85701  1.0000
  O   O12       1.0  0.49374000000000007  0.3612  0.8482999999999999  1.0000
