data_image0
_chemical_formula_structural       Zn4P2H40C60N8O24
_chemical_formula_sum              "Zn4 P2 H40 C60 N8 O24"
_cell_length_a       9.69238
_cell_length_b       14.76547
_cell_length_c       14.765500000000001
_cell_angle_alpha    76.89679
_cell_angle_beta     85.22988
_cell_angle_gamma    85.22942

_symmetry_space_group_name_H-M    'P 1'
_symmetry_Int_Tables_number       1

loop_
  _symmetry_equiv_pos_as_xyz
  'x,y,z'

loop_
  _atom_site_type_symbol
  _atom_site_label
  _atom_site_symmetry_multiplicity
  _atom_site_fract_x
  _atom_site_fract_y
  _atom_site_fract_z
  _atom_site_occupancy
  Zn  Zn1       1.0  0.023779999999999985  0.9519300000000003  0.88414  1.0000
  Zn  Zn2       1.0  0.47623000000000004  0.11586  0.048070000000000015  1.0000
  Zn  Zn3       1.0  0.97623  0.04807  0.11586000000000003  1.0000
  Zn  Zn4       1.0  0.52378  0.8841499999999999  0.95193  1.0000
  P   P1        1.0  0.24999  0.98965  0.010350000000000003  1.0000
  P   P2        1.0  0.7500099999999998  0.010349999999999972  0.9896500000000003  1.0000
  H   H1        1.0  0.9553900000000001  0.11982999999999995  0.5954100000000002  1.0000
  H   H2        1.0  0.8280100000000001  0.8036800000000001  0.8880100000000002  1.0000
  H   H3        1.0  0.7832200000000001  0.6475800000000003  0.9813700000000002  1.0000
  H   H4        1.0  0.16992999999999994  0.6501900000000003  0.10970000000000003  1.0000
  H   H5        1.0  0.19224000000000002  0.8091200000000002  0.01579  1.0000
  H   H6        1.0  0.7851300000000003  0.50661  0.03838000000000001  1.0000
  H   H7        1.0  0.74821  0.35242999999999997  0.14625000000000005  1.0000
  H   H8        1.0  0.05816000000000001  0.3837  0.31167  1.0000
  H   H9        1.0  0.11103000000000009  0.54011  0.21040000000000006  1.0000
  H   H10       1.0  0.8800800000000001  0.30019  0.28213  1.0000
  H   H11       1.0  0.54462  0.40459  0.88017  1.0000
  H   H12       1.0  0.6719900000000002  0.11199  0.19632  1.0000
  H   H13       1.0  0.7167900000000003  0.018629999999999973  0.3524200000000001  1.0000
  H   H14       1.0  0.33007  0.8903000000000002  0.3498100000000001  1.0000
  H   H15       1.0  0.3077500000000001  0.98421  0.19088000000000002  1.0000
  H   H16       1.0  0.7148699999999999  0.9616200000000003  0.49339  1.0000
  H   H17       1.0  0.7517900000000002  0.8537500000000001  0.64757  1.0000
  H   H18       1.0  0.44183999999999996  0.6883300000000001  0.6163000000000001  1.0000
  H   H19       1.0  0.38897000000000015  0.7896  0.45989000000000013  1.0000
  H   H20       1.0  0.6199200000000001  0.71787  0.6998100000000003  1.0000
  H   H21       1.0  0.04461  0.88017  0.40459  1.0000
  H   H22       1.0  0.17198999999999998  0.19632000000000005  0.11199000000000003  1.0000
  H   H23       1.0  0.21678999999999998  0.35242000000000007  0.01863  1.0000
  H   H24       1.0  0.83007  0.34981000000000007  0.8903000000000002  1.0000
  H   H25       1.0  0.8077600000000004  0.19088  0.9842100000000003  1.0000
  H   H26       1.0  0.21487000000000003  0.49338999999999994  0.96162  1.0000
  H   H27       1.0  0.25179000000000007  0.6475699999999999  0.8537500000000001  1.0000
  H   H28       1.0  0.94184  0.6163  0.68833  1.0000
  H   H29       1.0  0.88898  0.45989000000000024  0.7896  1.0000
  H   H30       1.0  0.11992000000000003  0.6998099999999999  0.7178700000000001  1.0000
  H   H31       1.0  0.4553900000000001  0.59542  0.11983000000000002  1.0000
  H   H32       1.0  0.32801  0.8880100000000002  0.80368  1.0000
  H   H33       1.0  0.28321  0.98138  0.64758  1.0000
  H   H34       1.0  0.66993  0.10969999999999995  0.6501900000000003  1.0000
  H   H35       1.0  0.69225  0.015789999999999967  0.8091200000000002  1.0000
  H   H36       1.0  0.28513999999999995  0.03837999999999998  0.5066100000000001  1.0000
  H   H37       1.0  0.24821  0.14625  0.35243  1.0000
  H   H38       1.0  0.55817  0.31167  0.3837000000000001  1.0000
  H   H39       1.0  0.6110300000000002  0.21040000000000003  0.54011  1.0000
  H   H40       1.0  0.38008  0.28213  0.3001900000000001  1.0000
  C   C1        1.0  0.9736800000000001  0.0675  0.55356  1.0000
  C   C2        1.0  0.99281  0.9734500000000001  0.59741  1.0000
  C   C3        1.0  0.020829999999999987  0.90499  0.54368  1.0000
  C   C4        1.0  0.97481  0.94485  0.7014800000000002  1.0000
  C   C5        1.0  0.04506999999999998  0.80437  0.5916700000000003  1.0000
  C   C6        1.0  0.89952  0.7673300000000002  0.93907  1.0000
  C   C7        1.0  0.8776000000000002  0.6780800000000001  0.99109  1.0000
  C   C8        1.0  0.97298  0.63267  0.055840000000000015  1.0000
  C   C9        1.0  0.08914000000000001  0.68096  0.06317  1.0000
  C   C10       1.0  0.10371000000000002  0.77054  0.00986  1.0000
  C   C11       1.0  0.95077  0.5388399999999999  0.11517  1.0000
  C   C12       1.0  0.8486100000000001  0.48368000000000005  0.09772000000000003  1.0000
  C   C13       1.0  0.82578  0.3980000000000001  0.15695  1.0000
  C   C14       1.0  0.0033799999999999915  0.4160600000000001  0.24971  1.0000
  C   C15       1.0  0.029980000000000017  0.5019  0.19261  1.0000
  C   C16       1.0  0.52632  0.44644  0.9325  1.0000
  C   C17       1.0  0.50719  0.40259  0.02655  1.0000
  C   C18       1.0  0.47917  0.45632000000000006  0.09501000000000002  1.0000
  C   C19       1.0  0.5252  0.2985200000000001  0.05515000000000001  1.0000
  C   C20       1.0  0.45492999999999995  0.40832999999999997  0.19563000000000005  1.0000
  C   C21       1.0  0.6004900000000001  0.06092000000000003  0.23267  1.0000
  C   C22       1.0  0.62241  0.008909999999999998  0.32192  1.0000
  C   C23       1.0  0.52701  0.9441599999999999  0.3673300000000001  1.0000
  C   C24       1.0  0.41085000000000016  0.93683  0.31904  1.0000
  C   C25       1.0  0.39629  0.9901400000000004  0.22946000000000003  1.0000
  C   C26       1.0  0.54923  0.88483  0.4611600000000001  1.0000
  C   C27       1.0  0.65139  0.9022800000000001  0.51632  1.0000
  C   C28       1.0  0.67422  0.84305  0.602  1.0000
  C   C29       1.0  0.49662  0.7502900000000001  0.58394  1.0000
  C   C30       1.0  0.47002  0.80739  0.49810000000000004  1.0000
  C   C31       1.0  0.026319999999999975  0.9325000000000001  0.44644  1.0000
  C   C32       1.0  0.0072  0.026549999999999997  0.40259  1.0000
  C   C33       1.0  0.97917  0.09500999999999998  0.4563200000000001  1.0000
  C   C34       1.0  0.025200000000000004  0.05515000000000002  0.29852  1.0000
  C   C35       1.0  0.95494  0.19563  0.40833  1.0000
  C   C36       1.0  0.10048000000000004  0.23267000000000004  0.06093000000000001  1.0000
  C   C37       1.0  0.12241  0.32192  0.00891  1.0000
  C   C38       1.0  0.02701999999999999  0.36732999999999993  0.9441600000000002  1.0000
  C   C39       1.0  0.9108600000000001  0.31904  0.9368300000000003  1.0000
  C   C40       1.0  0.89629  0.22946000000000008  0.99014  1.0000
  C   C41       1.0  0.04923000000000001  0.4611600000000001  0.88483  1.0000
  C   C42       1.0  0.1514  0.51632  0.90228  1.0000
  C   C43       1.0  0.17422000000000004  0.6019999999999998  0.8430500000000002  1.0000
  C   C44       1.0  0.9966300000000001  0.5839400000000002  0.75029  1.0000
  C   C45       1.0  0.97002  0.4981  0.80739  1.0000
  C   C46       1.0  0.47368  0.55356  0.0675  1.0000
  C   C47       1.0  0.4928099999999999  0.5974100000000002  0.9734500000000001  1.0000
  C   C48       1.0  0.52084  0.54368  0.90499  1.0000
  C   C49       1.0  0.47481  0.7014799999999999  0.9448500000000002  1.0000
  C   C50       1.0  0.54507  0.59167  0.80437  1.0000
  C   C51       1.0  0.39951  0.9390800000000001  0.7673300000000002  1.0000
  C   C52       1.0  0.37759000000000004  0.99109  0.6780800000000002  1.0000
  C   C53       1.0  0.47299000000000013  0.055839999999999966  0.6326700000000002  1.0000
  C   C54       1.0  0.5891500000000001  0.06316999999999998  0.6809600000000001  1.0000
  C   C55       1.0  0.60372  0.009859999999999956  0.7705400000000002  1.0000
  C   C56       1.0  0.45077000000000006  0.11517000000000001  0.53884  1.0000
  C   C57       1.0  0.34861  0.09771999999999999  0.4836800000000001  1.0000
  C   C58       1.0  0.32578  0.15695000000000003  0.3980000000000001  1.0000
  C   C59       1.0  0.50338  0.24971000000000002  0.41606  1.0000
  C   C60       1.0  0.52999  0.19261000000000003  0.5019  1.0000
  N   N1        1.0  0.009959999999999974  0.81366  0.94873  1.0000
  N   N2        1.0  0.9019800000000002  0.36685  0.23141  1.0000
  N   N3        1.0  0.4900400000000001  0.05127  0.18634  1.0000
  N   N4        1.0  0.59802  0.7685900000000002  0.63315  1.0000
  N   N5        1.0  0.99004  0.18634  0.05127  1.0000
  N   N6        1.0  0.09802000000000004  0.63315  0.7685900000000002  1.0000
  N   N7        1.0  0.50996  0.9487300000000001  0.8136600000000003  1.0000
  N   N8        1.0  0.4019800000000001  0.23140999999999998  0.3668500000000001  1.0000
  O   O1        1.0  0.19565000000000007  0.9927900000000003  0.91377  1.0000
  O   O2        1.0  0.13493  0.96776  0.09062000000000003  1.0000
  O   O3        1.0  0.05545999999999993  0.9815700000000004  0.7458700000000003  1.0000
  O   O4        1.0  0.88175  0.8908800000000001  0.7367900000000002  1.0000
  O   O5        1.0  0.14039  0.78686  0.65002  1.0000
  O   O6        1.0  0.9715700000000003  0.7458499999999999  0.5727500000000001  1.0000
  O   O7        1.0  0.30436  0.08623  0.007220000000000002  1.0000
  O   O8        1.0  0.36506000000000005  0.9093800000000002  0.03224  1.0000
  O   O9        1.0  0.44454000000000005  0.25413  0.01843  1.0000
  O   O10       1.0  0.61825  0.2632200000000001  0.10912  1.0000
  O   O11       1.0  0.35960999999999993  0.34999  0.21314000000000005  1.0000
  O   O12       1.0  0.52843  0.42725  0.25415  1.0000
  O   O13       1.0  0.80435  0.007209999999999996  0.08623000000000003  1.0000
  O   O14       1.0  0.8650800000000003  0.03223999999999998  0.90938  1.0000
  O   O15       1.0  0.9445400000000003  0.01843  0.25413  1.0000
  O   O16       1.0  0.11825  0.10912000000000001  0.26321000000000006  1.0000
  O   O17       1.0  0.8596200000000002  0.21314  0.3499800000000001  1.0000
  O   O18       1.0  0.02843  0.25414999999999993  0.42725000000000013  1.0000
  O   O19       1.0  0.69565  0.91377  0.9927800000000002  1.0000
  O   O20       1.0  0.6349400000000002  0.09061999999999996  0.9677600000000002  1.0000
  O   O21       1.0  0.55546  0.74587  0.9815700000000003  1.0000
  O   O22       1.0  0.38175  0.7367899999999998  0.8908800000000002  1.0000
  O   O23       1.0  0.64039  0.6500200000000005  0.78686  1.0000
  O   O24       1.0  0.4715799999999999  0.5727500000000001  0.74585  1.0000
