data_image0
_chemical_formula_structural       Zn8P8H32C56O40
_chemical_formula_sum              "Zn8 P8 H32 C56 O40"
_cell_length_a       10.00224
_cell_length_b       16.28876
_cell_length_c       18.16245
_cell_angle_alpha    90.14806
_cell_angle_beta     94.11145
_cell_angle_gamma    90.39918

_space_group_name_H-M_alt    "P 1"
_space_group_IT_number       1

loop_
  _space_group_symop_operation_xyz
  'x, y, z'

loop_
  _atom_site_type_symbol
  _atom_site_label
  _atom_site_symmetry_multiplicity
  _atom_site_fract_x
  _atom_site_fract_y
  _atom_site_fract_z
  _atom_site_occupancy
  Zn  Zn1       1.0  0.08277000000000002  0.55062  0.9101900000000002  1.0000
  Zn  Zn2       1.0  0.59178  0.55575  0.92034  1.0000
  Zn  Zn3       1.0  0.4192699999999999  0.05085  0.58989  1.0000
  Zn  Zn4       1.0  0.91076  0.057280000000000005  0.5800400000000001  1.0000
  Zn  Zn5       1.0  0.91747  0.45038  0.0899  1.0000
  Zn  Zn6       1.0  0.41089  0.44584  0.0803  1.0000
  Zn  Zn7       1.0  0.58248  0.9499700000000002  0.4130100000000001  1.0000
  Zn  Zn8       1.0  0.08876  0.9438  0.42012  1.0000
  P   P1        1.0  0.8340600000000001  0.43868000000000007  0.9138700000000001  1.0000
  P   P2        1.0  0.1643  0.94061  0.59103  1.0000
  P   P3        1.0  0.66326  0.94041  0.58954  1.0000
  P   P4        1.0  0.33445  0.4401  0.9095000000000001  1.0000
  P   P5        1.0  0.16626000000000002  0.56216  0.08645  1.0000
  P   P6        1.0  0.8350599999999999  0.06052000000000001  0.40878  1.0000
  P   P7        1.0  0.33823  0.06125  0.41299000000000013  1.0000
  P   P8        1.0  0.66729  0.56182  0.09094  1.0000
  H   H1        1.0  0.012129999999999993  0.29838  0.92797  1.0000
  H   H2        1.0  0.032559999999999985  0.17298  0.8479600000000002  1.0000
  H   H3        1.0  0.7331  0.26987  0.68938  1.0000
  H   H4        1.0  0.71349  0.39536  0.7689  1.0000
  H   H5        1.0  0.06394  0.96533  0.7369  1.0000
  H   H6        1.0  0.023510000000000038  0.86668  0.8388000000000002  1.0000
  H   H7        1.0  0.14015  0.66513  0.70371  1.0000
  H   H8        1.0  0.1818  0.76367  0.60154  1.0000
  H   H9        1.0  0.48576  0.79858  0.5753  1.0000
  H   H10       1.0  0.4666199999999999  0.6726500000000002  0.6543900000000001  1.0000
  H   H11       1.0  0.77239  0.77022  0.81093  1.0000
  H   H12       1.0  0.78999  0.89633  0.7324400000000002  1.0000
  H   H13       1.0  0.43871999999999994  0.46506  0.76394  1.0000
  H   H14       1.0  0.48077  0.3662900000000001  0.66259  1.0000
  H   H15       1.0  0.36124000000000006  0.16447  0.7969000000000003  1.0000
  H   H16       1.0  0.31834  0.2631  0.8987600000000001  1.0000
  H   H17       1.0  0.9863800000000001  0.7012  0.07233  1.0000
  H   H18       1.0  0.9606499999999999  0.82552  0.15279  1.0000
  H   H19       1.0  0.26545  0.73312  0.3104600000000001  1.0000
  H   H20       1.0  0.28934  0.60826  0.23106  1.0000
  H   H21       1.0  0.93535  0.03632000000000001  0.26299  1.0000
  H   H22       1.0  0.97625  0.13505000000000006  0.16131  1.0000
  H   H23       1.0  0.85836  0.33642  0.29629  1.0000
  H   H24       1.0  0.8163999999999999  0.23782000000000006  0.39826  1.0000
  H   H25       1.0  0.51566  0.20393  0.42625  1.0000
  H   H26       1.0  0.5351900000000002  0.32871  0.3460200000000001  1.0000
  H   H27       1.0  0.2301  0.22978000000000007  0.19005  1.0000
  H   H28       1.0  0.212  0.10463000000000003  0.26962  1.0000
  H   H29       1.0  0.56124  0.5355  0.23563  1.0000
  H   H30       1.0  0.51963  0.6326100000000002  0.33815  1.0000
  H   H31       1.0  0.63987  0.8363600000000002  0.20595  1.0000
  H   H32       1.0  0.68241  0.7388400000000003  0.10331  1.0000
  C   C1        1.0  0.8601  0.3530500000000001  0.85374  1.0000
  C   C2        1.0  0.9531  0.2911400000000001  0.87565  1.0000
  C   C3        1.0  0.96448  0.22246  0.83145  1.0000
  C   C4        1.0  0.88454  0.21527000000000004  0.7641000000000001  1.0000
  C   C5        1.0  0.7936  0.27773  0.7412  1.0000
  C   C6        1.0  0.78249  0.34634  0.78546  1.0000
  C   C7        1.0  0.89226  0.14006  0.71793  1.0000
  C   C8        1.0  0.12661  0.87048  0.66346  1.0000
  C   C9        1.0  0.08231  0.89998  0.73051  1.0000
  C   C10       1.0  0.05925000000000001  0.8453500000000003  0.7868600000000001  1.0000
  C   C11       1.0  0.08149000000000002  0.7606  0.77704  1.0000
  C   C12       1.0  0.12464000000000003  0.73076  0.7098500000000002  1.0000
  C   C13       1.0  0.14789  0.78544  0.65368  1.0000
  C   C14       1.0  0.05420000000000002  0.70162  0.83642  1.0000
  C   C15       1.0  0.64019  0.8536500000000002  0.64868  1.0000
  C   C16       1.0  0.54621  0.79142  0.62704  1.0000
  C   C17       1.0  0.53556  0.7224100000000002  0.67071  1.0000
  C   C18       1.0  0.61773  0.7151000000000002  0.73718  1.0000
  C   C19       1.0  0.70987  0.77793  0.75987  1.0000
  C   C20       1.0  0.71996  0.84701  0.7161800000000003  1.0000
  C   C21       1.0  0.61116  0.6388900000000002  0.78185  1.0000
  C   C22       1.0  0.37443  0.3701  0.83726  1.0000
  C   C23       1.0  0.41991  0.39965  0.7704700000000001  1.0000
  C   C24       1.0  0.44388  0.3449700000000001  0.71422  1.0000
  C   C25       1.0  0.42099  0.26013  0.7236200000000003  1.0000
  C   C26       1.0  0.37694000000000005  0.23018000000000005  0.7906500000000002  1.0000
  C   C27       1.0  0.35309000000000007  0.28488000000000013  0.8468000000000002  1.0000
  C   C28       1.0  0.44716  0.20121  0.6638100000000001  1.0000
  C   C29       1.0  0.14015  0.64814  0.14642000000000005  1.0000
  C   C30       1.0  0.04502  0.7088700000000002  0.12469000000000001  1.0000
  C   C31       1.0  0.0311  0.7772  0.16897  1.0000
  C   C32       1.0  0.11151999999999998  0.7858200000000002  0.23594  1.0000
  C   C33       1.0  0.20489999999999997  0.72465  0.25871  1.0000
  C   C34       1.0  0.21800000000000003  0.65607  0.21455000000000005  1.0000
  C   C35       1.0  0.10173000000000003  0.8615000000000003  0.2813100000000001  1.0000
  C   C36       1.0  0.87261  0.13111000000000003  0.3365100000000001  1.0000
  C   C37       1.0  0.91704  0.10168  0.26944  1.0000
  C   C38       1.0  0.94048  0.15635  0.21319  1.0000
  C   C39       1.0  0.9187600000000001  0.24105  0.22295000000000004  1.0000
  C   C40       1.0  0.8743299999999999  0.27084000000000014  0.2900000000000001  1.0000
  C   C41       1.0  0.85087  0.21614000000000005  0.34618  1.0000
  C   C42       1.0  0.9462199999999998  0.29974  0.16326  1.0000
  C   C43       1.0  0.36142  0.14777  0.3532700000000001  1.0000
  C   C44       1.0  0.45491  0.21040000000000006  0.37454  1.0000
  C   C45       1.0  0.46583  0.27895  0.3303  1.0000
  C   C46       1.0  0.38443  0.28571  0.26351  1.0000
  C   C47       1.0  0.29207  0.22280000000000005  0.24140000000000003  1.0000
  C   C48       1.0  0.2819  0.15408000000000005  0.28565  1.0000
  C   C49       1.0  0.39343000000000006  0.36151  0.21822000000000005  1.0000
  C   C50       1.0  0.62608  0.63124  0.16354  1.0000
  C   C51       1.0  0.58021  0.60097  0.22992  1.0000
  C   C52       1.0  0.5564  0.65491  0.28681  1.0000
  C   C53       1.0  0.57941  0.73995  0.27851000000000004  1.0000
  C   C54       1.0  0.62365  0.77062  0.21174  1.0000
  C   C55       1.0  0.64746  0.71655  0.15503  1.0000
  C   C56       1.0  0.55344  0.7977500000000002  0.33936  1.0000
  O   O1        1.0  0.6807  0.44977  0.9110100000000001  1.0000
  O   O2        1.0  0.8987999999999999  0.51575  0.88121  1.0000
  O   O3        1.0  0.89949  0.41259  0.9888500000000001  1.0000
  O   O4        1.0  0.8926799999999999  0.15081000000000006  0.64797  1.0000
  O   O5        1.0  0.89531  0.07195  0.75022  1.0000
  O   O6        1.0  0.9574899999999998  0.71448  0.87491  1.0000
  O   O7        1.0  0.13193  0.63853  0.84317  1.0000
  O   O8        1.0  0.09787  0.02369  0.60309  1.0000
  O   O9        1.0  0.3188400000000001  0.9489800000000003  0.60012  1.0000
  O   O10       1.0  0.11919999999999999  0.89667  0.51818  1.0000
  O   O11       1.0  0.8160599999999999  0.95249  0.58923  1.0000
  O   O12       1.0  0.60038  0.01586  0.62554  1.0000
  O   O13       1.0  0.59351  0.91612  0.5148  1.0000
  O   O14       1.0  0.61367  0.6480400000000002  0.8521700000000001  1.0000
  O   O15       1.0  0.60617  0.57143  0.74817  1.0000
  O   O16       1.0  0.5452300000000001  0.21271  0.6257800000000002  1.0000
  O   O17       1.0  0.36657  0.13893  0.65608  1.0000
  O   O18       1.0  0.4040099999999999  0.5233300000000002  0.9001700000000001  1.0000
  O   O19       1.0  0.18049000000000004  0.44897  0.89639  1.0000
  O   O20       1.0  0.37387000000000004  0.3963500000000001  0.9827000000000001  1.0000
  O   O21       1.0  0.31951  0.55092  0.08906000000000003  1.0000
  O   O22       1.0  0.10145  0.48504000000000014  0.1189  1.0000
  O   O23       1.0  0.10068  0.58787  0.01128  1.0000
  O   O24       1.0  0.11373999999999998  0.85254  0.35173  1.0000
  O   O25       1.0  0.08625  0.92868  0.24814000000000005  1.0000
  O   O26       1.0  0.044  0.28846  0.1252  1.0000
  O   O27       1.0  0.86653  0.36174  0.15576  1.0000
  O   O28       1.0  0.90118  0.9772200000000002  0.39659  1.0000
  O   O29       1.0  0.68055  0.05203000000000001  0.39982000000000006  1.0000
  O   O30       1.0  0.8804199999999999  0.10386  0.48183  1.0000
  O   O31       1.0  0.18542  0.04776000000000001  0.41116000000000014  1.0000
  O   O32       1.0  0.4015  0.9851700000000001  0.37814  1.0000
  O   O33       1.0  0.4051  0.08727000000000001  0.48812  1.0000
  O   O34       1.0  0.38666  0.35292  0.14775  1.0000
  O   O35       1.0  0.4043900000000001  0.42897  0.25181  1.0000
  O   O36       1.0  0.45701  0.7849  0.37827  1.0000
  O   O37       1.0  0.6328600000000001  0.8606600000000002  0.34763000000000005  1.0000
  O   O38       1.0  0.60016  0.47772  0.1  1.0000
  O   O39       1.0  0.8210700000000001  0.55247  0.10364000000000002  1.0000
  O   O40       1.0  0.62715  0.6061500000000002  0.01795  1.0000
