data_image0
_chemical_formula_structural       Zn4H40C68N12O16
_chemical_formula_sum              "Zn4 H40 C68 N12 O16"
_cell_length_a       11.80153
_cell_length_b       15.004630000000002
_cell_length_c       15.00464
_cell_angle_alpha    96.34435
_cell_angle_beta     107.19113
_cell_angle_gamma    107.19115

_symmetry_space_group_name_H-M    'P 1'
_symmetry_Int_Tables_number       1

loop_
  _symmetry_equiv_pos_as_xyz
  'x,y,z'

loop_
  _atom_site_type_symbol
  _atom_site_label
  _atom_site_symmetry_multiplicity
  _atom_site_fract_x
  _atom_site_fract_y
  _atom_site_fract_z
  _atom_site_occupancy
  Zn  Zn1       1.0  0.8824699999999999  0.80532  0.56301  1.0000
  Zn  Zn2       1.0  0.8824699999999999  0.56301  0.80531  1.0000
  Zn  Zn3       1.0  0.11755000000000002  0.43699  0.19469  1.0000
  Zn  Zn4       1.0  0.11755000000000002  0.19469000000000006  0.43699  1.0000
  H   H1        1.0  0.06883999999999994  0.72924  0.50598  1.0000
  H   H2        1.0  0.2962399999999999  0.78688  0.52414  1.0000
  H   H3        1.0  0.32443  0.06334000000000004  0.6661000000000001  1.0000
  H   H4        1.0  0.09181999999999987  0.9929  0.64031  1.0000
  H   H5        1.0  0.49213  0.83695  0.56454  1.0000
  H   H6        1.0  0.8211399999999999  0.08779000000000003  0.65615  1.0000
  H   H7        1.0  0.9652399999999999  0.38864000000000004  0.8571300000000001  1.0000
  H   H8        1.0  0.8799  0.2109900000000001  0.8001300000000001  1.0000
  H   H9        1.0  0.53934  0.23876000000000006  0.6154800000000001  1.0000
  H   H10       1.0  0.64273  0.41738  0.6777  1.0000
  H   H11       1.0  0.06883999999999994  0.5059799999999999  0.72924  1.0000
  H   H12       1.0  0.29624000000000006  0.52414  0.7868800000000001  1.0000
  H   H13       1.0  0.32443  0.6661  0.06333  1.0000
  H   H14       1.0  0.09182000000000003  0.64032  0.9929  1.0000
  H   H15       1.0  0.49213  0.56454  0.8369500000000001  1.0000
  H   H16       1.0  0.8211400000000001  0.6561500000000002  0.08778  1.0000
  H   H17       1.0  0.9652399999999999  0.85713  0.38864000000000004  1.0000
  H   H18       1.0  0.87989  0.80013  0.21098  1.0000
  H   H19       1.0  0.53934  0.6154800000000002  0.23876  1.0000
  H   H20       1.0  0.64273  0.6777  0.41738  1.0000
  H   H21       1.0  0.93118  0.4940300000000001  0.27076  1.0000
  H   H22       1.0  0.70378  0.47587  0.21312  1.0000
  H   H23       1.0  0.6755799999999998  0.33391  0.93667  1.0000
  H   H24       1.0  0.90819  0.3596900000000001  0.00711  1.0000
  H   H25       1.0  0.50788  0.43546  0.16306  1.0000
  H   H26       1.0  0.17887000000000006  0.3438600000000001  0.91222  1.0000
  H   H27       1.0  0.034780000000000005  0.14288  0.61136  1.0000
  H   H28       1.0  0.12011999999999999  0.19987  0.78902  1.0000
  H   H29       1.0  0.4606700000000001  0.38453000000000004  0.7612400000000001  1.0000
  H   H30       1.0  0.35728999999999994  0.32231  0.58263  1.0000
  H   H31       1.0  0.9311800000000001  0.27076  0.4940300000000001  1.0000
  H   H32       1.0  0.70378  0.21312  0.47587  1.0000
  H   H33       1.0  0.67558  0.9366700000000002  0.33391  1.0000
  H   H34       1.0  0.90819  0.007109999999999996  0.35969  1.0000
  H   H35       1.0  0.50788  0.16306000000000004  0.43546  1.0000
  H   H36       1.0  0.1788700000000001  0.9122200000000003  0.34385  1.0000
  H   H37       1.0  0.03478000000000003  0.6113600000000001  0.14288  1.0000
  H   H38       1.0  0.12012  0.78902  0.19987  1.0000
  H   H39       1.0  0.46066999999999997  0.76124  0.38452  1.0000
  H   H40       1.0  0.35728  0.58263  0.3223  1.0000
  C   C1        1.0  0.12906000000000012  0.8029000000000004  0.54056  1.0000
  C   C2        1.0  0.25661000000000006  0.8357800000000001  0.55191  1.0000
  C   C3        1.0  0.3307400000000001  0.93127  0.5978300000000001  1.0000
  C   C4        1.0  0.27045  0.98911  0.63031  1.0000
  C   C5        1.0  0.14239999999999997  0.9509300000000002  0.61605  1.0000
  C   C6        1.0  0.4672900000000001  0.9712400000000002  0.612  1.0000
  C   C7        1.0  0.5349400000000001  0.9138700000000002  0.59141  1.0000
  C   C8        1.0  0.66325  0.95617  0.60604  1.0000
  C   C9        1.0  0.72129  0.05407000000000001  0.6444  1.0000
  C   C10       1.0  0.64733  0.10638000000000003  0.66361  1.0000
  C   C11       1.0  0.8723899999999999  0.35278  0.80235  1.0000
  C   C12       1.0  0.82451  0.25394999999999995  0.77017  1.0000
  C   C13       1.0  0.70298  0.21090000000000006  0.7013700000000002  1.0000
  C   C14       1.0  0.63438  0.26987  0.66825  1.0000
  C   C15       1.0  0.6904899999999999  0.3682  0.70249  1.0000
  C   C16       1.0  0.73604  0.89636  0.58056  1.0000
  C   C17       1.0  0.12906000000000006  0.54056  0.8028900000000001  1.0000
  C   C18       1.0  0.25661  0.55191  0.83578  1.0000
  C   C19       1.0  0.33074  0.59784  0.93127  1.0000
  C   C20       1.0  0.27045  0.6303100000000003  0.98911  1.0000
  C   C21       1.0  0.14239999999999997  0.61606  0.95093  1.0000
  C   C22       1.0  0.46729  0.612  0.97124  1.0000
  C   C23       1.0  0.5349400000000001  0.5914100000000002  0.9138700000000001  1.0000
  C   C24       1.0  0.6632500000000001  0.6060400000000002  0.95617  1.0000
  C   C25       1.0  0.72129  0.6444  0.05406  1.0000
  C   C26       1.0  0.64733  0.6636100000000003  0.10638000000000003  1.0000
  C   C27       1.0  0.8723899999999999  0.80235  0.35277  1.0000
  C   C28       1.0  0.82451  0.77017  0.25395  1.0000
  C   C29       1.0  0.70298  0.70137  0.2109  1.0000
  C   C30       1.0  0.63438  0.66825  0.26987  1.0000
  C   C31       1.0  0.6904900000000002  0.7024900000000002  0.3682  1.0000
  C   C32       1.0  0.73604  0.58056  0.89636  1.0000
  C   C33       1.0  0.9128999999999999  0.72795  0.72795  1.0000
  C   C34       1.0  0.8676599999999999  0.6418  0.6418  1.0000
  C   C35       1.0  0.87095  0.45945  0.19711  1.0000
  C   C36       1.0  0.7433999999999998  0.44809  0.16422  1.0000
  C   C37       1.0  0.66928  0.40217  0.06874  1.0000
  C   C38       1.0  0.72957  0.36969  0.01089  1.0000
  C   C39       1.0  0.85762  0.38395  0.04908  1.0000
  C   C40       1.0  0.53272  0.38801  0.02877  1.0000
  C   C41       1.0  0.46508  0.40859  0.08613  1.0000
  C   C42       1.0  0.33677  0.3939600000000001  0.04384  1.0000
  C   C43       1.0  0.27873  0.35561  0.94594  1.0000
  C   C44       1.0  0.35268999999999995  0.3364000000000001  0.89363  1.0000
  C   C45       1.0  0.12762  0.19766  0.64723  1.0000
  C   C46       1.0  0.17549999999999993  0.22984000000000002  0.74605  1.0000
  C   C47       1.0  0.29703  0.29864  0.78911  1.0000
  C   C48       1.0  0.36563000000000007  0.3317500000000001  0.7301400000000001  1.0000
  C   C49       1.0  0.30953  0.2975200000000001  0.6318  1.0000
  C   C50       1.0  0.26397  0.41944  0.10364  1.0000
  C   C51       1.0  0.87095  0.19711  0.45945  1.0000
  C   C52       1.0  0.7433999999999998  0.16422  0.44809  1.0000
  C   C53       1.0  0.6692800000000001  0.06874  0.40217  1.0000
  C   C54       1.0  0.72957  0.010889999999999997  0.36969  1.0000
  C   C55       1.0  0.85762  0.04908  0.38395  1.0000
  C   C56       1.0  0.53272  0.028770000000000004  0.38801  1.0000
  C   C57       1.0  0.46508  0.08613  0.40859  1.0000
  C   C58       1.0  0.3367699999999999  0.04384  0.39396  1.0000
  C   C59       1.0  0.27873000000000003  0.9459400000000002  0.35561  1.0000
  C   C60       1.0  0.35268999999999995  0.8936300000000003  0.33639  1.0000
  C   C61       1.0  0.12761999999999996  0.64723  0.19766  1.0000
  C   C62       1.0  0.17549999999999996  0.74605  0.22984000000000002  1.0000
  C   C63       1.0  0.29703  0.78911  0.29864  1.0000
  C   C64       1.0  0.36563  0.7301400000000001  0.33175  1.0000
  C   C65       1.0  0.3095300000000001  0.6318000000000001  0.29752  1.0000
  C   C66       1.0  0.26397  0.10364  0.41944  1.0000
  C   C67       1.0  0.08711999999999998  0.27205  0.27205  1.0000
  C   C68       1.0  0.13236  0.3582  0.3582000000000001  1.0000
  N   N1        1.0  0.07211000000000002  0.85938  0.57148  1.0000
  N   N2        1.0  0.52286  0.06645000000000002  0.64639  1.0000
  N   N3        1.0  0.80736  0.40932  0.7687  1.0000
  N   N4        1.0  0.07211000000000002  0.57148  0.85938  1.0000
  N   N5        1.0  0.52285  0.64639  0.06644  1.0000
  N   N6        1.0  0.8073499999999999  0.7686999999999999  0.40931  1.0000
  N   N7        1.0  0.9279  0.42852  0.14062  1.0000
  N   N8        1.0  0.47716000000000003  0.35361000000000004  0.9335600000000001  1.0000
  N   N9        1.0  0.19265999999999997  0.23131000000000004  0.59069  1.0000
  N   N10       1.0  0.9279  0.14063  0.42852  1.0000
  N   N11       1.0  0.47716  0.93356  0.35361  1.0000
  N   N12       1.0  0.19265999999999997  0.59069  0.23131  1.0000
  O   O1        1.0  0.68014  0.80685  0.553  1.0000
  O   O2        1.0  0.85125  0.9387999999999999  0.5888  1.0000
  O   O3        1.0  0.9307800000000003  0.8104300000000002  0.70961  1.0000
  O   O4        1.0  0.85172  0.6599300000000002  0.55906  1.0000
  O   O5        1.0  0.68014  0.553  0.80685  1.0000
  O   O6        1.0  0.85125  0.5888  0.9388  1.0000
  O   O7        1.0  0.9307799999999999  0.70962  0.81043  1.0000
  O   O8        1.0  0.85172  0.55907  0.65992  1.0000
  O   O9        1.0  0.31988  0.4470000000000001  0.19315  1.0000
  O   O10       1.0  0.14876  0.4112  0.06121  1.0000
  O   O11       1.0  0.06924000000000001  0.29039  0.18957000000000002  1.0000
  O   O12       1.0  0.14829  0.44094  0.34008  1.0000
  O   O13       1.0  0.31988  0.19315  0.447  1.0000
  O   O14       1.0  0.14877000000000004  0.06121000000000002  0.4112  1.0000
  O   O15       1.0  0.06924000000000002  0.18957000000000004  0.29039  1.0000
  O   O16       1.0  0.14829000000000006  0.3400800000000001  0.44094000000000005  1.0000
