data_image0
_chemical_formula_structural       Zn4H36C64N4O16F4
_chemical_formula_sum              "Zn4 H36 C64 N4 O16 F4"
_cell_length_a       10.84754
_cell_length_b       10.97779
_cell_length_c       14.931299999999998
_cell_angle_alpha    82.44772000000002
_cell_angle_beta     85.38229999999999
_cell_angle_gamma    88.53107000000001

_symmetry_space_group_name_H-M    'P 1'
_symmetry_Int_Tables_number       1

loop_
  _symmetry_equiv_pos_as_xyz
  'x,y,z'

loop_
  _atom_site_type_symbol
  _atom_site_label
  _atom_site_symmetry_multiplicity
  _atom_site_fract_x
  _atom_site_fract_y
  _atom_site_fract_z
  _atom_site_occupancy
  Zn  Zn1       1.0  0.44563  0.7848799999999999  0.39459  1.0000
  Zn  Zn2       1.0  0.45450000000000007  0.82119  0.19037  1.0000
  Zn  Zn3       1.0  0.55436  0.21511999999999998  0.60541  1.0000
  Zn  Zn4       1.0  0.5455  0.17881000000000005  0.80963  1.0000
  H   H1        1.0  0.8539200000000001  0.76965  0.45046  1.0000
  H   H2        1.0  0.0859  0.78354  0.4198100000000001  1.0000
  H   H3        1.0  0.04635000000000001  0.83459  0.13384  1.0000
  H   H4        1.0  0.81539  0.821  0.16443000000000005  1.0000
  H   H5        1.0  0.36878000000000005  0.16411999999999996  0.42813  1.0000
  H   H6        1.0  0.36605000000000004  0.38972  0.43122  1.0000
  H   H7        1.0  0.52813  0.44314000000000003  0.15691  1.0000
  H   H8        1.0  0.5339500000000001  0.21478000000000003  0.15464  1.0000
  H   H9        1.0  0.3690400000000001  0.96117  0.52496  1.0000
  H   H10       1.0  0.21161  0.97066  0.6549000000000003  1.0000
  H   H11       1.0  0.15415  0.58231  0.6551800000000001  1.0000
  H   H12       1.0  0.3151  0.58864  0.52442  1.0000
  H   H13       1.0  0.93479  0.6883500000000001  0.66782  1.0000
  H   H14       1.0  0.76039  0.70656  0.7822500000000002  1.0000
  H   H15       1.0  0.6939200000000001  0.6275000000000001  0.9351300000000002  1.0000
  H   H16       1.0  0.52113  0.6480699999999999  0.05399000000000001  1.0000
  H   H17       1.0  0.61318  0.006629999999999994  0.07318000000000002  1.0000
  H   H18       1.0  0.78829  0.002879999999999945  0.9544600000000002  1.0000
  H   H19       1.0  0.14607  0.23035  0.54954  1.0000
  H   H20       1.0  0.9140900000000001  0.21645999999999996  0.5801900000000002  1.0000
  H   H21       1.0  0.9536400000000002  0.16541  0.86616  1.0000
  H   H22       1.0  0.1846  0.179  0.83557  1.0000
  H   H23       1.0  0.63122  0.83588  0.5718800000000003  1.0000
  H   H24       1.0  0.63395  0.61028  0.56878  1.0000
  H   H25       1.0  0.47186  0.55686  0.8430900000000002  1.0000
  H   H26       1.0  0.46604  0.78522  0.84536  1.0000
  H   H27       1.0  0.63096  0.03883  0.47504  1.0000
  H   H28       1.0  0.7883800000000001  0.02934  0.3451  1.0000
  H   H29       1.0  0.84584  0.4176899999999999  0.34482  1.0000
  H   H30       1.0  0.68489  0.41136  0.47559  1.0000
  H   H31       1.0  0.06520000000000001  0.31165  0.33218  1.0000
  H   H32       1.0  0.2396  0.29344  0.21775  1.0000
  H   H33       1.0  0.30608  0.3725  0.06487  1.0000
  H   H34       1.0  0.4788700000000001  0.35192999999999997  0.94601  1.0000
  H   H35       1.0  0.38681  0.99337  0.9268200000000002  1.0000
  H   H36       1.0  0.21170000000000003  0.99712  0.04554  1.0000
  C   C1        1.0  0.82188  0.79433  0.30894  1.0000
  C   C2        1.0  0.8972600000000001  0.78357  0.38165  1.0000
  C   C3        1.0  0.02510000000000002  0.79151  0.36484  1.0000
  C   C4        1.0  0.07906999999999999  0.81022  0.27546  1.0000
  C   C5        1.0  0.0037400000000000063  0.82072  0.20281  1.0000
  C   C6        1.0  0.87588  0.81283  0.21956000000000006  1.0000
  C   C7        1.0  0.68391  0.7890500000000001  0.32424  1.0000
  C   C8        1.0  0.21707  0.8163600000000001  0.2604  1.0000
  C   C9        1.0  0.45097  0.17549000000000003  0.29083000000000003  1.0000
  C   C10       1.0  0.40299000000000007  0.22509999999999997  0.36849  1.0000
  C   C11       1.0  0.40078  0.3517  0.37014  1.0000
  C   C12       1.0  0.44533000000000006  0.4305199999999999  0.29346  1.0000
  C   C13       1.0  0.49289000000000005  0.38086  0.21557  1.0000
  C   C14       1.0  0.49629  0.25422  0.21433  1.0000
  C   C15       1.0  0.45482000000000006  0.03913  0.29013  1.0000
  C   C16       1.0  0.44409000000000004  0.56708  0.29401  1.0000
  C   C17       1.0  0.31913000000000014  0.8796  0.55565  1.0000
  C   C18       1.0  0.23172  0.88398  0.6284800000000003  1.0000
  C   C19       1.0  0.16733000000000003  0.77716  0.66436  1.0000
  C   C20       1.0  0.19865000000000002  0.6683  0.6274  1.0000
  C   C21       1.0  0.28827  0.67097  0.55518  1.0000
  C   C22       1.0  0.0656  0.7807400000000001  0.73588  1.0000
  C   C23       1.0  0.9488700000000001  0.7317  0.72758  1.0000
  C   C24       1.0  0.85052  0.7418499999999999  0.7921000000000002  1.0000
  C   C25       1.0  0.8637200000000003  0.8014200000000001  0.8686800000000002  1.0000
  C   C26       1.0  0.9812999999999998  0.84648  0.87783  1.0000
  C   C27       1.0  0.07997999999999998  0.8364100000000001  0.8133700000000001  1.0000
  C   C28       1.0  0.7586400000000001  0.81266  0.93659  1.0000
  C   C29       1.0  0.67902  0.71339  0.9637100000000001  1.0000
  C   C30       1.0  0.58215  0.7243200000000002  0.02905  1.0000
  C   C31       1.0  0.63434  0.92494  0.04031  1.0000
  C   C32       1.0  0.73332  0.92123  0.9755100000000002  1.0000
  C   C33       1.0  0.17812000000000006  0.20567  0.69106  1.0000
  C   C34       1.0  0.10273000000000002  0.21643000000000007  0.61835  1.0000
  C   C35       1.0  0.9749000000000002  0.20849000000000004  0.63516  1.0000
  C   C36       1.0  0.92092  0.18977999999999998  0.72455  1.0000
  C   C37       1.0  0.99626  0.17928  0.79719  1.0000
  C   C38       1.0  0.12411000000000001  0.18717  0.78044  1.0000
  C   C39       1.0  0.31609000000000004  0.21095  0.6757600000000001  1.0000
  C   C40       1.0  0.7829300000000002  0.18363999999999997  0.7396100000000001  1.0000
  C   C41       1.0  0.54903  0.82451  0.70917  1.0000
  C   C42       1.0  0.59701  0.7749  0.63151  1.0000
  C   C43       1.0  0.5992200000000001  0.6483000000000002  0.62986  1.0000
  C   C44       1.0  0.55466  0.56948  0.7065400000000002  1.0000
  C   C45       1.0  0.5071100000000001  0.6191399999999999  0.7844300000000002  1.0000
  C   C46       1.0  0.5037  0.74578  0.7856700000000002  1.0000
  C   C47       1.0  0.5451800000000001  0.96087  0.70987  1.0000
  C   C48       1.0  0.5559  0.43292  0.70599  1.0000
  C   C49       1.0  0.6808600000000001  0.12039999999999997  0.44435  1.0000
  C   C50       1.0  0.7682700000000001  0.11602000000000001  0.37152000000000013  1.0000
  C   C51       1.0  0.8326600000000001  0.22284  0.3356400000000001  1.0000
  C   C52       1.0  0.8013400000000002  0.3317  0.3726  1.0000
  C   C53       1.0  0.71173  0.32903  0.44482  1.0000
  C   C54       1.0  0.9344  0.21925999999999998  0.26412  1.0000
  C   C55       1.0  0.051130000000000016  0.2683  0.27242  1.0000
  C   C56       1.0  0.14948  0.25815  0.20790000000000006  1.0000
  C   C57       1.0  0.13627000000000003  0.19858  0.13132  1.0000
  C   C58       1.0  0.01869  0.15352  0.12217  1.0000
  C   C59       1.0  0.9200200000000002  0.16359000000000004  0.18663000000000005  1.0000
  C   C60       1.0  0.24136000000000005  0.18734  0.06341  1.0000
  C   C61       1.0  0.32098  0.28661  0.03629  1.0000
  C   C62       1.0  0.4178500000000001  0.27568  0.97096  1.0000
  C   C63       1.0  0.36566  0.07506  0.9597  1.0000
  C   C64       1.0  0.26668  0.07877  0.0245  1.0000
  N   N1        1.0  0.3460900000000001  0.7753999999999999  0.5186  1.0000
  N   N2        1.0  0.5600700000000001  0.82799  0.06774  1.0000
  N   N3        1.0  0.6539100000000001  0.22459999999999994  0.4814  1.0000
  N   N4        1.0  0.43992000000000003  0.17200999999999997  0.93226  1.0000
  O   O1        1.0  0.6340700000000001  0.7761200000000001  0.40576  1.0000
  O   O2        1.0  0.6248400000000001  0.7997  0.25373  1.0000
  O   O3        1.0  0.27556  0.80628  0.33126  1.0000
  O   O4        1.0  0.26731  0.83052  0.17906  1.0000
  O   O5        1.0  0.45639  0.9737399999999999  0.36712  1.0000
  O   O6        1.0  0.45659  0.0008399999999999992  0.21301  1.0000
  O   O7        1.0  0.4439500000000001  0.63242  0.21693  1.0000
  O   O8        1.0  0.44378000000000006  0.60533  0.37106  1.0000
  O   O9        1.0  0.36592  0.22388000000000005  0.59424  1.0000
  O   O10       1.0  0.3751500000000001  0.2003  0.74627  1.0000
  O   O11       1.0  0.7244400000000001  0.19372000000000003  0.66874  1.0000
  O   O12       1.0  0.7326900000000001  0.16948  0.82094  1.0000
  O   O13       1.0  0.5436100000000001  0.026260000000000006  0.63288  1.0000
  O   O14       1.0  0.54341  0.9991599999999998  0.78699  1.0000
  O   O15       1.0  0.55604  0.36758  0.7830700000000003  1.0000
  O   O16       1.0  0.5562100000000001  0.39467  0.62894  1.0000
  F   F1        1.0  0.19179  0.8785499999999999  0.8299400000000002  1.0000
  F   F2        1.0  0.005950000000000006  0.89729  0.9522  1.0000
  F   F3        1.0  0.8082  0.12144999999999997  0.17006000000000004  1.0000
  F   F4        1.0  0.9940400000000001  0.10271000000000001  0.047800000000000016  1.0000
