data_image0
_chemical_formula_structural       Zn4H44C64N8O24
_chemical_formula_sum              "Zn4 H44 C64 N8 O24"
_cell_length_a       11.36867
_cell_length_b       13.41737
_cell_length_c       16.00359
_cell_angle_alpha    90.0
_cell_angle_beta     90.0
_cell_angle_gamma    100.23644999999999

_space_group_name_H-M_alt    "P 1"
_space_group_IT_number       1

loop_
  _space_group_symop_operation_xyz
  'x, y, z'

loop_
  _atom_site_type_symbol
  _atom_site_label
  _atom_site_symmetry_multiplicity
  _atom_site_fract_x
  _atom_site_fract_y
  _atom_site_fract_z
  _atom_site_occupancy
  Zn  Zn1       1.0  0.43088  0.89219  0.57694  1.0000
  Zn  Zn2       1.0  0.56911  0.60781  0.07694  1.0000
  Zn  Zn3       1.0  0.56912  0.10780999999999999  0.4230600000000001  1.0000
  Zn  Zn4       1.0  0.43088  0.39219  0.9230600000000002  1.0000
  H   H1        1.0  0.61418  0.82952  0.89134  1.0000
  H   H2        1.0  0.6007699999999999  0.8509399999999999  0.7826400000000002  1.0000
  H   H3        1.0  0.37386  0.61106  0.7642  1.0000
  H   H4        1.0  0.027539999999999967  0.9352699999999998  0.7104700000000003  1.0000
  H   H5        1.0  0.24775999999999998  0.93624  0.70053  1.0000
  H   H6        1.0  0.21661999999999992  0.8242199999999997  0.45926  1.0000
  H   H7        1.0  0.9978899999999998  0.8209499999999998  0.45711  1.0000
  H   H8        1.0  0.8729599999999998  0.01366  0.66477  1.0000
  H   H9        1.0  0.65734  0.013029999999999998  0.65886  1.0000
  H   H10       1.0  0.59793  0.7604699999999999  0.50473  1.0000
  H   H11       1.0  0.81413  0.74783  0.50611  1.0000
  H   H12       1.0  0.38582  0.6704799999999999  0.39134  1.0000
  H   H13       1.0  0.39922  0.64906  0.28264  1.0000
  H   H14       1.0  0.62613  0.88894  0.2642  1.0000
  H   H15       1.0  0.9724499999999999  0.5647299999999998  0.21047000000000005  1.0000
  H   H16       1.0  0.75224  0.5637499999999999  0.20053  1.0000
  H   H17       1.0  0.78337  0.67577  0.95926  1.0000
  H   H18       1.0  0.0020999999999999396  0.6790499999999998  0.95711  1.0000
  H   H19       1.0  0.12703999999999996  0.4863399999999999  0.16477  1.0000
  H   H20       1.0  0.34266  0.48697  0.15886  1.0000
  H   H21       1.0  0.40206  0.7395299999999998  0.0047300000000000016  1.0000
  H   H22       1.0  0.18586  0.75216  0.00612  1.0000
  H   H23       1.0  0.38582  0.17048  0.10866000000000003  1.0000
  H   H24       1.0  0.39922  0.14905999999999997  0.21736  1.0000
  H   H25       1.0  0.62613  0.38894  0.2358  1.0000
  H   H26       1.0  0.97245  0.06473  0.28953  1.0000
  H   H27       1.0  0.75224  0.06375  0.29947  1.0000
  H   H28       1.0  0.7833800000000001  0.17577  0.5407400000000002  1.0000
  H   H29       1.0  0.002099999999999998  0.17905  0.54289  1.0000
  H   H30       1.0  0.12704  0.9863399999999999  0.33523  1.0000
  H   H31       1.0  0.34264999999999995  0.9869699999999999  0.3411400000000001  1.0000
  H   H32       1.0  0.40206  0.23953  0.49527  1.0000
  H   H33       1.0  0.18586  0.25216  0.49389  1.0000
  H   H34       1.0  0.6141799999999998  0.32951999999999987  0.60867  1.0000
  H   H35       1.0  0.6007799999999999  0.35094  0.71736  1.0000
  H   H36       1.0  0.37386  0.11105999999999998  0.7358  1.0000
  H   H37       1.0  0.027539999999999995  0.43527  0.78953  1.0000
  H   H38       1.0  0.24775999999999995  0.4362399999999999  0.79947  1.0000
  H   H39       1.0  0.21661999999999995  0.32422999999999996  0.04074000000000001  1.0000
  H   H40       1.0  0.9978900000000002  0.32095  0.04289  1.0000
  H   H41       1.0  0.8729599999999998  0.51366  0.8352300000000003  1.0000
  H   H42       1.0  0.6573399999999999  0.5130299999999999  0.84114  1.0000
  H   H43       1.0  0.59793  0.2604699999999999  0.99527  1.0000
  H   H44       1.0  0.81414  0.24783  0.9938900000000003  1.0000
  C   C1        1.0  0.4268199999999999  0.749  0.68978  1.0000
  C   C2        1.0  0.73772  0.7658999999999999  0.81597  1.0000
  C   C3        1.0  0.61542  0.7945199999999999  0.82936  1.0000
  C   C4        1.0  0.43777  0.68196  0.76155  1.0000
  C   C5        1.0  0.52128  0.70099  0.8230900000000002  1.0000
  C   C6        1.0  0.5162099999999998  0.6240099999999997  0.89223  1.0000
  C   C7        1.0  0.06623000000000002  0.91234  0.65291  1.0000
  C   C8        1.0  0.18834  0.91212  0.64823  1.0000
  C   C9        1.0  0.17131  0.84839  0.51337  1.0000
  C   C10       1.0  0.04864999999999999  0.84651  0.51309  1.0000
  C   C11       1.0  0.99346  0.8796599999999998  0.58367  1.0000
  C   C12       1.0  0.86389  0.88109  0.58432  1.0000
  C   C13       1.0  0.8166599999999999  0.9550099999999999  0.62871  1.0000
  C   C14       1.0  0.69472  0.9559199999999998  0.6247800000000002  1.0000
  C   C15       1.0  0.66281  0.8155199999999998  0.53819  1.0000
  C   C16       1.0  0.78345  0.80925  0.5392  1.0000
  C   C17       1.0  0.5731700000000001  0.751  0.18978  1.0000
  C   C18       1.0  0.26228  0.7341  0.31597  1.0000
  C   C19       1.0  0.38456999999999997  0.7054799999999998  0.32936  1.0000
  C   C20       1.0  0.56222  0.81804  0.26155  1.0000
  C   C21       1.0  0.47871  0.79901  0.32309  1.0000
  C   C22       1.0  0.48377999999999993  0.8759899999999999  0.39223  1.0000
  C   C23       1.0  0.93376  0.5876599999999998  0.15291  1.0000
  C   C24       1.0  0.81165  0.58788  0.14823  1.0000
  C   C25       1.0  0.8286799999999999  0.65161  0.01337  1.0000
  C   C26       1.0  0.95134  0.65349  0.01309  1.0000
  C   C27       1.0  0.006529999999999984  0.6203399999999999  0.08367  1.0000
  C   C28       1.0  0.13611  0.61891  0.08432  1.0000
  C   C29       1.0  0.18332999999999997  0.54499  0.12871  1.0000
  C   C30       1.0  0.30527000000000004  0.54408  0.12478  1.0000
  C   C31       1.0  0.33718  0.68447  0.03819  1.0000
  C   C32       1.0  0.21653999999999998  0.69075  0.0392  1.0000
  C   C33       1.0  0.5731700000000001  0.251  0.31022  1.0000
  C   C34       1.0  0.26227999999999996  0.23409999999999995  0.18403  1.0000
  C   C35       1.0  0.38456999999999997  0.20548  0.17064000000000004  1.0000
  C   C36       1.0  0.56222  0.3180399999999999  0.23845  1.0000
  C   C37       1.0  0.47871  0.29900999999999994  0.17692  1.0000
  C   C38       1.0  0.48378  0.37599  0.10777  1.0000
  C   C39       1.0  0.93376  0.08765999999999999  0.3470900000000001  1.0000
  C   C40       1.0  0.81165  0.08788  0.35177  1.0000
  C   C41       1.0  0.8286799999999999  0.15160999999999997  0.48663  1.0000
  C   C42       1.0  0.95134  0.15349  0.4869100000000001  1.0000
  C   C43       1.0  0.006530000000000001  0.12033999999999999  0.41633  1.0000
  C   C44       1.0  0.13611  0.11890999999999997  0.4156800000000001  1.0000
  C   C45       1.0  0.18332999999999997  0.04499  0.37129  1.0000
  C   C46       1.0  0.30527  0.04408  0.37522  1.0000
  C   C47       1.0  0.33718  0.18446999999999994  0.46181  1.0000
  C   C48       1.0  0.21653999999999998  0.19075  0.4608  1.0000
  C   C49       1.0  0.42682999999999993  0.249  0.8102200000000003  1.0000
  C   C50       1.0  0.73772  0.2659  0.68403  1.0000
  C   C51       1.0  0.61542  0.29451999999999995  0.67064  1.0000
  C   C52       1.0  0.43777  0.18195999999999998  0.73845  1.0000
  C   C53       1.0  0.52129  0.20099  0.67692  1.0000
  C   C54       1.0  0.51622  0.12401  0.60777  1.0000
  C   C55       1.0  0.06623  0.41234  0.84709  1.0000
  C   C56       1.0  0.18834  0.41212  0.8517700000000002  1.0000
  C   C57       1.0  0.17130999999999996  0.3483899999999999  0.9866300000000002  1.0000
  C   C58       1.0  0.048650000000000006  0.34651  0.98691  1.0000
  C   C59       1.0  0.99347  0.3796599999999999  0.91633  1.0000
  C   C60       1.0  0.86389  0.38109  0.91568  1.0000
  C   C61       1.0  0.8166599999999999  0.45501  0.8712900000000002  1.0000
  C   C62       1.0  0.69472  0.4559199999999999  0.87522  1.0000
  C   C63       1.0  0.66281  0.3155199999999999  0.96181  1.0000
  C   C64       1.0  0.78345  0.30925  0.9608  1.0000
  N   N1        1.0  0.61881  0.8886899999999999  0.5792400000000002  1.0000
  N   N2        1.0  0.24079999999999996  0.8813399999999999  0.57951  1.0000
  N   N3        1.0  0.38118  0.61131  0.07924  1.0000
  N   N4        1.0  0.7592  0.6186599999999998  0.0795  1.0000
  N   N5        1.0  0.38118  0.11130999999999998  0.42076000000000013  1.0000
  N   N6        1.0  0.7592  0.11865999999999997  0.4205000000000001  1.0000
  N   N7        1.0  0.61881  0.38869  0.9207700000000002  1.0000
  N   N8        1.0  0.24079999999999996  0.38134  0.9205  1.0000
  O   O1        1.0  0.8330599999999999  0.8281699999999999  0.82864  1.0000
  O   O2        1.0  0.7435  0.67621  0.7915200000000002  1.0000
  O   O3        1.0  0.41663  0.71214  0.61705  1.0000
  O   O4        1.0  0.42833999999999994  0.8435499999999998  0.70401  1.0000
  O   O5        1.0  0.5832299999999999  0.6515499999999997  0.955  1.0000
  O   O6        1.0  0.44564999999999994  0.54009  0.88362  1.0000
  O   O7        1.0  0.16693  0.67183  0.32864  1.0000
  O   O8        1.0  0.25649  0.82379  0.29152  1.0000
  O   O9        1.0  0.58336  0.78785  0.11705  1.0000
  O   O10       1.0  0.57165  0.6564499999999998  0.20401  1.0000
  O   O11       1.0  0.4167599999999999  0.8484499999999998  0.4550000000000001  1.0000
  O   O12       1.0  0.55434  0.9599099999999999  0.3836200000000001  1.0000
  O   O13       1.0  0.16693  0.17183  0.17136  1.0000
  O   O14       1.0  0.2564899999999999  0.3237899999999999  0.20849  1.0000
  O   O15       1.0  0.58336  0.28785  0.38295  1.0000
  O   O16       1.0  0.57165  0.15645  0.296  1.0000
  O   O17       1.0  0.41676  0.34845  0.045  1.0000
  O   O18       1.0  0.55434  0.4599099999999999  0.11638  1.0000
  O   O19       1.0  0.83307  0.32817  0.6713600000000002  1.0000
  O   O20       1.0  0.7435  0.17620999999999998  0.70849  1.0000
  O   O21       1.0  0.41663  0.21214  0.88295  1.0000
  O   O22       1.0  0.42834  0.34354999999999997  0.796  1.0000
  O   O23       1.0  0.58324  0.15155  0.545  1.0000
  O   O24       1.0  0.44566  0.04009  0.61638  1.0000
