data_image0
_chemical_formula_structural       Cu4H36C56N4O16
_chemical_formula_sum              "Cu4 H36 C56 N4 O16"
_cell_length_a       10.94004
_cell_length_b       10.98301
_cell_length_c       16.32235
_cell_angle_alpha    90.3728
_cell_angle_beta     97.19492
_cell_angle_gamma    90.727

_symmetry_space_group_name_H-M    'P 1'
_symmetry_Int_Tables_number       1

loop_
  _symmetry_equiv_pos_as_xyz
  'x,y,z'

loop_
  _atom_site_type_symbol
  _atom_site_label
  _atom_site_symmetry_multiplicity
  _atom_site_fract_x
  _atom_site_fract_y
  _atom_site_fract_z
  _atom_site_occupancy
  Cu  Cu1       1.0  0.31542  0.8396100000000001  0.7753100000000003  1.0000
  Cu  Cu2       1.0  0.28436  0.83805  0.61394  1.0000
  Cu  Cu3       1.0  0.68459  0.16039  0.22469  1.0000
  Cu  Cu4       1.0  0.71565  0.16195  0.38606  1.0000
  H   H1        1.0  0.51272  0.88523  0.92763  1.0000
  H   H2        1.0  0.52738  0.8891299999999999  0.08206  1.0000
  H   H3        1.0  0.15193  0.7531799999999998  0.05642  1.0000
  H   H4        1.0  0.15261  0.7598099999999999  0.90401  1.0000
  H   H5        1.0  0.65876  0.83949  0.56236  1.0000
  H   H6        1.0  0.8867199999999998  0.83639  0.56051  1.0000
  H   H7        1.0  0.71241  0.8467499999999999  0.8273200000000003  1.0000
  H   H8        1.0  0.9412100000000002  0.8452100000000001  0.8256000000000002  1.0000
  H   H9        1.0  0.27416  0.21976999999999997  0.56563  1.0000
  H   H10       1.0  0.15755  0.80873  0.18528000000000006  1.0000
  H   H11       1.0  0.32048  0.45931  0.82718  1.0000
  H   H12       1.0  0.3183  0.23093  0.83057  1.0000
  H   H13       1.0  0.45899  0.8433799999999999  0.33363  1.0000
  H   H14       1.0  0.43866  0.8518499999999999  0.20487000000000005  1.0000
  H   H15       1.0  0.27552  0.44815  0.5623000000000001  1.0000
  H   H16       1.0  0.07834000000000002  0.8301  0.46392  1.0000
  H   H17       1.0  0.06058  0.82082  0.31006  1.0000
  H   H18       1.0  0.45841  0.85361  0.48491  1.0000
  H   H19       1.0  0.48728999999999995  0.11477  0.07238  1.0000
  H   H20       1.0  0.47263  0.11087  0.91794  1.0000
  H   H21       1.0  0.84808  0.24681999999999998  0.94358  1.0000
  H   H22       1.0  0.8474  0.24019  0.09599  1.0000
  H   H23       1.0  0.34125  0.16051  0.43764  1.0000
  H   H24       1.0  0.11329000000000004  0.16361  0.4395000000000001  1.0000
  H   H25       1.0  0.2876000000000001  0.15325  0.17268000000000006  1.0000
  H   H26       1.0  0.0588  0.15479  0.17440000000000005  1.0000
  H   H27       1.0  0.72585  0.78023  0.4343800000000001  1.0000
  H   H28       1.0  0.84246  0.19127  0.81472  1.0000
  H   H29       1.0  0.67953  0.54069  0.17282  1.0000
  H   H30       1.0  0.68171  0.76907  0.16943  1.0000
  H   H31       1.0  0.54102  0.15662  0.66637  1.0000
  H   H32       1.0  0.56135  0.14815  0.79513  1.0000
  H   H33       1.0  0.72449  0.55185  0.4377000000000001  1.0000
  H   H34       1.0  0.9216700000000001  0.1699  0.5360800000000002  1.0000
  H   H35       1.0  0.93943  0.17918  0.68994  1.0000
  H   H36       1.0  0.5416  0.14639  0.51509  1.0000
  C   C1        1.0  0.43476  0.8580099999999999  0.95906  1.0000
  C   C2        1.0  0.44258  0.8591899999999999  0.04485  1.0000
  C   C3        1.0  0.33931  0.82499  0.08345  1.0000
  C   C4        1.0  0.23355000000000004  0.7857699999999999  0.031120000000000002  1.0000
  C   C5        1.0  0.23338  0.78793  0.94609  1.0000
  C   C6        1.0  0.72099  0.83999  0.61974  1.0000
  C   C7        1.0  0.67184  0.8423500000000002  0.6951  1.0000
  C   C8        1.0  0.84799  0.83837  0.6186400000000002  1.0000
  C   C9        1.0  0.29937  0.60352  0.69337  1.0000
  C   C10       1.0  0.29821  0.46696  0.69469  1.0000
  C   C11       1.0  0.7516099999999999  0.8444499999999999  0.7693900000000002  1.0000
  C   C12       1.0  0.92781  0.8396000000000001  0.69298  1.0000
  C   C13       1.0  0.8786899999999999  0.84332  0.7683500000000002  1.0000
  C   C14       1.0  0.06447000000000004  0.83742  0.6920500000000003  1.0000
  C   C15       1.0  0.28421  0.27302  0.62249  1.0000
  C   C16       1.0  0.29688  0.21161000000000002  0.69821  1.0000
  C   C17       1.0  0.25026  0.82296  0.21736  1.0000
  C   C18       1.0  0.31029  0.40582  0.77043  1.0000
  C   C19       1.0  0.29855  0.07523  0.69943  1.0000
  C   C20       1.0  0.53531  0.84274  0.69644  1.0000
  C   C21       1.0  0.30948  0.27902  0.7721800000000002  1.0000
  C   C22       1.0  0.37156999999999996  0.8413  0.3586900000000001  1.0000
  C   C23       1.0  0.34664999999999996  0.8328299999999998  0.17308  1.0000
  C   C24       1.0  0.28493  0.39983  0.62063  1.0000
  C   C25       1.0  0.15998  0.83342  0.43201  1.0000
  C   C26       1.0  0.151  0.828  0.3462  1.0000
  C   C27       1.0  0.25867999999999997  0.83126  0.30711  1.0000
  C   C28       1.0  0.37247  0.84658  0.44358  1.0000
  C   C29       1.0  0.56525  0.14199  0.04094000000000001  1.0000
  C   C30       1.0  0.55743  0.14081  0.95515  1.0000
  C   C31       1.0  0.6607  0.17501  0.91656  1.0000
  C   C32       1.0  0.76646  0.21423  0.9688800000000002  1.0000
  C   C33       1.0  0.7666300000000001  0.21207  0.05391  1.0000
  C   C34       1.0  0.27902  0.16001  0.38026  1.0000
  C   C35       1.0  0.32817  0.15765  0.3049  1.0000
  C   C36       1.0  0.15202  0.16163  0.3813600000000001  1.0000
  C   C37       1.0  0.70064  0.39648  0.30663  1.0000
  C   C38       1.0  0.7018000000000001  0.53304  0.3053200000000001  1.0000
  C   C39       1.0  0.2484  0.15555  0.23061000000000006  1.0000
  C   C40       1.0  0.0722  0.1604  0.30702  1.0000
  C   C41       1.0  0.12132999999999998  0.15668  0.23165  1.0000
  C   C42       1.0  0.93554  0.16258  0.30796  1.0000
  C   C43       1.0  0.7158  0.72698  0.37751  1.0000
  C   C44       1.0  0.70313  0.78839  0.30179  1.0000
  C   C45       1.0  0.74975  0.17704  0.78264  1.0000
  C   C46       1.0  0.68972  0.59418  0.22957  1.0000
  C   C47       1.0  0.70146  0.9247699999999999  0.30057  1.0000
  C   C48       1.0  0.46469999999999995  0.15727  0.3035600000000001  1.0000
  C   C49       1.0  0.69053  0.72098  0.22782  1.0000
  C   C50       1.0  0.62844  0.1587  0.6413100000000003  1.0000
  C   C51       1.0  0.65336  0.16717  0.82692  1.0000
  C   C52       1.0  0.71508  0.60017  0.37937  1.0000
  C   C53       1.0  0.84003  0.16658  0.56799  1.0000
  C   C54       1.0  0.84901  0.172  0.6538  1.0000
  C   C55       1.0  0.74133  0.16874  0.69289  1.0000
  C   C56       1.0  0.6275399999999999  0.15343  0.55642  1.0000
  N   N1        1.0  0.26877  0.84215  0.48059  1.0000
  N   N2        1.0  0.33149000000000006  0.8253799999999999  0.9097000000000002  1.0000
  N   N3        1.0  0.73124  0.15785  0.51941  1.0000
  N   N4        1.0  0.66852  0.17462  0.0903  1.0000
  O   O1        1.0  0.10334  0.83112  0.6216  1.0000
  O   O2        1.0  0.30925  0.65736  0.7635000000000002  1.0000
  O   O3        1.0  0.29058  0.65439  0.6230700000000002  1.0000
  O   O4        1.0  0.31614  0.02417  0.77005  1.0000
  O   O5        1.0  0.13121  0.84239  0.76209  1.0000
  O   O6        1.0  0.28387  0.02131  0.62951  1.0000
  O   O7        1.0  0.49667  0.84255  0.76713  1.0000
  O   O8        1.0  0.46819  0.8429100000000002  0.6266100000000002  1.0000
  O   O9        1.0  0.89667  0.16888  0.37841  1.0000
  O   O10       1.0  0.6907600000000002  0.34264  0.23650000000000004  1.0000
  O   O11       1.0  0.70943  0.34561  0.3769300000000001  1.0000
  O   O12       1.0  0.68387  0.97583  0.22996  1.0000
  O   O13       1.0  0.8688  0.15761  0.23791  1.0000
  O   O14       1.0  0.71614  0.97869  0.37049  1.0000
  O   O15       1.0  0.50334  0.15745  0.23287000000000005  1.0000
  O   O16       1.0  0.53182  0.15709  0.37339  1.0000
