data_image0
_chemical_formula_structural       Cd2H48C44N8O8
_chemical_formula_sum              "Cd2 H48 C44 N8 O8"
_cell_length_a       7.31615
_cell_length_b       13.65531
_cell_length_c       14.8783
_cell_angle_alpha    91.75008
_cell_angle_beta     89.99103
_cell_angle_gamma    89.99907

_symmetry_space_group_name_H-M    'P 1'
_symmetry_Int_Tables_number       1

loop_
  _symmetry_equiv_pos_as_xyz
  'x,y,z'

loop_
  _atom_site_type_symbol
  _atom_site_label
  _atom_site_symmetry_multiplicity
  _atom_site_fract_x
  _atom_site_fract_y
  _atom_site_fract_z
  _atom_site_occupancy
  Cd  Cd1       1.0  0.8149299999999998  0.020400000000000012  0.8150800000000002  1.0000
  Cd  Cd2       1.0  0.18508999999999995  0.52025  0.31513  1.0000
  H   H1        1.0  0.81786  0.80796  0.62012  1.0000
  H   H2        1.0  0.44551  0.62011  0.4713100000000001  1.0000
  H   H3        1.0  0.8084299999999999  0.30976  0.63084  1.0000
  H   H4        1.0  0.7584699999999998  0.21591  0.55047  1.0000
  H   H5        1.0  0.49607999999999997  0.24659  0.4320100000000001  1.0000
  H   H6        1.0  0.18653  0.73391  0.51202  1.0000
  H   H7        1.0  0.1337  0.94797  0.4849900000000001  1.0000
  H   H8        1.0  0.55917  0.9219400000000001  0.66061  1.0000
  H   H9        1.0  0.7294499999999998  0.74921  0.36570000000000014  1.0000
  H   H10       1.0  0.8905799999999998  0.68101  0.2988800000000001  1.0000
  H   H11       1.0  0.6688099999999999  0.6318800000000001  0.32037  1.0000
  H   H12       1.0  0.12650999999999998  0.48999  0.54004  1.0000
  H   H13       1.0  0.8690399999999998  0.59158  0.6459000000000003  1.0000
  H   H14       1.0  0.50364  0.29359  0.6989200000000001  1.0000
  H   H15       1.0  0.28947  0.15952  0.6459000000000003  1.0000
  H   H16       1.0  0.44163  0.12768  0.5588600000000002  1.0000
  H   H17       1.0  0.87404  0.04928  0.5899000000000002  1.0000
  H   H18       1.0  0.11007999999999997  0.8530900000000001  0.8290100000000002  1.0000
  H   H19       1.0  0.31707  0.9210300000000002  0.81771  1.0000
  H   H20       1.0  0.2988  0.80233  0.76667  1.0000
  H   H21       1.0  0.71525  0.37926  0.48269  1.0000
  H   H22       1.0  0.56395  0.4154  0.56858  1.0000
  H   H23       1.0  0.19006999999999993  0.23558  0.5020400000000002  1.0000
  H   H24       1.0  0.2503699999999999  0.32743  0.58291  1.0000
  H   H25       1.0  0.18229999999999993  0.30783  0.12009  1.0000
  H   H26       1.0  0.55483  0.12004  0.9712800000000003  1.0000
  H   H27       1.0  0.19156999999999993  0.80967  0.13089  1.0000
  H   H28       1.0  0.24135  0.71567  0.050520000000000016  1.0000
  H   H29       1.0  0.5043599999999999  0.74659  0.9318000000000002  1.0000
  H   H30       1.0  0.81374  0.23384000000000005  0.011990000000000004  1.0000
  H   H31       1.0  0.86647  0.44788000000000006  0.98492  1.0000
  H   H32       1.0  0.44093  0.42181  0.16062000000000007  1.0000
  H   H33       1.0  0.27119  0.249  0.86558  1.0000
  H   H34       1.0  0.10957999999999997  0.18104  0.7988700000000002  1.0000
  H   H35       1.0  0.33115  0.1316  0.8202000000000003  1.0000
  H   H36       1.0  0.8738499999999999  0.98991  0.04008000000000001  1.0000
  H   H37       1.0  0.13138  0.09149  0.14588000000000007  1.0000
  H   H38       1.0  0.49643  0.79369  0.19884000000000004  1.0000
  H   H39       1.0  0.71025  0.6592600000000001  0.14592000000000002  1.0000
  H   H40       1.0  0.5582  0.62755  0.058900000000000015  1.0000
  H   H41       1.0  0.1261  0.54921  0.08984  1.0000
  H   H42       1.0  0.88992  0.35321  0.32903  1.0000
  H   H43       1.0  0.6828799999999998  0.42108  0.31773  1.0000
  H   H44       1.0  0.7012399999999999  0.3024  0.26672  1.0000
  H   H45       1.0  0.28508  0.87915  0.9828000000000002  1.0000
  H   H46       1.0  0.4361799999999999  0.91501  0.06869000000000003  1.0000
  H   H47       1.0  0.80972  0.73516  0.00202  1.0000
  H   H48       1.0  0.7502399999999998  0.8268800000000001  0.08271000000000003  1.0000
  C   C1        1.0  0.67949  0.79212  0.59713  1.0000
  C   C2        1.0  0.8572399999999998  0.6297700000000002  0.4306100000000001  1.0000
  C   C3        1.0  0.35982  0.83262  0.5896600000000001  1.0000
  C   C4        1.0  0.4688299999999999  0.68705  0.51117  1.0000
  C   C5        1.0  0.69723  0.27629  0.59096  1.0000
  C   C6        1.0  0.643  0.15965  0.7151300000000003  1.0000
  C   C7        1.0  0.4494299999999999  0.3081900000000001  0.47582000000000013  1.0000
  C   C8        1.0  0.32501  0.74972  0.53498  1.0000
  C   C9        1.0  0.10644999999999998  0.9499600000000001  0.5564000000000002  1.0000
  C   C10       1.0  0.53579  0.85487  0.6209100000000002  1.0000
  C   C11       1.0  0.7819999999999999  0.67559  0.34932000000000013  1.0000
  C   C12       1.0  0.6449499999999998  0.70939  0.54223  1.0000
  C   C13       1.0  0.02039  0.54058  0.52136  1.0000
  C   C14       1.0  0.8965899999999999  0.59052  0.57453  1.0000
  C   C15       1.0  0.55271  0.23323  0.6543800000000002  1.0000
  C   C16       1.0  0.3915999999999999  0.19004000000000004  0.6004100000000002  1.0000
  C   C17       1.0  0.9818299999999998  0.99989  0.60903  1.0000
  C   C18       1.0  0.14739  0.91321  0.70078  1.0000
  C   C19       1.0  0.36088  0.38194  0.4145000000000001  1.0000
  C   C20       1.0  0.2227  0.86967  0.7830900000000002  1.0000
  C   C21       1.0  0.6119999999999998  0.35121  0.5289000000000001  1.0000
  C   C22       1.0  0.30541  0.26676  0.5405200000000002  1.0000
  C   C23       1.0  0.32069  0.29203  0.09710000000000003  1.0000
  C   C24       1.0  0.14298999999999995  0.12972  0.93058  1.0000
  C   C25       1.0  0.6403699999999998  0.33255  0.08965  1.0000
  C   C26       1.0  0.53146  0.18699  0.011130000000000003  1.0000
  C   C27       1.0  0.3026399999999999  0.77608  0.09098  1.0000
  C   C28       1.0  0.35692  0.6596900000000001  0.21536000000000005  1.0000
  C   C29       1.0  0.5508399999999998  0.80799  0.9758800000000002  1.0000
  C   C30       1.0  0.6752599999999997  0.24965  0.03497  1.0000
  C   C31       1.0  0.8937099999999998  0.4499  0.05635000000000001  1.0000
  C   C32       1.0  0.46436  0.35477  0.12089000000000003  1.0000
  C   C33       1.0  0.21822999999999995  0.17546  0.84924  1.0000
  C   C34       1.0  0.35532  0.20931  0.04218  1.0000
  C   C35       1.0  0.9799599999999998  0.04053  0.021370000000000007  1.0000
  C   C36       1.0  0.10375  0.09043  0.07450000000000002  1.0000
  C   C37       1.0  0.4471  0.7332  0.1545  1.0000
  C   C38       1.0  0.60808  0.68983  0.10054000000000003  1.0000
  C   C39       1.0  0.01823  0.49984  0.10897000000000003  1.0000
  C   C40       1.0  0.8526  0.41326  0.20076  1.0000
  C   C41       1.0  0.63942  0.88195  0.9147300000000002  1.0000
  C   C42       1.0  0.7773  0.36975  0.28310000000000013  1.0000
  C   C43       1.0  0.3881699999999999  0.8509  0.02894  1.0000
  C   C44       1.0  0.6944899999999998  0.76632  0.040540000000000014  1.0000
  N   N1        1.0  0.21113999999999994  0.8954900000000001  0.61503  1.0000
  N   N2        1.0  0.007739999999999999  0.97615  0.6979000000000002  1.0000
  N   N3        1.0  0.99537  0.56579  0.43279  1.0000
  N   N4        1.0  0.7937499999999997  0.64669  0.51653  1.0000
  N   N5        1.0  0.78896  0.39547  0.11500000000000003  1.0000
  N   N6        1.0  0.9922599999999998  0.47619  0.19786000000000006  1.0000
  N   N7        1.0  0.00483  0.06576  0.9327900000000002  1.0000
  N   N8        1.0  0.20655999999999997  0.14661  0.016490000000000008  1.0000
  O   O1        1.0  0.40777  0.47236  0.4223900000000001  1.0000
  O   O2        1.0  0.60098  0.06863000000000001  0.7050800000000003  1.0000
  O   O3        1.0  0.23999999999999994  0.35196  0.35854  1.0000
  O   O4        1.0  0.75982  0.19032000000000002  0.7727900000000002  1.0000
  O   O5        1.0  0.59198  0.97229  0.92247  1.0000
  O   O6        1.0  0.3992  0.56871  0.20541000000000006  1.0000
  O   O7        1.0  0.76036  0.8520700000000002  0.8587300000000001  1.0000
  O   O8        1.0  0.23986999999999994  0.69038  0.2729100000000001  1.0000
