data_image0
_chemical_formula_structural       Cd4H36C56N24O8
_chemical_formula_sum              "Cd4 H36 C56 N24 O8"
_cell_length_a       10.10162
_cell_length_b       12.56359
_cell_length_c       14.55692
_cell_angle_alpha    79.48713
_cell_angle_beta     69.68313
_cell_angle_gamma    66.25305

_space_group_name_H-M_alt    "P 1"
_space_group_IT_number       1

loop_
  _space_group_symop_operation_xyz
  'x, y, z'

loop_
  _atom_site_type_symbol
  _atom_site_label
  _atom_site_symmetry_multiplicity
  _atom_site_fract_x
  _atom_site_fract_y
  _atom_site_fract_z
  _atom_site_occupancy
  Cd  Cd1       1.0  0.9591799999999998  0.63994  0.6224099999999998  1.0000
  Cd  Cd2       1.0  0.22165  0.8604999999999999  0.87753  1.0000
  Cd  Cd3       1.0  0.04082000000000009  0.3600599999999999  0.37758999999999987  1.0000
  Cd  Cd4       1.0  0.7783499999999999  0.1395  0.12247  1.0000
  H   H1        1.0  0.63362  0.41552  0.66768  1.0000
  H   H2        1.0  0.36571  0.9234899999999998  0.68138  1.0000
  H   H3        1.0  0.5102399999999998  0.20605  0.53425  1.0000
  H   H4        1.0  0.74108  0.11482999999999999  0.58554  1.0000
  H   H5        1.0  0.7831600000000001  0.93153  0.69056  1.0000
  H   H6        1.0  0.28326999999999986  0.2978100000000001  0.4931199999999999  1.0000
  H   H7        1.0  0.9850399999999999  0.12403  0.536  1.0000
  H   H8        1.0  0.18059999999999976  0.9960199999999999  0.62224  1.0000
  H   H9        1.0  0.7180099999999998  0.08456999999999998  0.83275  1.0000
  H   H10       1.0  0.9704699999999996  0.57577  0.81727  1.0000
  H   H11       1.0  0.24979000000000012  0.29446999999999995  0.9660799999999999  1.0000
  H   H12       1.0  0.4406  0.38560999999999995  0.91477  1.0000
  H   H13       1.0  0.40392  0.56893  0.8096  1.0000
  H   H14       1.0  0.07439000000000001  0.20207999999999998  0.00682  1.0000
  H   H15       1.0  0.64496  0.37509000000000003  0.96415  1.0000
  H   H16       1.0  0.7980900000000002  0.50361  0.87782  1.0000
  H   H17       1.0  0.3663800000000001  0.58448  0.33232  1.0000
  H   H18       1.0  0.6342899999999998  0.07651  0.31862  1.0000
  H   H19       1.0  0.4897600000000001  0.7939499999999999  0.46575  1.0000
  H   H20       1.0  0.25892000000000004  0.8851699999999998  0.41446  1.0000
  H   H21       1.0  0.21683999999999998  0.06847  0.30944  1.0000
  H   H22       1.0  0.7167299999999999  0.70219  0.50688  1.0000
  H   H23       1.0  0.014960000000000048  0.87597  0.464  1.0000
  H   H24       1.0  0.8193999999999999  0.003980000000000003  0.3777499999999999  1.0000
  H   H25       1.0  0.28198999999999996  0.91543  0.16725  1.0000
  H   H26       1.0  0.02953000000000003  0.42422999999999994  0.18273  1.0000
  H   H27       1.0  0.75021  0.70553  0.03392  1.0000
  H   H28       1.0  0.5594  0.61439  0.08522999999999997  1.0000
  H   H29       1.0  0.59608  0.43107  0.1904  1.0000
  H   H30       1.0  0.9256100000000003  0.7979199999999999  0.9931799999999997  1.0000
  H   H31       1.0  0.35503999999999986  0.62491  0.03585  1.0000
  H   H32       1.0  0.20191000000000003  0.49639  0.12217999999999998  1.0000
  H   H33       1.0  0.5509799999999996  0.24951  0.74988  1.0000
  H   H34       1.0  0.043360000000000044  0.25082  0.74922  1.0000
  H   H35       1.0  0.44902  0.75049  0.25012  1.0000
  H   H36       1.0  0.9566399999999999  0.74918  0.25078  1.0000
  C   C1        1.0  0.7040399999999999  0.34226  0.7036499999999999  1.0000
  C   C2        1.0  0.8421799999999999  0.34354000000000007  0.70391  1.0000
  C   C3        1.0  0.88421  0.44656  0.65767  1.0000
  C   C4        1.0  0.57411  0.91752  0.69458  1.0000
  C   C5        1.0  0.44460999999999995  0.9681299999999999  0.66308  1.0000
  C   C6        1.0  0.41803999999999997  0.07326999999999997  0.60647  1.0000
  C   C7        1.0  0.52704  0.12551  0.57951  1.0000
  C   C8        1.0  0.6574399999999999  0.07383  0.60871  1.0000
  C   C9        1.0  0.6819499999999997  0.97052  0.66686  1.0000
  C   C10       1.0  0.5943600000000001  0.81123  0.75823  1.0000
  C   C11       1.0  0.2851699999999999  0.12644999999999995  0.57218  1.0000
  C   C12       1.0  0.23716999999999994  0.22968  0.51842  1.0000
  C   C13       1.0  0.07806999999999999  0.14375  0.53929  1.0000
  C   C14       1.0  0.7509000000000001  0.15778  0.79633  1.0000
  C   C15       1.0  0.8904999999999998  0.15741  0.79555  1.0000
  C   C16       1.0  0.9904500000000002  0.054700000000000006  0.8414699999999999  1.0000
  C   C17       1.0  0.18538  0.58243  0.80515  1.0000
  C   C18       1.0  0.07536999999999994  0.53152  0.83615  1.0000
  C   C19       1.0  0.0973699999999999  0.42660999999999993  0.89312  1.0000
  C   C20       1.0  0.23142000000000013  0.37473  0.9204799999999997  1.0000
  C   C21       1.0  0.33923  0.42643999999999993  0.89138  1.0000
  C   C22       1.0  0.3183099999999998  0.5297  0.8332  1.0000
  C   C23       1.0  0.16317999999999994  0.6887900000000001  0.74153  1.0000
  C   C24       1.0  0.9835999999999999  0.37327  0.92753  1.0000
  C   C25       1.0  0.9853699999999999  0.2700599999999999  0.98143  1.0000
  C   C26       1.0  0.7610600000000001  0.35558999999999996  0.96064  1.0000
  C   C27       1.0  0.29595999999999995  0.65774  0.29635  1.0000
  C   C28       1.0  0.15782000000000002  0.65646  0.29608999999999996  1.0000
  C   C29       1.0  0.11579000000000002  0.55344  0.34233  1.0000
  C   C30       1.0  0.42589  0.08247999999999997  0.30542  1.0000
  C   C31       1.0  0.55539  0.03187000000000001  0.33691999999999994  1.0000
  C   C32       1.0  0.5819599999999999  0.92673  0.39353  1.0000
  C   C33       1.0  0.4729600000000001  0.87449  0.42049  1.0000
  C   C34       1.0  0.34255999999999986  0.92617  0.39129  1.0000
  C   C35       1.0  0.31805  0.029479999999999996  0.33314  1.0000
  C   C36       1.0  0.40563999999999995  0.18877  0.24177  1.0000
  C   C37       1.0  0.7148299999999999  0.87355  0.42781  1.0000
  C   C38       1.0  0.76283  0.77032  0.48158  1.0000
  C   C39       1.0  0.92193  0.85625  0.46071  1.0000
  C   C40       1.0  0.24909999999999985  0.84222  0.20367  1.0000
  C   C41       1.0  0.1095  0.84259  0.20444  1.0000
  C   C42       1.0  0.009549999999999994  0.9453  0.15853  1.0000
  C   C43       1.0  0.81462  0.41756999999999994  0.19485  1.0000
  C   C44       1.0  0.92463  0.46848  0.16385  1.0000
  C   C45       1.0  0.90263  0.57339  0.10688  1.0000
  C   C46       1.0  0.7685800000000002  0.62527  0.07952  1.0000
  C   C47       1.0  0.6607699999999997  0.57356  0.10862  1.0000
  C   C48       1.0  0.68169  0.4703  0.1668  1.0000
  C   C49       1.0  0.8368199999999999  0.31121  0.25847  1.0000
  C   C50       1.0  0.016399999999999977  0.62673  0.07247  1.0000
  C   C51       1.0  0.014629999999999975  0.72994  0.01857  1.0000
  C   C52       1.0  0.23893999999999999  0.64441  0.03936  1.0000
  C   C53       1.0  0.6584499999999998  0.24975999999999998  0.74997  1.0000
  C   C54       1.0  0.93564  0.25062  0.74954  1.0000
  C   C55       1.0  0.34155  0.7502399999999999  0.25003  1.0000
  C   C56       1.0  0.06436000000000003  0.74938  0.25046  1.0000
  N   N1        1.0  0.7274399999999999  0.72301  0.75621  1.0000
  N   N2        1.0  0.69322  0.64591  0.8296999999999999  1.0000
  N   N3        1.0  0.5464699999999998  0.68423  0.87508  1.0000
  N   N4        1.0  0.4813599999999997  0.78815  0.83166  1.0000
  N   N5        1.0  0.18103000000000005  0.07503999999999997  0.58482  1.0000
  N   N6        1.0  0.10912000000000001  0.23889999999999997  0.4982  1.0000
  N   N7        1.0  0.20505000000000004  0.77721  0.74425  1.0000
  N   N8        1.0  0.1684500000000001  0.8540799999999997  0.67034  1.0000
  N   N9        1.0  0.10690000000000008  0.8154899999999999  0.62411  1.0000
  N   N10       1.0  0.10212000000000003  0.71157  0.66736  1.0000
  N   N11       1.0  0.84054  0.42445  0.91496  1.0000
  N   N12       1.0  0.8464299999999998  0.26061  0.0017599999999999998  1.0000
  N   N13       1.0  0.27255999999999997  0.27699  0.24378  1.0000
  N   N14       1.0  0.30678000000000005  0.35408999999999996  0.1703  1.0000
  N   N15       1.0  0.45353  0.31577  0.12492  1.0000
  N   N16       1.0  0.51864  0.21185  0.16833999999999996  1.0000
  N   N17       1.0  0.81897  0.9249599999999999  0.41518  1.0000
  N   N18       1.0  0.8908800000000001  0.7610999999999998  0.5018  1.0000
  N   N19       1.0  0.7949499999999999  0.22279  0.25574  1.0000
  N   N20       1.0  0.83155  0.14592  0.3296599999999999  1.0000
  N   N21       1.0  0.8930999999999998  0.18451  0.37589  1.0000
  N   N22       1.0  0.89788  0.28843  0.33264  1.0000
  N   N23       1.0  0.15946  0.57555  0.08504  1.0000
  N   N24       1.0  0.15357000000000012  0.7393899999999999  0.99824  1.0000
  O   O1        1.0  0.80877  0.52205  0.6061299999999998  1.0000
  O   O2        1.0  0.9950899999999999  0.45603  0.67671  1.0000
  O   O3        1.0  0.9378400000000001  0.98129  0.89611  1.0000
  O   O4        1.0  0.13136000000000012  0.043020000000000023  0.8192099999999999  1.0000
  O   O5        1.0  0.19123000000000012  0.47795  0.3938699999999999  1.0000
  O   O6        1.0  0.004910000000000037  0.54397  0.32329  1.0000
  O   O7        1.0  0.06216  0.01871  0.10389  1.0000
  O   O8        1.0  0.8686399999999997  0.95698  0.18078999999999998  1.0000
