data_image0
_chemical_formula_structural       Mn6H32C60N4O28
_chemical_formula_sum              "Mn6 H32 C60 N4 O28"
_cell_length_a       11.94506
_cell_length_b       12.36455
_cell_length_c       17.4721
_cell_angle_alpha    89.99632999999999
_cell_angle_beta     89.88959
_cell_angle_gamma    92.84678

_symmetry_space_group_name_H-M    'P 1'
_symmetry_Int_Tables_number       1

loop_
  _symmetry_equiv_pos_as_xyz
  'x,y,z'

loop_
  _atom_site_type_symbol
  _atom_site_label
  _atom_site_symmetry_multiplicity
  _atom_site_fract_x
  _atom_site_fract_y
  _atom_site_fract_z
  _atom_site_occupancy
  Mn  Mn1       1.0  0.60759  0.05302999999999999  0.19131000000000006  1.0000
  Mn  Mn2       1.0  0.8881899999999999  0.9402999999999998  0.68329  1.0000
  Mn  Mn3       1.0  0.39209  0.94677  0.80896  1.0000
  Mn  Mn4       1.0  0.11341999999999999  0.05775999999999999  0.3179800000000001  1.0000
  Mn  Mn5       1.0  0.5002  0.4999299999999999  0.00014  1.0000
  Mn  Mn6       1.0  0.0009199999999999998  0.4988  0.49985  1.0000
  H   H1        1.0  0.29744  0.31519  0.17745  1.0000
  H   H2        1.0  0.17349  0.62798  0.13169  1.0000
  H   H3        1.0  0.9973099999999999  0.41129  0.29086  1.0000
  H   H4        1.0  0.004789999999999986  0.6845399999999998  0.19415000000000004  1.0000
  H   H5        1.0  0.94137  0.6087299999999999  0.27164  1.0000
  H   H6        1.0  0.83717  0.7609799999999999  0.20383  1.0000
  H   H7        1.0  0.51912  0.7187  0.08814  1.0000
  H   H8        1.0  0.7371  0.46702999999999995  0.08142  1.0000
  H   H9        1.0  0.20689999999999997  0.6876699999999999  0.6728000000000002  1.0000
  H   H10       1.0  0.32704  0.37211  0.63137  1.0000
  H   H11       1.0  0.50399  0.59026  0.7887  1.0000
  H   H12       1.0  0.49529999999999996  0.31533999999999995  0.69417  1.0000
  H   H13       1.0  0.55797  0.3914399999999999  0.77168  1.0000
  H   H14       1.0  0.661  0.23491999999999993  0.70051  1.0000
  H   H15       1.0  0.98235  0.27865  0.58807  1.0000
  H   H16       1.0  0.76685  0.5324399999999999  0.5845  1.0000
  H   H17       1.0  0.7016800000000001  0.68248  0.82156  1.0000
  H   H18       1.0  0.82697  0.3703799999999999  0.86838  1.0000
  H   H19       1.0  0.0025399999999999997  0.58714  0.70899  1.0000
  H   H20       1.0  0.9957899999999998  0.31427  0.80606  1.0000
  H   H21       1.0  0.05907  0.38993999999999995  0.7284500000000002  1.0000
  H   H22       1.0  0.16289  0.2383  0.797  1.0000
  H   H23       1.0  0.48226  0.28236  0.91078  1.0000
  H   H24       1.0  0.26364  0.53344  0.91767  1.0000
  H   H25       1.0  0.7934  0.31243999999999994  0.32784  1.0000
  H   H26       1.0  0.6729599999999999  0.62785  0.3689500000000001  1.0000
  H   H27       1.0  0.49786  0.4105399999999999  0.2102  1.0000
  H   H28       1.0  0.5043799999999999  0.6835699999999998  0.30767  1.0000
  H   H29       1.0  0.44318  0.61012  0.22856000000000004  1.0000
  H   H30       1.0  0.34032  0.7632799999999997  0.3004200000000001  1.0000
  H   H31       1.0  0.020279999999999992  0.7195899999999998  0.41409  1.0000
  H   H32       1.0  0.23479  0.46486999999999995  0.41558  1.0000
  C   C1        1.0  0.13327  0.24230999999999994  0.27077  1.0000
  C   C2        1.0  0.14629  0.35266999999999993  0.23836  1.0000
  C   C3        1.0  0.23655  0.3757  0.18884  1.0000
  C   C4        1.0  0.24825999999999998  0.47635  0.15262000000000003  1.0000
  C   C5        1.0  0.34435  0.49619999999999986  0.09884  1.0000
  C   C6        1.0  0.16606  0.5520799999999999  0.16336  1.0000
  C   C7        1.0  0.07457  0.5287299999999999  0.21187000000000006  1.0000
  C   C8        1.0  0.06646  0.4299799999999999  0.25146  1.0000
  C   C9        1.0  0.97869  0.6028999999999999  0.21431  1.0000
  C   C10       1.0  0.80076  0.60591  0.14714000000000005  1.0000
  C   C11       1.0  0.7783  0.71075  0.17025  1.0000
  C   C12       1.0  0.6758199999999999  0.75214  0.14849  1.0000
  C   C13       1.0  0.6513199999999999  0.8654499999999998  0.16702  1.0000
  C   C14       1.0  0.5994399999999999  0.6886899999999999  0.10525000000000001  1.0000
  C   C15       1.0  0.72065  0.54796  0.10185000000000001  1.0000
  C   C16       1.0  0.37118  0.7616999999999998  0.76451  1.0000
  C   C17       1.0  0.35674  0.64992  0.73453  1.0000
  C   C18       1.0  0.26676  0.6266  0.68513  1.0000
  C   C19       1.0  0.25405999999999995  0.5250499999999999  0.65039  1.0000
  C   C20       1.0  0.15813000000000005  0.50448  0.5969500000000001  1.0000
  C   C21       1.0  0.3353  0.4487099999999999  0.66212  1.0000
  C   C22       1.0  0.42651  0.47213  0.71061  1.0000
  C   C23       1.0  0.43520000000000003  0.57176  0.74916  1.0000
  C   C24       1.0  0.52167  0.39694999999999997  0.7141  1.0000
  C   C25       1.0  0.7007599999999999  0.39187  0.6473500000000001  1.0000
  C   C26       1.0  0.7214400000000001  0.28580999999999995  0.66851  1.0000
  C   C27       1.0  0.82412  0.24433999999999995  0.64666  1.0000
  C   C28       1.0  0.84707  0.12961999999999999  0.66211  1.0000
  C   C29       1.0  0.90212  0.30894999999999995  0.60538  1.0000
  C   C30       1.0  0.78237  0.4507299999999999  0.60361  1.0000
  C   C31       1.0  0.8642199999999999  0.7557799999999999  0.72885  1.0000
  C   C32       1.0  0.8525099999999999  0.64499  0.76069  1.0000
  C   C33       1.0  0.76251  0.62186  0.81032  1.0000
  C   C34       1.0  0.75148  0.5217899999999999  0.8472000000000002  1.0000
  C   C35       1.0  0.65562  0.5029699999999999  0.9012700000000002  1.0000
  C   C36       1.0  0.83394  0.4461999999999999  0.83659  1.0000
  C   C37       1.0  0.92532  0.4695999999999999  0.78796  1.0000
  C   C38       1.0  0.93306  0.5681499999999999  0.74805  1.0000
  C   C39       1.0  0.021619999999999997  0.39589  0.78575  1.0000
  C   C40       1.0  0.19968000000000002  0.39399999999999996  0.85266  1.0000
  C   C41       1.0  0.22213999999999998  0.2890499999999999  0.82987  1.0000
  C   C42       1.0  0.32493  0.24797999999999998  0.8512000000000002  1.0000
  C   C43       1.0  0.34919999999999995  0.1345  0.83296  1.0000
  C   C44       1.0  0.40158  0.31183  0.8939300000000001  1.0000
  C   C45       1.0  0.28007  0.45243  0.89741  1.0000
  C   C46       1.0  0.62903  0.23830999999999994  0.23550000000000001  1.0000
  C   C47       1.0  0.64402  0.35013  0.2653300000000001  1.0000
  C   C48       1.0  0.73357  0.37336999999999987  0.31512  1.0000
  C   C49       1.0  0.74649  0.4750099999999999  0.34962  1.0000
  C   C50       1.0  0.8421299999999999  0.4951099999999999  0.40332  1.0000
  C   C51       1.0  0.6655  0.55155  0.33779  1.0000
  C   C52       1.0  0.57477  0.5281299999999999  0.2889  1.0000
  C   C53       1.0  0.56623  0.4286899999999999  0.25017  1.0000
  C   C54       1.0  0.4791099999999999  0.6024899999999999  0.28611000000000003  1.0000
  C   C55       1.0  0.30077  0.60536  0.3529600000000001  1.0000
  C   C56       1.0  0.2806  0.71189  0.3326500000000001  1.0000
  C   C57       1.0  0.17872999999999997  0.75389  0.35551  1.0000
  C   C58       1.0  0.15745  0.86897  0.3406  1.0000
  C   C59       1.0  0.10036999999999999  0.68932  0.39649  1.0000
  C   C60       1.0  0.21918  0.54667  0.39671  1.0000
  N   N1        1.0  0.62303  0.5884599999999999  0.08152  1.0000
  N   N2        1.0  0.88002  0.41018  0.58316  1.0000
  N   N3        1.0  0.37797  0.41217  0.9174200000000001  1.0000
  N   N4        1.0  0.12185  0.58743  0.41760000000000014  1.0000
  O   O1        1.0  0.1758399999999999  0.16354999999999997  0.23412  1.0000
  O   O2        1.0  0.08004  0.22168999999999994  0.3338  1.0000
  O   O3        1.0  0.35333  0.58162  0.05766000000000001  1.0000
  O   O4        1.0  0.41653  0.42261999999999994  0.09449  1.0000
  O   O5        1.0  0.89507  0.5530599999999999  0.16256000000000004  1.0000
  O   O6        1.0  0.54904  0.8952599999999997  0.16688000000000003  1.0000
  O   O7        1.0  0.73154  0.9351399999999999  0.18139000000000002  1.0000
  O   O8        1.0  0.33714  0.84043  0.7234800000000002  1.0000
  O   O9        1.0  0.41759  0.78345  0.82963  1.0000
  O   O10       1.0  0.14888  0.41797  0.55702  1.0000
  O   O11       1.0  0.08651  0.5783799999999999  0.59155  1.0000
  O   O12       1.0  0.60671  0.44532999999999995  0.66261  1.0000
  O   O13       1.0  0.9492  0.09992  0.66686  1.0000
  O   O14       1.0  0.7659  0.058729999999999984  0.66894  1.0000
  O   O15       1.0  0.8185600000000001  0.83313  0.76499  1.0000
  O   O16       1.0  0.92036  0.77822  0.66707  1.0000
  O   O17       1.0  0.6465099999999999  0.4180599999999999  0.9429300000000002  1.0000
  O   O18       1.0  0.58389  0.577  0.9054300000000001  1.0000
  O   O19       1.0  0.10496  0.4462499999999999  0.8374500000000002  1.0000
  O   O20       1.0  0.45152  0.10537999999999997  0.82963  1.0000
  O   O21       1.0  0.26847  0.06394  0.82231  1.0000
  O   O22       1.0  0.66276  0.1595  0.27662  1.0000
  O   O23       1.0  0.58231  0.21651999999999993  0.17051  1.0000
  O   O24       1.0  0.85149  0.5814199999999999  0.44332  1.0000
  O   O25       1.0  0.91353  0.4207899999999999  0.40852  1.0000
  O   O26       1.0  0.39396  0.55118  0.33653  1.0000
  O   O27       1.0  0.055729999999999995  0.9006999999999998  0.34067  1.0000
  O   O28       1.0  0.2393  0.9376799999999998  0.32923  1.0000
