data_image0
_chemical_formula_structural       Ho2H54C60N6O12
_chemical_formula_sum              "Ho2 H54 C60 N6 O12"
_cell_length_a       9.30935
_cell_length_b       12.62997
_cell_length_c       18.66569
_cell_angle_alpha    106.78779
_cell_angle_beta     97.08703
_cell_angle_gamma    100.86431

_symmetry_space_group_name_H-M    'P 1'
_symmetry_Int_Tables_number       1

loop_
  _symmetry_equiv_pos_as_xyz
  'x,y,z'

loop_
  _atom_site_type_symbol
  _atom_site_label
  _atom_site_symmetry_multiplicity
  _atom_site_fract_x
  _atom_site_fract_y
  _atom_site_fract_z
  _atom_site_occupancy
  Ho  Ho1       1.0  0.28330000000000005  0.4865400000000001  0.49623  1.0000
  Ho  Ho2       1.0  0.7168900000000001  0.51361  0.50387  1.0000
  H   H1        1.0  0.5851000000000001  0.05040000000000001  0.09490999999999998  1.0000
  H   H2        1.0  0.42233  0.0757  0.05308  1.0000
  H   H3        1.0  0.6233  0.6733100000000001  0.09357  1.0000
  H   H4        1.0  0.46737000000000006  0.55746  0.060309999999999996  1.0000
  H   H5        1.0  0.97789  0.75337  0.95319  1.0000
  H   H6        1.0  0.98765  0.61688  0.9546  1.0000
  H   H7        1.0  0.6660400000000001  0.8337100000000002  0.17433  1.0000
  H   H8        1.0  0.60257  0.95908  0.20306  1.0000
  H   H9        1.0  0.70371  0.9375300000000001  0.12816  1.0000
  H   H10       1.0  0.28765  0.50254  0.9544  1.0000
  H   H11       1.0  0.10566999999999999  0.51592  0.96257  1.0000
  H   H12       1.0  0.22601000000000002  0.5079700000000001  0.04112  1.0000
  H   H13       1.0  0.13694999999999996  0.8948  0.92286  1.0000
  H   H14       1.0  0.2315  0.01934999999999998  0.99881  1.0000
  H   H15       1.0  0.06681000000000006  0.9336600000000003  0.00802  1.0000
  H   H16       1.0  0.6773100000000001  0.16869000000000006  0.20626  1.0000
  H   H17       1.0  0.6537999999999999  0.29410000000000003  0.33212999999999987  1.0000
  H   H18       1.0  0.17531  0.16416000000000003  0.26834  1.0000
  H   H19       1.0  0.21252  0.038779999999999974  0.14418999999999996  1.0000
  H   H20       1.0  0.73566  0.65417  0.19714  1.0000
  H   H21       1.0  0.7376799999999999  0.63624  0.32743  1.0000
  H   H22       1.0  0.26377999999999996  0.61377  0.29422999999999994  1.0000
  H   H23       1.0  0.27556  0.6411  0.16727  1.0000
  H   H24       1.0  0.27967  0.647  0.87745  1.0000
  H   H25       1.0  0.28243  0.57497  0.73931  1.0000
  H   H26       1.0  0.82109  0.5919  0.6927899999999998  1.0000
  H   H27       1.0  0.83031  0.66256  0.83275  1.0000
  H   H28       1.0  0.41528999999999994  0.9495699999999999  0.9049999999999999  1.0000
  H   H29       1.0  0.5781799999999999  0.9240999999999999  0.9466399999999999  1.0000
  H   H30       1.0  0.37786  0.32702  0.90634  1.0000
  H   H31       1.0  0.53395  0.44263  0.93972  1.0000
  H   H32       1.0  0.02250000000000001  0.24660000000000007  0.04755  1.0000
  H   H33       1.0  0.012629999999999997  0.38306  0.04591  1.0000
  H   H34       1.0  0.33487  0.16655000000000011  0.82557  1.0000
  H   H35       1.0  0.39763  0.040839999999999946  0.79681  1.0000
  H   H36       1.0  0.29724  0.06312999999999998  0.87209  1.0000
  H   H37       1.0  0.71289  0.4974400000000001  0.04552999999999999  1.0000
  H   H38       1.0  0.89497  0.48405000000000004  0.03762  1.0000
  H   H39       1.0  0.77519  0.49190000000000006  0.95895  1.0000
  H   H40       1.0  0.86324  0.10494  0.07729  1.0000
  H   H41       1.0  0.76856  0.98044  0.00133  1.0000
  H   H42       1.0  0.9334000000000001  0.06592999999999997  0.9921599999999999  1.0000
  H   H43       1.0  0.32278000000000007  0.8318000000000001  0.79259  1.0000
  H   H44       1.0  0.3470099999999999  0.70655  0.6668599999999998  1.0000
  H   H45       1.0  0.82558  0.83474  0.73218  1.0000
  H   H46       1.0  0.7873200000000001  0.9597400000000001  0.8563  1.0000
  H   H47       1.0  0.26585000000000003  0.3476100000000001  0.80304  1.0000
  H   H48       1.0  0.26417  0.36527  0.6726  1.0000
  H   H49       1.0  0.7373599999999999  0.3850099999999999  0.7053399999999997  1.0000
  H   H50       1.0  0.7254000000000002  0.3585300000000001  0.83257  1.0000
  H   H51       1.0  0.72129  0.35466  0.12317  1.0000
  H   H52       1.0  0.71875  0.4262  0.26148  1.0000
  H   H53       1.0  0.17864  0.40594  0.30764  1.0000
  H   H54       1.0  0.16898  0.33517  0.16755  1.0000
  C   C1        1.0  0.39585000000000004  0.9090800000000001  0.06797  1.0000
  C   C2        1.0  0.47427  0.83952  0.0965  1.0000
  C   C3        1.0  0.41681  0.7209900000000001  0.07165  1.0000
  C   C4        1.0  0.27773  0.67136  0.02152  1.0000
  C   C5        1.0  0.1976  0.74178  0.99587  1.0000
  C   C6        1.0  0.25786  0.86044  0.01746  1.0000
  C   C7        1.0  0.46485000000000004  0.03578000000000001  0.09362  1.0000
  C   C8        1.0  0.50651  0.6461100000000001  0.09797  1.0000
  C   C9        1.0  0.04811999999999996  0.69186  0.94286  1.0000
  C   C10       1.0  0.6189500000000001  0.8941800000000002  0.15299999999999994  1.0000
  C   C11       1.0  0.22067999999999988  0.5433599999999998  0.9938199999999999  1.0000
  C   C12       1.0  0.1700000000000001  0.9310600000000002  0.98519  1.0000
  C   C13       1.0  0.57027  0.16928  0.22348  1.0000
  C   C14       1.0  0.55512  0.23732000000000003  0.29233  1.0000
  C   C15       1.0  0.41199  0.23836000000000002  0.31146  1.0000
  C   C16       1.0  0.28655  0.1649  0.25589  1.0000
  C   C17       1.0  0.30456  0.09691  0.18750999999999998  1.0000
  C   C18       1.0  0.39435999999999993  0.3171  0.3824399999999999  1.0000
  C   C19       1.0  0.63609  0.647  0.22189  1.0000
  C   C20       1.0  0.6352400000000001  0.63698  0.29272  1.0000
  C   C21       1.0  0.50101  0.6245900000000002  0.3219  1.0000
  C   C22       1.0  0.36881  0.6241100000000002  0.27425  1.0000
  C   C23       1.0  0.37241  0.63677  0.20411999999999997  1.0000
  C   C24       1.0  0.5003299999999998  0.60641  0.39597  1.0000
  C   C25       1.0  0.18231999999999995  0.63317  0.8344899999999998  1.0000
  C   C26       1.0  0.18165000000000006  0.5943600000000002  0.75804  1.0000
  C   C27       1.0  0.052199999999999934  0.57988  0.7030699999999998  1.0000
  C   C28       1.0  0.92332  0.60373  0.73229  1.0000
  C   C29       1.0  0.92631  0.6427100000000001  0.8089  1.0000
  C   C30       1.0  0.05271999999999998  0.54565  0.6214099999999999  1.0000
  C   C31       1.0  0.60476  0.09083  0.93191  1.0000
  C   C32       1.0  0.5265900000000001  0.16051000000000004  0.90335  1.0000
  C   C33       1.0  0.58418  0.2790200000000001  0.92826  1.0000
  C   C34       1.0  0.72301  0.3286  0.97863  1.0000
  C   C35       1.0  0.8028  0.25817000000000007  0.00449  1.0000
  C   C36       1.0  0.7425299999999999  0.13945999999999995  0.9826799999999999  1.0000
  C   C37       1.0  0.5354699999999999  0.9640300000000002  0.9061299999999998  1.0000
  C   C38       1.0  0.49468  0.35406999999999994  0.90196  1.0000
  C   C39       1.0  0.95216  0.30807  0.057659999999999996  1.0000
  C   C40       1.0  0.38179  0.10599999999999987  0.8468999999999999  1.0000
  C   C41       1.0  0.78007  0.4565700000000001  0.0062699999999999995  1.0000
  C   C42       1.0  0.83019  0.06872  0.01496  1.0000
  C   C43       1.0  0.43002000000000007  0.8308000000000002  0.77568  1.0000
  C   C44       1.0  0.44579  0.7627300000000002  0.70688  1.0000
  C   C45       1.0  0.5892400000000001  0.76124  0.68822  1.0000
  C   C46       1.0  0.71418  0.83435  0.7442699999999999  1.0000
  C   C47       1.0  0.6956  0.9021500000000002  0.81256  1.0000
  C   C48       1.0  0.6087800000000002  0.6832600000000002  0.6174  1.0000
  C   C49       1.0  0.36527999999999994  0.35406999999999994  0.7781399999999998  1.0000
  C   C50       1.0  0.36627000000000004  0.36385  0.70723  1.0000
  C   C51       1.0  0.50031  0.3754100000000001  0.67791  1.0000
  C   C52       1.0  0.63238  0.37537  0.72547  1.0000
  C   C53       1.0  0.6286800000000001  0.3631099999999999  0.7956999999999997  1.0000
  C   C54       1.0  0.5006099999999999  0.39342999999999995  0.6037999999999999  1.0000
  C   C55       1.0  0.8183100000000001  0.36763000000000007  0.16602999999999998  1.0000
  C   C56       1.0  0.8190200000000001  0.40619000000000005  0.24248  1.0000
  C   C57       1.0  0.9482600000000001  0.41983  0.29721  1.0000
  C   C58       1.0  0.07684000000000003  0.3951500000000001  0.26808  1.0000
  C   C59       1.0  0.07357999999999999  0.35623  0.1915  1.0000
  C   C60       1.0  0.9473800000000001  0.45371000000000006  0.37874  1.0000
  N   N1        1.0  0.44642999999999994  0.0967  0.17027  1.0000
  N   N2        1.0  0.50612  0.65076  0.17720999999999998  1.0000
  N   N3        1.0  0.05714000000000003  0.6617900000000001  0.86167  1.0000
  N   N4        1.0  0.5536000000000001  0.9028700000000001  0.82939  1.0000
  N   N5        1.0  0.49506  0.34975  0.82275  1.0000
  N   N6        1.0  0.94302  0.3381300000000001  0.13881  1.0000
  O   O1        1.0  0.26306  0.32031  0.3961  1.0000
  O   O2        1.0  0.51137  0.38609000000000004  0.42881  1.0000
  O   O3        1.0  0.37327  0.57727  0.41425  1.0000
  O   O4        1.0  0.62793  0.61853  0.43668  1.0000
  O   O5        1.0  0.17867  0.54  0.60015  1.0000
  O   O6        1.0  0.9304500000000001  0.52343  0.57417  1.0000
  O   O7        1.0  0.74083  0.68221  0.6041  1.0000
  O   O8        1.0  0.49310999999999994  0.61261  0.5707099999999999  1.0000
  O   O9        1.0  0.62775  0.4225700000000001  0.58565  1.0000
  O   O10       1.0  0.37299999999999994  0.3814699999999999  0.5631199999999998  1.0000
  O   O11       1.0  0.82144  0.45912  0.39991999999999994  1.0000
  O   O12       1.0  0.06988000000000004  0.4764500000000001  0.42594  1.0000
