data_image0
_chemical_formula_structural       Fe4H32C48N8O18
_chemical_formula_sum              "Fe4 H32 C48 N8 O18"
_cell_length_a       10.32496
_cell_length_b       11.58312
_cell_length_c       13.950490000000002
_cell_angle_alpha    105.1126
_cell_angle_beta     100.99142
_cell_angle_gamma    114.32661999999999

_space_group_name_H-M_alt    "P 1"
_space_group_IT_number       1

loop_
  _space_group_symop_operation_xyz
  'x, y, z'

loop_
  _atom_site_type_symbol
  _atom_site_label
  _atom_site_symmetry_multiplicity
  _atom_site_fract_x
  _atom_site_fract_y
  _atom_site_fract_z
  _atom_site_occupancy
  Fe  Fe1       1.0  0.7998400000000002  0.001830000000000141  0.7875800000000002  1.0000
  Fe  Fe2       1.0  0.45807  0.73887  0.69026  1.0000
  Fe  Fe3       1.0  0.19996  0.9979  0.21234  1.0000
  Fe  Fe4       1.0  0.54185  0.26102  0.30961  1.0000
  H   H1        1.0  0.03251000000000006  0.11232000000000004  0.9929000000000001  1.0000
  H   H2        1.0  0.47245  0.2062700000000001  0.9701800000000003  1.0000
  H   H3        1.0  0.07192000000000003  0.023290000000000036  0.69754  1.0000
  H   H4        1.0  0.3506099999999999  0.1086  0.7744  1.0000
  H   H5        1.0  0.43465999999999994  0.85061  0.90423  1.0000
  H   H6        1.0  0.98348  0.7819600000000001  0.8744200000000002  1.0000
  H   H7        1.0  0.6820800000000001  0.020030000000000006  0.57865  1.0000
  H   H8        1.0  0.98825  0.50559  0.81438  1.0000
  H   H9        1.0  0.96739  0.31460000000000005  0.8758600000000001  1.0000
  H   H10       1.0  0.8427599999999998  0.44312  0.6247  1.0000
  H   H11       1.0  0.3822700000000001  0.5095  0.4978200000000001  1.0000
  H   H12       1.0  0.11872000000000003  0.67713  0.60496  1.0000
  H   H13       1.0  0.92167  0.69502  0.67971  1.0000
  H   H14       1.0  0.25831  0.51776  0.76396  1.0000
  H   H15       1.0  0.13406000000000004  0.12694000000000005  0.52905  1.0000
  H   H16       1.0  0.12276000000000005  0.26213000000000003  0.6996400000000002  1.0000
  H   H17       1.0  0.9672999999999999  0.88715  0.006900000000000001  1.0000
  H   H18       1.0  0.52746  0.79373  0.02973  1.0000
  H   H19       1.0  0.92802  0.97645  0.30228  1.0000
  H   H20       1.0  0.6493999999999998  0.8913600000000002  0.22553  1.0000
  H   H21       1.0  0.56466  0.14933  0.0952  1.0000
  H   H22       1.0  0.015789999999999995  0.21776  0.1249  1.0000
  H   H23       1.0  0.31718  0.97978  0.4214000000000001  1.0000
  H   H24       1.0  0.011840000000000022  0.49434000000000006  0.18534000000000006  1.0000
  H   H25       1.0  0.03287999999999999  0.68534  0.12392000000000002  1.0000
  H   H26       1.0  0.15682  0.5567  0.37514  1.0000
  H   H27       1.0  0.6173900000000001  0.4905  0.50214  1.0000
  H   H28       1.0  0.88051  0.32201  0.39444  1.0000
  H   H29       1.0  0.07755  0.30415000000000003  0.31958000000000003  1.0000
  H   H30       1.0  0.7418000000000001  0.48215  0.23617000000000005  1.0000
  H   H31       1.0  0.8658600000000001  0.87297  0.4708100000000001  1.0000
  H   H32       1.0  0.87722  0.73769  0.30034  1.0000
  C   C1        1.0  0.10750999999999995  0.11699999999999999  0.9477  1.0000
  C   C2        1.0  0.26101  0.16718  0.99817  1.0000
  C   C3        1.0  0.3526099999999999  0.17038000000000006  0.93571  1.0000
  C   C4        1.0  0.13069  0.06865  0.78236  1.0000
  C   C5        1.0  0.28498  0.11664000000000006  0.8259200000000002  1.0000
  C   C6        1.0  0.31183  0.20179  0.11519  1.0000
  C   C7        1.0  0.3191000000000001  0.8132300000000001  0.8568  1.0000
  C   C8        1.0  0.21451  0.8194700000000001  0.90568  1.0000
  C   C9        1.0  0.06887999999999998  0.77669  0.84118  1.0000
  C   C10       1.0  0.74953  0.12819999999999995  0.62843  1.0000
  C   C11       1.0  0.91937  0.3991600000000002  0.7600700000000002  1.0000
  C   C12       1.0  0.90931  0.29448000000000013  0.7947200000000001  1.0000
  C   C13       1.0  0.7540500000000001  0.22710000000000008  0.5873300000000001  1.0000
  C   C14       1.0  0.83954  0.36491000000000007  0.65506  1.0000
  C   C15       1.0  0.32547  0.45136  0.54082  1.0000
  C   C16       1.0  0.26648  0.86868  0.024900000000000002  1.0000
  C   C17       1.0  0.2841600000000001  0.23844000000000007  0.4048900000000001  1.0000
  C   C18       1.0  0.14253  0.71871  0.68964  1.0000
  C   C19       1.0  0.03363000000000004  0.7276100000000001  0.7317200000000001  1.0000
  C   C20       1.0  0.67089  0.18087  0.47120000000000006  1.0000
  C   C21       1.0  0.26108  0.30898000000000003  0.50203  1.0000
  C   C22       1.0  0.2539700000000001  0.45516000000000006  0.6889900000000002  1.0000
  C   C23       1.0  0.18493  0.23803000000000005  0.55857  1.0000
  C   C24       1.0  0.18042999999999995  0.31269  0.65295  1.0000
  C   C25       1.0  0.89238  0.88269  0.05215  1.0000
  C   C26       1.0  0.7388600000000001  0.8325000000000001  0.0017100000000000004  1.0000
  C   C27       1.0  0.64731  0.82956  0.0642  1.0000
  C   C28       1.0  0.8692900000000001  0.9311600000000001  0.21747000000000002  1.0000
  C   C29       1.0  0.71501  0.8833  0.17398000000000005  1.0000
  C   C30       1.0  0.688  0.79812  0.8847  1.0000
  C   C31       1.0  0.68023  0.18661  0.14256  1.0000
  C   C32       1.0  0.78484  0.18045000000000003  0.09367  1.0000
  C   C33       1.0  0.93042  0.223  0.15818000000000002  1.0000
  C   C34       1.0  0.25004000000000004  0.8716500000000003  0.37151  1.0000
  C   C35       1.0  0.08059000000000009  0.6007400000000003  0.23975000000000005  1.0000
  C   C36       1.0  0.09064000000000003  0.7054100000000001  0.20512000000000005  1.0000
  C   C37       1.0  0.2456800000000001  0.7727600000000001  0.41257  1.0000
  C   C38       1.0  0.16025000000000003  0.63496  0.34481  1.0000
  C   C39       1.0  0.67434  0.5485700000000001  0.45917  1.0000
  C   C40       1.0  0.7333199999999999  0.13141  0.97443  1.0000
  C   C41       1.0  0.71588  0.7615500000000002  0.5951200000000001  1.0000
  C   C42       1.0  0.85673  0.28067  0.30975  1.0000
  C   C43       1.0  0.96564  0.2718  0.26763  1.0000
  C   C44       1.0  0.32924000000000003  0.8191000000000003  0.5286700000000001  1.0000
  C   C45       1.0  0.7388600000000001  0.6909700000000001  0.4979500000000001  1.0000
  C   C46       1.0  0.74611  0.54469  0.31113  1.0000
  C   C47       1.0  0.8150099999999999  0.76188  0.4413800000000001  1.0000
  C   C48       1.0  0.81958  0.68716  0.34707  1.0000
  N   N1        1.0  0.04287000000000001  0.07191000000000007  0.84272  1.0000
  N   N2        1.0  0.2839900000000001  0.76097  0.7515800000000001  1.0000
  N   N3        1.0  0.82547  0.1609300000000001  0.7298400000000003  1.0000
  N   N4        1.0  0.3249700000000001  0.5238500000000001  0.6334800000000003  1.0000
  N   N5        1.0  0.95709  0.92775  0.15713000000000002  1.0000
  N   N6        1.0  0.7153500000000002  0.23866000000000007  0.24782000000000007  1.0000
  N   N7        1.0  0.17418  0.83894  0.27008  1.0000
  N   N8        1.0  0.67496  0.47601  0.36657  1.0000
  O   O1        1.0  0.45403999999999994  0.27038  0.1674  1.0000
  O   O2        1.0  0.20746  0.15571  0.15322  1.0000
  O   O3        1.0  0.5933900000000001  0.91038  0.7382600000000001  1.0000
  O   O4        1.0  0.39161  0.31392000000000003  0.38082000000000005  1.0000
  O   O5        1.0  0.16635000000000008  0.8787  0.06664000000000002  1.0000
  O   O6        1.0  0.19511  0.10949000000000002  0.3571  1.0000
  O   O7        1.0  0.65035  0.27674  0.4483  1.0000
  O   O8        1.0  0.63527  0.0658  0.41005  1.0000
  O   O9        1.0  0.39438999999999996  0.89313  0.07314  1.0000
  O   O10       1.0  0.54577  0.7297200000000001  0.83252  1.0000
  O   O11       1.0  0.7923199999999999  0.84408  0.8466100000000001  1.0000
  O   O12       1.0  0.40639999999999993  0.08959  0.26163  1.0000
  O   O13       1.0  0.60858  0.6860600000000001  0.61929  1.0000
  O   O14       1.0  0.8337400000000001  0.12110000000000008  0.9331600000000001  1.0000
  O   O15       1.0  0.80497  0.8905000000000001  0.64292  1.0000
  O   O16       1.0  0.34977  0.72324  0.55159  1.0000
  O   O17       1.0  0.3653699999999999  0.9343600000000001  0.58978  1.0000
  O   O18       1.0  0.6057600000000002  0.10726000000000009  0.9255900000000001  1.0000
