data_image0
_chemical_formula_structural       Cu4H52C56N10O20
_chemical_formula_sum              "Cu4 H52 C56 N10 O20"
_cell_length_a       11.47731
_cell_length_b       12.685169999999998
_cell_length_c       14.25258
_cell_angle_alpha    101.86293
_cell_angle_beta     101.99956
_cell_angle_gamma    95.39226

_symmetry_space_group_name_H-M    'P 1'
_symmetry_Int_Tables_number       1

loop_
  _symmetry_equiv_pos_as_xyz
  'x,y,z'

loop_
  _atom_site_type_symbol
  _atom_site_label
  _atom_site_symmetry_multiplicity
  _atom_site_fract_x
  _atom_site_fract_y
  _atom_site_fract_z
  _atom_site_occupancy
  Cu  Cu1       1.0  0.90141  0.93486  0.29238  1.0000
  Cu  Cu2       1.0  0.10334000000000003  0.95268  0.4853  1.0000
  Cu  Cu3       1.0  0.09240000000000004  0.06483000000000001  0.70598  1.0000
  Cu  Cu4       1.0  0.89396  0.04964  0.51425  1.0000
  H   H1        1.0  0.56428  0.7041000000000002  0.45958999999999994  1.0000
  H   H2        1.0  0.58179  0.59144  0.7264  1.0000
  H   H3        1.0  0.24321  0.5508600000000001  0.51718  1.0000
  H   H4        1.0  0.19471  0.68011  0.22754  1.0000
  H   H5        1.0  0.06014  0.60757  0.2393  1.0000
  H   H6        1.0  0.95572  0.7080100000000003  0.66166  1.0000
  H   H7        1.0  0.9548  0.7090600000000001  0.53665  1.0000
  H   H8        1.0  0.41163  0.3336900000000001  0.8273799999999999  1.0000
  H   H9        1.0  0.28709  0.40813  0.81974  1.0000
  H   H10       1.0  0.31538  0.11566000000000003  0.52633  1.0000
  H   H11       1.0  0.53425  0.13870000000000002  0.61179  1.0000
  H   H12       1.0  0.45963000000000004  0.8327800000000001  0.69113  1.0000
  H   H13       1.0  0.24485  0.8262800000000002  0.60746  1.0000
  H   H14       1.0  0.6880600000000001  0.9349900000000002  0.65667  1.0000
  H   H15       1.0  0.6945399999999999  0.07414999999999998  0.7048699999999999  1.0000
  H   H16       1.0  0.6303799999999999  0.89273  0.80778  1.0000
  H   H17       1.0  0.63797  0.03312  0.8575  1.0000
  H   H18       1.0  0.8442999999999998  0.9139100000000002  0.8031099999999998  1.0000
  H   H19       1.0  0.85824  0.057  0.84384  1.0000
  H   H20       1.0  0.8425800000000001  0.14086000000000004  0.01675  1.0000
  H   H21       1.0  0.87567  0.11744000000000002  0.18999  1.0000
  H   H22       1.0  0.8691900000000002  0.78575  0.09926  1.0000
  H   H23       1.0  0.83491  0.79496  0.9205599999999999  1.0000
  H   H24       1.0  0.17367000000000002  0.6339500000000002  0.41852  1.0000
  H   H25       1.0  0.7466899999999999  0.6915800000000002  0.4961299999999999  1.0000
  H   H26       1.0  0.47749  0.4125000000000001  0.70778  1.0000
  H   H27       1.0  0.43563  0.2959800000000001  0.5404  1.0000
  H   H28       1.0  0.41786  0.40842  0.27344  1.0000
  H   H29       1.0  0.7565300000000001  0.44945000000000007  0.48256  1.0000
  H   H30       1.0  0.80601  0.32389000000000007  0.7738499999999999  1.0000
  H   H31       1.0  0.94241  0.38893  0.75731  1.0000
  H   H32       1.0  0.045350000000000015  0.29067000000000004  0.33694  1.0000
  H   H33       1.0  0.04544999999999999  0.29009000000000007  0.46214999999999995  1.0000
  H   H34       1.0  0.58615  0.6649700000000002  0.17164  1.0000
  H   H35       1.0  0.7113700000000001  0.59081  0.17971999999999996  1.0000
  H   H36       1.0  0.68688  0.8855600000000001  0.47652  1.0000
  H   H37       1.0  0.46784000000000003  0.86104  0.38937  1.0000
  H   H38       1.0  0.54171  0.16695  0.30942  1.0000
  H   H39       1.0  0.7561200000000001  0.17509000000000002  0.39483999999999997  1.0000
  H   H40       1.0  0.31339  0.06437000000000002  0.34421  1.0000
  H   H41       1.0  0.30698  0.9252800000000002  0.29564999999999997  1.0000
  H   H42       1.0  0.37108  0.10723000000000002  0.19299999999999998  1.0000
  H   H43       1.0  0.36407000000000006  0.9669100000000003  0.14324  1.0000
  H   H44       1.0  0.15689  0.08574000000000001  0.19624999999999998  1.0000
  H   H45       1.0  0.14314  0.94265  0.15587  1.0000
  H   H46       1.0  0.15818  0.8585900000000002  0.9823  1.0000
  H   H47       1.0  0.12321000000000004  0.8820500000000001  0.80895  1.0000
  H   H48       1.0  0.13131000000000007  0.21384000000000006  0.90028  1.0000
  H   H49       1.0  0.16687  0.20461000000000001  0.07887  1.0000
  H   H50       1.0  0.8272900000000001  0.3698900000000001  0.5822  1.0000
  H   H51       1.0  0.25315  0.3061500000000001  0.5036  1.0000
  H   H52       1.0  0.52176  0.5878900000000001  0.29259  1.0000
  C   C1        1.0  0.39689  0.63025  0.4772299999999999  1.0000
  C   C2        1.0  0.52146  0.6657100000000002  0.50783  1.0000
  C   C3        1.0  0.58733  0.6524300000000002  0.59783  1.0000
  C   C4        1.0  0.52828  0.6016900000000001  0.6571  1.0000
  C   C5        1.0  0.40470999999999996  0.5653400000000001  0.6270799999999999  1.0000
  C   C6        1.0  0.3389400000000001  0.5818500000000002  0.53817  1.0000
  C   C7        1.0  0.3327  0.6429600000000001  0.3782599999999999  1.0000
  C   C8        1.0  0.13893  0.66799  0.27929  1.0000
  C   C9        1.0  0.0949  0.77586  0.31811  1.0000
  C   C10       1.0  0.7204800000000001  0.68814  0.6364799999999999  1.0000
  C   C11       1.0  0.9129500000000004  0.7380200000000002  0.59796  1.0000
  C   C12       1.0  0.93976  0.8629000000000001  0.62395  1.0000
  C   C13       1.0  0.33841  0.5050000000000002  0.68473  1.0000
  C   C14       1.0  0.34329  0.36309000000000013  0.777  1.0000
  C   C15       1.0  0.25873  0.26204000000000005  0.70658  1.0000
  C   C16       1.0  0.35297  0.05600000000000002  0.56398  1.0000
  C   C17       1.0  0.47369  0.06701  0.61105  1.0000
  C   C18       1.0  0.51675  0.9865600000000002  0.65762  1.0000
  C   C19       1.0  0.43252  0.8981000000000005  0.65628  1.0000
  C   C20       1.0  0.31279  0.8928  0.6091  1.0000
  C   C21       1.0  0.648  0.9940800000000001  0.7039599999999999  1.0000
  C   C22       1.0  0.67471  0.9735100000000001  0.80818  1.0000
  C   C23       1.0  0.81124  0.9795700000000002  0.84892  1.0000
  C   C24       1.0  0.83645  0.9692800000000001  0.95384  1.0000
  C   C25       1.0  0.8476800000000001  0.06036  0.03141  1.0000
  C   C26       1.0  0.86579  0.048630000000000013  0.12786  1.0000
  C   C27       1.0  0.86242  0.8621400000000001  0.07672  1.0000
  C   C28       1.0  0.84398  0.86826  0.9785  1.0000
  C   C29       1.0  0.60294  0.36991  0.52252  1.0000
  C   C30       1.0  0.47843  0.33423000000000014  0.49204  1.0000
  C   C31       1.0  0.41262000000000004  0.3473  0.40198  1.0000
  C   C32       1.0  0.47147  0.39813  0.3426699999999999  1.0000
  C   C33       1.0  0.59495  0.43469000000000013  0.37274  1.0000
  C   C34       1.0  0.66085  0.4182700000000001  0.46158  1.0000
  C   C35       1.0  0.66716  0.35684  0.6212  1.0000
  C   C36       1.0  0.8602600000000001  0.33138  0.72005  1.0000
  C   C37       1.0  0.8985800000000002  0.21995  0.68327  1.0000
  C   C38       1.0  0.27968  0.3113200000000001  0.36321  1.0000
  C   C39       1.0  0.08758  0.26093  0.40097  1.0000
  C   C40       1.0  0.05941  0.13597  0.376  1.0000
  C   C41       1.0  0.66106  0.4951500000000001  0.31525  1.0000
  C   C42       1.0  0.65494  0.63614  0.22206  1.0000
  C   C43       1.0  0.7405700000000001  0.73799  0.29073  1.0000
  C   C44       1.0  0.6486800000000001  0.9444900000000002  0.4381399999999999  1.0000
  C   C45       1.0  0.52813  0.9329600000000001  0.3901499999999999  1.0000
  C   C46       1.0  0.48477  0.01319000000000002  0.34329  1.0000
  C   C47       1.0  0.56877  0.10192  0.34472  1.0000
  C   C48       1.0  0.6883100000000001  0.10835000000000003  0.3929  1.0000
  C   C49       1.0  0.35335000000000005  0.00545  0.29661  1.0000
  C   C50       1.0  0.32683999999999996  0.0263  0.19233  1.0000
  C   C51       1.0  0.19037  0.020020000000000007  0.15079  1.0000
  C   C52       1.0  0.16512  0.030220000000000004  0.045599999999999995  1.0000
  C   C53       1.0  0.1531  0.9391700000000001  0.96779  1.0000
  C   C54       1.0  0.13370999999999997  0.9508900000000002  0.8711899999999999  1.0000
  C   C55       1.0  0.13788  0.13728  0.92258  1.0000
  C   C56       1.0  0.15741000000000005  0.13123000000000004  0.02092  1.0000
  N   N1        1.0  0.21029  0.6297200000000001  0.35901  1.0000
  N   N2        1.0  0.78623  0.69552  0.56827  1.0000
  N   N3        1.0  0.40132000000000007  0.43488  0.7289  1.0000
  N   N4        1.0  0.27361000000000013  0.9702200000000002  0.56294  1.0000
  N   N5        1.0  0.8735000000000002  0.9509800000000003  0.15076  1.0000
  N   N6        1.0  0.78969  0.3705900000000001  0.64081  1.0000
  N   N7        1.0  0.21414  0.30280000000000007  0.43126  1.0000
  N   N8        1.0  0.59814  0.56557  0.27154  1.0000
  N   N9        1.0  0.72682  0.03126000000000002  0.43965  1.0000
  N   N10       1.0  0.1256299999999999  0.04849999999999994  0.8482499999999997  1.0000
  O   O1        1.0  0.38933000000000006  0.66312  0.31637  1.0000
  O   O2        1.0  0.12572000000000003  0.8098300000000003  0.41221  1.0000
  O   O3        1.0  0.03491000000000001  0.8196200000000002  0.25653  1.0000
  O   O4        1.0  0.76632  0.70488  0.7263399999999999  1.0000
  O   O5        1.0  0.8571800000000002  0.9197200000000002  0.6112399999999998  1.0000
  O   O6        1.0  0.053290000000000025  0.8994000000000002  0.65708  1.0000
  O   O7        1.0  0.23412  0.51846  0.69007  1.0000
  O   O8        1.0  0.23481000000000005  0.25431  0.61578  1.0000
  O   O9        1.0  0.22243000000000004  0.19573  0.75481  1.0000
  O   O10       1.0  0.93121  0.9311000000000003  0.4289  1.0000
  O   O11       1.0  0.6105400000000001  0.33522000000000013  0.6825299999999999  1.0000
  O   O12       1.0  0.8679000000000001  0.18590000000000007  0.58852  1.0000
  O   O13       1.0  0.95386  0.17492000000000002  0.7454199999999999  1.0000
  O   O14       1.0  0.23377  0.2949800000000001  0.27336  1.0000
  O   O15       1.0  0.1415  0.07928  0.39377  1.0000
  O   O16       1.0  0.94665  0.10055  0.3397  1.0000
  O   O17       1.0  0.7653900000000001  0.48174000000000006  0.30973  1.0000
  O   O18       1.0  0.7705  0.7449200000000002  0.38123  1.0000
  O   O19       1.0  0.77147  0.8047500000000001  0.24097  1.0000
  O   O20       1.0  0.05730000000000001  0.07562  0.57101  1.0000
