data_image0
_chemical_formula_structural       Co4H48C68N12O16
_chemical_formula_sum              "Co4 H48 C68 N12 O16"
_cell_length_a       10.2455
_cell_length_b       14.50359
_cell_length_c       15.20662
_cell_angle_alpha    118.76230999999999
_cell_angle_beta     98.16276999999998
_cell_angle_gamma    90.04244

_space_group_name_H-M_alt    "P 1"
_space_group_IT_number       1

loop_
  _space_group_symop_operation_xyz
  'x, y, z'

loop_
  _atom_site_type_symbol
  _atom_site_label
  _atom_site_symmetry_multiplicity
  _atom_site_fract_x
  _atom_site_fract_y
  _atom_site_fract_z
  _atom_site_occupancy
  Co  Co1       1.0  0.48034  0.52057  0.14483  1.0000
  Co  Co2       1.0  0.020410000000000015  0.87702  0.85616  1.0000
  Co  Co3       1.0  0.51966  0.4794199999999999  0.85516  1.0000
  Co  Co4       1.0  0.9796  0.12298  0.14384  1.0000
  H   H1        1.0  0.99708  0.54008  0.18889  1.0000
  H   H2        1.0  0.7226999999999999  0.32033  0.92856  1.0000
  H   H3        1.0  0.14211  0.31089999999999995  0.92245  1.0000
  H   H4        1.0  0.7959  0.20296  0.77661  1.0000
  H   H5        1.0  0.9463  0.24419999999999986  0.7565799999999998  1.0000
  H   H6        1.0  0.048790000000000014  0.08011999999999996  0.65542  1.0000
  H   H7        1.0  0.11964999999999996  0.9079099999999998  0.6834499999999998  1.0000
  H   H8        1.0  0.90227  0.10339999999999995  0.9120999999999999  1.0000
  H   H9        1.0  0.39651999999999993  0.36013  0.19532  1.0000
  H   H10       1.0  0.39005999999999996  0.34692999999999996  0.3493399999999999  1.0000
  H   H11       1.0  0.61957  0.6503899999999998  0.51958  1.0000
  H   H12       1.0  0.6227799999999999  0.64556  0.3543  1.0000
  H   H13       1.0  0.5028699999999999  0.8514  0.81135  1.0000
  H   H14       1.0  0.7773  0.89159  0.07057  1.0000
  H   H15       1.0  0.35795  0.8875399999999999  0.07675  1.0000
  H   H16       1.0  0.70412  0.92619  0.22232  1.0000
  H   H17       1.0  0.5542199999999999  0.9880299999999997  0.24261  1.0000
  H   H18       1.0  0.45133999999999996  0.92666  0.34414  1.0000
  H   H19       1.0  0.38186  0.7266899999999998  0.31776  1.0000
  H   H20       1.0  0.59791  0.6899599999999998  0.08804  1.0000
  H   H21       1.0  0.10267999999999995  0.66468  0.8046899999999998  1.0000
  H   H22       1.0  0.10936999999999998  0.49712  0.64967  1.0000
  H   H23       1.0  0.88073  0.63096  0.4815499999999999  1.0000
  H   H24       1.0  0.87692  0.79191  0.64773  1.0000
  H   H25       1.0  0.002929999999999947  0.45990999999999976  0.8111099999999998  1.0000
  H   H26       1.0  0.2773  0.6796599999999999  0.07143  1.0000
  H   H27       1.0  0.8578899999999999  0.6890899999999998  0.07755  1.0000
  H   H28       1.0  0.2041  0.7970299999999998  0.22337999999999994  1.0000
  H   H29       1.0  0.05370999999999999  0.75579  0.24341999999999994  1.0000
  H   H30       1.0  0.9512199999999998  0.9198699999999997  0.34458  1.0000
  H   H31       1.0  0.88035  0.09207999999999994  0.31655  1.0000
  H   H32       1.0  0.09773  0.89659  0.0879  1.0000
  H   H33       1.0  0.60349  0.63986  0.80468  1.0000
  H   H34       1.0  0.6099499999999999  0.6530599999999999  0.6506599999999999  1.0000
  H   H35       1.0  0.38043  0.34961  0.48040999999999995  1.0000
  H   H36       1.0  0.37722  0.35443  0.6457  1.0000
  H   H37       1.0  0.49712999999999996  0.1486  0.18865  1.0000
  H   H38       1.0  0.22269999999999995  0.10839999999999987  0.9294299999999998  1.0000
  H   H39       1.0  0.64206  0.11246000000000002  0.92325  1.0000
  H   H40       1.0  0.29588  0.07379999999999996  0.77767  1.0000
  H   H41       1.0  0.44579  0.011969999999999934  0.7573899999999999  1.0000
  H   H42       1.0  0.54867  0.07334000000000004  0.65586  1.0000
  H   H43       1.0  0.6181399999999999  0.2732999999999999  0.6822299999999998  1.0000
  H   H44       1.0  0.4021  0.31003  0.91196  1.0000
  H   H45       1.0  0.8973299999999998  0.33531  0.1953  1.0000
  H   H46       1.0  0.89063  0.5028699999999999  0.3503299999999999  1.0000
  H   H47       1.0  0.11927999999999998  0.36903  0.51845  1.0000
  H   H48       1.0  0.12309  0.20808  0.35227  1.0000
  C   C1        1.0  0.22143999999999997  0.4762  0.11239999999999999  1.0000
  C   C2        1.0  0.08411  0.42794  0.06189  1.0000
  C   C3        1.0  0.97773  0.47291  0.1126  1.0000
  C   C4        1.0  0.8475299999999999  0.4336799999999999  0.06493  1.0000
  C   C5        1.0  0.73427  0.48632999999999993  0.11748999999999998  1.0000
  C   C6        1.0  0.82432  0.34861999999999993  0.9655999999999999  1.0000
  C   C7        1.0  0.9294499999999999  0.3044  0.91388  1.0000
  C   C8        1.0  0.059340000000000004  0.34358000000000005  0.96247  1.0000
  C   C9        1.0  0.9026499999999998  0.2190099999999999  0.80423  1.0000
  C   C10       1.0  0.02926999999999996  0.05783999999999991  0.7109399999999998  1.0000
  C   C11       1.0  0.06195000000000002  0.9731099999999999  0.72441  1.0000
  C   C12       1.0  0.9509599999999999  0.07230999999999999  0.84565  1.0000
  C   C13       1.0  0.44506  0.4223599999999999  0.26899  1.0000
  C   C14       1.0  0.44175999999999993  0.41669  0.35715  1.0000
  C   C15       1.0  0.5024  0.49991  0.4517399999999999  1.0000
  C   C16       1.0  0.56896  0.58388  0.44994  1.0000
  C   C17       1.0  0.5704  0.58304  0.35866999999999993  1.0000
  C   C18       1.0  0.27868  0.86367  0.88754  1.0000
  C   C19       1.0  0.41592  0.8655899999999997  0.93774  1.0000
  C   C20       1.0  0.52234  0.86014  0.88725  1.0000
  C   C21       1.0  0.65253  0.8688599999999999  0.9349  1.0000
  C   C22       1.0  0.7659099999999999  0.8704799999999997  0.8831799999999997  1.0000
  C   C23       1.0  0.67565  0.8825999999999998  0.0337  1.0000
  C   C24       1.0  0.57049  0.88968  0.08521  1.0000
  C   C25       1.0  0.44066  0.8803699999999998  0.03679  1.0000
  C   C26       1.0  0.59738  0.91459  0.1948  1.0000
  C   C27       1.0  0.4710199999999999  0.84827  0.28887  1.0000
  C   C28       1.0  0.43906  0.75018  0.27626  1.0000
  C   C29       1.0  0.54949  0.7263399999999998  0.15458  1.0000
  C   C30       1.0  0.05422999999999999  0.65342  0.73133  1.0000
  C   C31       1.0  0.057729999999999976  0.5593899999999996  0.6426799999999998  1.0000
  C   C32       1.0  0.99746  0.54821  0.54847  1.0000
  C   C33       1.0  0.93095  0.6342  0.55102  1.0000
  C   C34       1.0  0.92922  0.72479  0.64273  1.0000
  C   C35       1.0  0.77857  0.5237899999999998  0.8875999999999997  1.0000
  C   C36       1.0  0.9159  0.57205  0.9381  1.0000
  C   C37       1.0  0.022280000000000005  0.52708  0.8874  1.0000
  C   C38       1.0  0.15246999999999994  0.5663099999999998  0.93507  1.0000
  C   C39       1.0  0.26573  0.51366  0.88251  1.0000
  C   C40       1.0  0.17569  0.65137  0.0344  1.0000
  C   C41       1.0  0.07054999999999999  0.6955999999999999  0.08611999999999999  1.0000
  C   C42       1.0  0.9406699999999999  0.65641  0.03753  1.0000
  C   C43       1.0  0.09734999999999998  0.7809799999999998  0.19575999999999993  1.0000
  C   C44       1.0  0.9707399999999999  0.9421499999999998  0.28905  1.0000
  C   C45       1.0  0.9380599999999999  0.026879999999999998  0.27558  1.0000
  C   C46       1.0  0.04904  0.92769  0.15433999999999998  1.0000
  C   C47       1.0  0.5549499999999999  0.5776299999999996  0.7310099999999998  1.0000
  C   C48       1.0  0.55824  0.5833  0.64284  1.0000
  C   C49       1.0  0.49759999999999993  0.5000899999999999  0.54825  1.0000
  C   C50       1.0  0.43104  0.41611  0.55006  1.0000
  C   C51       1.0  0.4296  0.41695  0.64133  1.0000
  C   C52       1.0  0.7213199999999999  0.13632  0.11245  1.0000
  C   C53       1.0  0.58409  0.13441  0.06226  1.0000
  C   C54       1.0  0.47767  0.13985999999999996  0.11273999999999998  1.0000
  C   C55       1.0  0.34747  0.13113  0.0651  1.0000
  C   C56       1.0  0.23409  0.12952  0.11682  1.0000
  C   C57       1.0  0.32436  0.11739999999999993  0.9662999999999999  1.0000
  C   C58       1.0  0.42952  0.11030999999999991  0.9147899999999999  1.0000
  C   C59       1.0  0.55935  0.11961999999999996  0.9632099999999999  1.0000
  C   C60       1.0  0.4026299999999999  0.08539999999999984  0.8051899999999997  1.0000
  C   C61       1.0  0.52899  0.15172  0.71113  1.0000
  C   C62       1.0  0.56095  0.24981  0.72374  1.0000
  C   C63       1.0  0.45052  0.27365  0.84542  1.0000
  C   C64       1.0  0.94578  0.34657  0.26866  1.0000
  C   C65       1.0  0.94228  0.44059999999999994  0.3573199999999999  1.0000
  C   C66       1.0  0.0025499999999999954  0.45179  0.45152  1.0000
  C   C67       1.0  0.06905999999999997  0.36579  0.44896999999999987  1.0000
  C   C68       1.0  0.07079  0.2752  0.35727  1.0000
  N   N1        1.0  0.50688  0.5047  0.269  1.0000
  N   N2        1.0  0.9598299999999998  0.12005000000000003  0.78837  1.0000
  N   N3        1.0  0.01253000000000001  0.98313  0.80849  1.0000
  N   N4        1.0  0.99255  0.73607  0.73209  1.0000
  N   N5        1.0  0.54008  0.83191  0.21108999999999997  1.0000
  N   N6        1.0  0.48853  0.67502  0.19241999999999998  1.0000
  N   N7        1.0  0.49312  0.49529  0.731  1.0000
  N   N8        1.0  0.04018  0.87995  0.21162  1.0000
  N   N9        1.0  0.98748  0.01685999999999995  0.19149999999999995  1.0000
  N   N10       1.0  0.007459999999999998  0.26392  0.26791  1.0000
  N   N11       1.0  0.45991999999999994  0.16808999999999996  0.7889099999999999  1.0000
  N   N12       1.0  0.51147  0.32496999999999987  0.8075799999999997  1.0000
  O   O1        1.0  0.31749  0.4307  0.06248999999999998  1.0000
  O   O2        1.0  0.24104999999999996  0.5576999999999999  0.19789  1.0000
  O   O3        1.0  0.61674  0.45039  0.06301  1.0000
  O   O4        1.0  0.7542599999999999  0.5602399999999998  0.20753999999999997  1.0000
  O   O5        1.0  0.18275999999999995  0.8698999999999998  0.9379999999999998  1.0000
  O   O6        1.0  0.2591  0.85821  0.80173  1.0000
  O   O7        1.0  0.8835  0.8889299999999997  0.9374199999999999  1.0000
  O   O8        1.0  0.74562  0.8558199999999998  0.79396  1.0000
  O   O9        1.0  0.68252  0.5693  0.9374999999999999  1.0000
  O   O10       1.0  0.75895  0.44228999999999985  0.8021099999999999  1.0000
  O   O11       1.0  0.38327  0.5496  0.93698  1.0000
  O   O12       1.0  0.24575  0.43976  0.79245  1.0000
  O   O13       1.0  0.8172499999999999  0.13009  0.061999999999999986  1.0000
  O   O14       1.0  0.74091  0.14179  0.19826  1.0000
  O   O15       1.0  0.1165  0.11107000000000002  0.06258  1.0000
  O   O16       1.0  0.25439  0.14417  0.20604  1.0000
