data_image0
_chemical_formula_structural       Zn4H48C72N8O16
_chemical_formula_sum              "Zn4 H48 C72 N8 O16"
_cell_length_a       4.478
_cell_length_b       18.955739999999995
_cell_length_c       18.89264
_cell_angle_alpha    89.24834000000001
_cell_angle_beta     83.05803
_cell_angle_gamma    83.16696

_space_group_name_H-M_alt    "P 1"
_space_group_IT_number       1

loop_
  _space_group_symop_operation_xyz
  'x, y, z'

loop_
  _atom_site_type_symbol
  _atom_site_label
  _atom_site_symmetry_multiplicity
  _atom_site_fract_x
  _atom_site_fract_y
  _atom_site_fract_z
  _atom_site_occupancy
  Zn  Zn1       1.0  0.20759000000000005  0.52318  0.94879  1.0000
  Zn  Zn2       1.0  0.6723399999999999  0.4769  0.05081  1.0000
  Zn  Zn3       1.0  0.26822  0.05131  0.52279  1.0000
  Zn  Zn4       1.0  0.8395200000000006  0.94917  0.47690999999999995  1.0000
  H   H1        1.0  0.9206000000000002  0.61913  0.82766  1.0000
  H   H2        1.0  0.56603  0.63081  0.023719999999999995  1.0000
  H   H3        1.0  0.96494  0.6841  0.07391999999999999  1.0000
  H   H4        1.0  0.27110000000000006  0.7836  0.08084  1.0000
  H   H5        1.0  0.21262000000000014  0.8857299999999999  0.9969799999999999  1.0000
  H   H6        1.0  0.82379  0.8941000000000001  0.9148499999999999  1.0000
  H   H7        1.0  0.4176100000000001  0.84202  0.8624899999999999  1.0000
  H   H8        1.0  0.61064  0.83438  0.67014  1.0000
  H   H9        1.0  0.4898999999999999  0.72878  0.59538  1.0000
  H   H10       1.0  0.5497500000000004  0.68448  0.7173299999999998  1.0000
  H   H11       1.0  0.6710600000000001  0.78985  0.79055  1.0000
  H   H12       1.0  0.7693499999999999  0.47994  0.91947  1.0000
  H   H13       1.0  0.3666700000000001  0.38123  0.17213999999999993  1.0000
  H   H14       1.0  0.22087000000000004  0.36887  0.9754499999999999  1.0000
  H   H15       1.0  0.72699  0.31577  0.92556  1.0000
  H   H16       1.0  0.1400300000000001  0.21629000000000004  0.9191599999999999  1.0000
  H   H17       1.0  0.09905  0.11436  0.00327  1.0000
  H   H18       1.0  0.63392  0.10611  0.08515999999999997  1.0000
  H   H19       1.0  0.12204999999999998  0.15834  0.13745  1.0000
  H   H20       1.0  0.10653000000000003  0.16692  0.32881999999999995  1.0000
  H   H21       1.0  0.7979100000000003  0.27294  0.40547  1.0000
  H   H22       1.0  0.94346  0.31696  0.28354  1.0000
  H   H23       1.0  0.2538  0.21048  0.20838  1.0000
  H   H24       1.0  0.12975999999999996  0.52133  0.0811  1.0000
  H   H25       1.0  0.45892  0.17152  0.61946  1.0000
  H   H26       1.0  0.80132  0.97606  0.63067  1.0000
  H   H27       1.0  0.34771000000000013  0.92573  0.68395  1.0000
  H   H28       1.0  0.93987  0.91918  0.78371  1.0000
  H   H29       1.0  0.8953900000000001  0.00268  0.88642  1.0000
  H   H30       1.0  0.2768300000000002  0.0844  0.89506  1.0000
  H   H31       1.0  0.73727  0.13634  0.84311  1.0000
  H   H32       1.0  0.56155  0.32656  0.83536  1.0000
  H   H33       1.0  0.7962800000000002  0.40402  0.72871  1.0000
  H   H34       1.0  0.77022  0.28245  0.6845  1.0000
  H   H35       1.0  0.53289  0.20652  0.79155  1.0000
  H   H36       1.0  0.76274  0.08062  0.4792  1.0000
  H   H37       1.0  0.24815000000000004  0.82822  0.38044  1.0000
  H   H38       1.0  0.41091  0.02491  0.36862  1.0000
  H   H39       1.0  0.9601  0.07514  0.31573  1.0000
  H   H40       1.0  0.64478  0.08142  0.21645  1.0000
  H   H41       1.0  0.7857600000000001  0.99745  0.11398  1.0000
  H   H42       1.0  0.25795  0.9154100000000001  0.10520999999999998  1.0000
  H   H43       1.0  0.7175200000000002  0.86332  0.15696  1.0000
  H   H44       1.0  0.7254400000000003  0.67273  0.16510999999999998  1.0000
  H   H45       1.0  0.92683  0.59564  0.27082  1.0000
  H   H46       1.0  0.7352700000000001  0.71703  0.3153299999999999  1.0000
  H   H47       1.0  0.5328399999999999  0.79265  0.20931  1.0000
  H   H48       1.0  0.30564000000000024  0.92038  0.51967  1.0000
  C   C1        1.0  0.052559999999999975  0.64938  0.85794  1.0000
  C   C2        1.0  0.36218  0.67462  0.93216  1.0000
  C   C3        1.0  0.5490699999999998  0.67449  0.98595  1.0000
  C   C4        1.0  0.7154800000000001  0.73167  0.9916299999999999  1.0000
  C   C5        1.0  0.9294  0.73068  0.04055999999999999  1.0000
  C   C6        1.0  0.10128  0.78588  0.04424  1.0000
  C   C7        1.0  0.06590000000000011  0.84409  0.9968299999999999  1.0000
  C   C8        1.0  0.8479899999999999  0.84877  0.9502999999999999  1.0000
  C   C9        1.0  0.6704600000000001  0.79344  0.9450999999999999  1.0000
  C   C10       1.0  0.4604100000000002  0.7947  0.8945899999999999  1.0000
  C   C11       1.0  0.3302600000000001  0.73329  0.8841199999999999  1.0000
  C   C12       1.0  0.81389  0.80046  0.67953  1.0000
  C   C13       1.0  0.042940000000000075  0.78206  0.62342  1.0000
  C   C14       1.0  0.30477999999999994  0.74095  0.63796  1.0000
  C   C15       1.0  0.3505000000000001  0.72029  0.7081999999999999  1.0000
  C   C16       1.0  0.11988999999999998  0.74054  0.76407  1.0000
  C   C17       1.0  0.85698  0.77992  0.7488099999999999  1.0000
  C   C18       1.0  0.0016300000000000457  0.81498  0.5518299999999999  1.0000
  C   C19       1.0  0.5600300000000001  0.35095  0.14192999999999997  1.0000
  C   C20       1.0  0.9704300000000001  0.32569  0.06765  1.0000
  C   C21       1.0  0.21123999999999998  0.32555  0.01363  1.0000
  C   C22       1.0  0.44113  0.26841  0.008069999999999999  1.0000
  C   C23       1.0  0.7039100000000004  0.26927  0.9590799999999999  1.0000
  C   C24       1.0  0.9350800000000001  0.21408000000000002  0.9557  1.0000
  C   C25       1.0  0.91006  0.15597  0.00328  1.0000
  C   C26       1.0  0.64903  0.1514  0.04968  1.0000
  C   C27       1.0  0.41076  0.20677  0.05477  1.0000
  C   C28       1.0  0.15060000000000004  0.20563  0.10533  1.0000
  C   C29       1.0  0.9490700000000002  0.26718  0.11588  1.0000
  C   C30       1.0  0.2855800000000001  0.20074  0.31986999999999993  1.0000
  C   C31       1.0  0.43598000000000003  0.21924999999999997  0.37645999999999996  1.0000
  C   C32       1.0  0.6720999999999999  0.26022  0.36241  1.0000
  C   C33       1.0  0.77272  0.28063  0.29228  1.0000
  C   C34       1.0  0.62292  0.25996  0.23595999999999998  1.0000
  C   C35       1.0  0.3832  0.22083  0.25073  1.0000
  C   C36       1.0  0.3508300000000001  0.18651  0.44799999999999995  1.0000
  C   C37       1.0  0.2959800000000001  0.14135  0.64968  1.0000
  C   C38       1.0  0.9599700000000002  0.06742  0.6746999999999999  1.0000
  C   C39       1.0  0.7732  0.013770000000000001  0.6745  1.0000
  C   C40       1.0  0.54897  0.00795  0.73187  1.0000
  C   C41       1.0  0.33621000000000023  0.95906  0.73076  1.0000
  C   C42       1.0  0.10794000000000006  0.9555599999999999  0.7860999999999999  1.0000
  C   C43       1.0  0.08450000000000002  0.00283  0.84465  1.0000
  C   C44       1.0  0.29825999999999997  0.04911  0.84948  1.0000
  C   C45       1.0  0.53194  0.05429  0.79398  1.0000
  C   C46       1.0  0.74132  0.10454  0.79544  1.0000
  C   C47       1.0  0.9325800000000002  0.11527000000000001  0.7336999999999999  1.0000
  C   C48       1.0  0.39267999999999986  0.31796  0.80103  1.0000
  C   C49       1.0  0.18537000000000006  0.3744  0.7825999999999999  1.0000
  C   C50       1.0  0.9641699999999994  0.36073  0.74124  1.0000
  C   C51       1.0  0.9331400000000001  0.29098  0.72068  1.0000
  C   C52       1.0  0.13896000000000003  0.23474000000000003  0.74134  1.0000
  C   C53       1.0  0.36339  0.24913999999999997  0.7808  1.0000
  C   C54       1.0  0.19531000000000007  0.4458  0.8154899999999999  1.0000
  C   C55       1.0  0.08618999999999999  0.85848  0.35016  1.0000
  C   C56       1.0  0.70307  0.93281  0.32505  1.0000
  C   C57       1.0  0.46369000000000005  0.98685  0.32507  1.0000
  C   C58       1.0  0.2906000000000002  0.99243  0.26798  1.0000
  C   C59       1.0  0.02809999999999999  0.04148  0.26908  1.0000
  C   C60       1.0  0.85129  0.0448  0.21401  1.0000
  C   C61       1.0  0.9335000000000001  0.9972900000000001  0.15556  1.0000
  C   C62       1.0  0.19830000000000003  0.95085  0.15072  1.0000
  C   C63       1.0  0.3815100000000001  0.9457099999999999  0.20605999999999997  1.0000
  C   C64       1.0  0.6422500000000001  0.89528  0.2046  1.0000
  C   C65       1.0  0.78178  0.8846100000000001  0.26628  1.0000
  C   C66       1.0  0.51254  0.68141  0.19923  1.0000
  C   C67       1.0  0.34404  0.62478  0.21762  1.0000
  C   C68       1.0  0.06552000000000005  0.63869  0.25850999999999996  1.0000
  C   C69       1.0  0.94347  0.70853  0.27908  1.0000
  C   C70       1.0  0.11414000000000005  0.76481  0.25866  1.0000
  C   C71       1.0  0.39369  0.75025  0.21947999999999998  1.0000
  C   C72       1.0  0.46639  0.55323  0.18566  1.0000
  N   N1        1.0  0.18159000000000017  0.62477  0.9148499999999999  1.0000
  N   N2        1.0  0.13973000000000002  0.71418  0.83606  1.0000
  N   N3        1.0  0.72161  0.37544  0.08482  1.0000
  N   N4        1.0  0.6908699999999999  0.28631  0.164  1.0000
  N   N5        1.0  0.1918500000000001  0.08459  0.6248499999999999  1.0000
  N   N6        1.0  0.14258999999999997  0.16315  0.71469  1.0000
  N   N7        1.0  0.9016600000000001  0.91561  0.37482999999999994  1.0000
  N   N8        1.0  0.019520000000000034  0.83647  0.28536999999999996  1.0000
  O   O1        1.0  0.92534  0.88398  0.55581  1.0000
  O   O2        1.0  0.21182999999999996  0.78271  0.49356  1.0000
  O   O3        1.0  0.67958  0.51748  0.9533899999999998  1.0000
  O   O4        1.0  0.8635300000000001  0.77438  0.5031  1.0000
  O   O5        1.0  0.3399400000000002  0.11789000000000001  0.44389999999999996  1.0000
  O   O6        1.0  0.47263000000000005  0.21756000000000003  0.5063199999999999  1.0000
  O   O7        1.0  0.16008999999999998  0.48257000000000005  0.04652  1.0000
  O   O8        1.0  0.12639000000000009  0.22873999999999997  0.49686  1.0000
  O   O9        1.0  0.1970300000000001  0.44284999999999997  0.88489  1.0000
  O   O10       1.0  0.021119999999999927  0.50362  0.78242  1.0000
  O   O11       1.0  0.80228  0.0466  0.5172599999999999  1.0000
  O   O12       1.0  0.37828999999999985  0.4935800000000001  0.77451  1.0000
  O   O13       1.0  0.5731  0.55649  0.11811  1.0000
  O   O14       1.0  0.29991  0.49634  0.21394  1.0000
  O   O15       1.0  0.36774000000000007  0.9538799999999998  0.48234999999999995  1.0000
  O   O16       1.0  0.62708  0.5037  0.2318  1.0000
