data_image0
_chemical_formula_structural       Ca4Cd4H24C64O32
_chemical_formula_sum              "Ca4 Cd4 H24 C64 O32"
_cell_length_a       14.25262
_cell_length_b       14.51159
_cell_length_c       18.88216
_cell_angle_alpha    93.80644999999998
_cell_angle_beta     89.99146
_cell_angle_gamma    90.00226000000002

_symmetry_space_group_name_H-M    'P 1'
_symmetry_Int_Tables_number       1

loop_
  _symmetry_equiv_pos_as_xyz
  'x,y,z'

loop_
  _atom_site_type_symbol
  _atom_site_label
  _atom_site_symmetry_multiplicity
  _atom_site_fract_x
  _atom_site_fract_y
  _atom_site_fract_z
  _atom_site_occupancy
  Ca  Ca1       1.0  0.68097  0.58818  0.35834  1.0000
  Ca  Ca2       1.0  0.31903  0.4118300000000001  0.6416600000000002  1.0000
  Ca  Ca3       1.0  0.1808  0.9117100000000001  0.14167  1.0000
  Ca  Ca4       1.0  0.8192  0.08830000000000002  0.85834  1.0000
  Cd  Cd1       1.0  0.53672  0.496  0.22017  1.0000
  Cd  Cd2       1.0  0.9632999999999999  0.99604  0.7200900000000001  1.0000
  Cd  Cd3       1.0  0.4632799999999999  0.50401  0.77984  1.0000
  Cd  Cd4       1.0  0.0367  0.003960000000000006  0.27992000000000006  1.0000
  H   H1        1.0  0.78497  0.23906  0.24412  1.0000
  H   H2        1.0  0.82462  0.12238  0.44401000000000007  1.0000
  H   H3        1.0  0.67533  0.62234  0.94407  1.0000
  H   H4        1.0  0.17537999999999995  0.8776300000000001  0.55599  1.0000
  H   H5        1.0  0.9248299999999999  0.81783  0.02041  1.0000
  H   H6        1.0  0.13502  0.14756  0.07272000000000002  1.0000
  H   H7        1.0  0.18244  0.85518  0.4509500000000001  1.0000
  H   H8        1.0  0.84946  0.7403200000000002  0.22790000000000002  1.0000
  H   H9        1.0  0.3175999999999999  0.35526  0.9508700000000001  1.0000
  H   H10       1.0  0.6824  0.64474  0.04914000000000002  1.0000
  H   H11       1.0  0.285  0.26101  0.25584  1.0000
  H   H12       1.0  0.65059  0.24051  0.72788  1.0000
  H   H13       1.0  0.81756  0.14482  0.54905  1.0000
  H   H14       1.0  0.07517  0.18217000000000003  0.9796  1.0000
  H   H15       1.0  0.15054  0.25968  0.77211  1.0000
  H   H16       1.0  0.36505  0.64754  0.57276  1.0000
  H   H17       1.0  0.34941  0.7595  0.27212  1.0000
  H   H18       1.0  0.715  0.7390000000000001  0.7441600000000003  1.0000
  H   H19       1.0  0.86498  0.85244  0.92729  1.0000
  H   H20       1.0  0.42488  0.6821200000000001  0.47961  1.0000
  H   H21       1.0  0.57512  0.31788  0.52039  1.0000
  H   H22       1.0  0.63495  0.35247  0.42724000000000006  1.0000
  H   H23       1.0  0.3246699999999999  0.37766  0.055940000000000004  1.0000
  H   H24       1.0  0.21502999999999994  0.76094  0.75589  1.0000
  C   C1        1.0  0.31616  0.6989100000000001  0.59535  1.0000
  C   C2        1.0  0.87653  0.7815800000000003  0.05339  1.0000
  C   C3        1.0  0.799  0.73333  0.023460000000000005  1.0000
  C   C4        1.0  0.52695  0.34315  0.65703  1.0000
  C   C5        1.0  0.72389  0.23537000000000002  0.44682  1.0000
  C   C6        1.0  0.26171  0.8155400000000002  0.35821  1.0000
  C   C7        1.0  0.79511  0.8023400000000004  0.8322000000000003  1.0000
  C   C8        1.0  0.18388  0.19894  0.09533  1.0000
  C   C9        1.0  0.18740999999999994  0.82423  0.6576000000000001  1.0000
  C   C10       1.0  0.20056  0.8711900000000002  0.31276  1.0000
  C   C11       1.0  0.23821  0.31571  0.8582  1.0000
  C   C12       1.0  0.70063  0.62869  0.18728000000000006  1.0000
  C   C13       1.0  0.89374  0.7854400000000001  0.12654  1.0000
  C   C14       1.0  0.81259  0.17578  0.3424000000000001  1.0000
  C   C15       1.0  0.79944  0.12881  0.68725  1.0000
  C   C16       1.0  0.21083  0.82635  0.5857300000000002  1.0000
  C   C17       1.0  0.65997  0.37334  0.2897300000000001  1.0000
  C   C18       1.0  0.97298  0.84315  0.15697000000000005  1.0000
  C   C19       1.0  0.76832  0.23854  0.30028  1.0000
  C   C20       1.0  0.25715  0.31591  0.93101  1.0000
  C   C21       1.0  0.66402  0.23722  0.67116  1.0000
  C   C22       1.0  0.8886199999999999  0.11281000000000001  0.31275  1.0000
  C   C23       1.0  0.77605  0.73535  0.94685  1.0000
  C   C24       1.0  0.60622  0.28552  0.62653  1.0000
  C   C25       1.0  0.73829  0.18447  0.6417900000000001  1.0000
  C   C26       1.0  0.15998  0.12663  0.21022000000000005  1.0000
  C   C27       1.0  0.73169  0.73851  0.8003100000000002  1.0000
  C   C28       1.0  0.70094  0.23337  0.52345  1.0000
  C   C29       1.0  0.71076  0.6736300000000001  0.9143100000000001  1.0000
  C   C30       1.0  0.34003  0.62667  0.7102800000000001  1.0000
  C   C31       1.0  0.33598  0.7627900000000001  0.32884  1.0000
  C   C32       1.0  0.76179  0.68429  0.1418  1.0000
  C   C33       1.0  0.83603  0.7370600000000002  0.17118  1.0000
  C   C34       1.0  0.28924  0.32637  0.08569000000000002  1.0000
  C   C35       1.0  0.23168  0.76147  0.69972  1.0000
  C   C36       1.0  0.84002  0.87338  0.78979  1.0000
  C   C37       1.0  0.22394999999999995  0.26466  0.05316  1.0000
  C   C38       1.0  0.11138  0.88719  0.68725  1.0000
  C   C39       1.0  0.29936  0.3713100000000001  0.81272  1.0000
  C   C40       1.0  0.29511  0.6976500000000002  0.66783  1.0000
  C   C41       1.0  0.26831  0.2615  0.19969  1.0000
  C   C42       1.0  0.24285  0.8158000000000002  0.43104000000000003  1.0000
  C   C43       1.0  0.62339  0.28163  0.5533700000000003  1.0000
  C   C44       1.0  0.70489  0.30236  0.33217  1.0000
  C   C45       1.0  0.201  0.26668  0.97654  1.0000
  C   C46       1.0  0.12347  0.21842000000000003  0.9466200000000001  1.0000
  C   C47       1.0  0.16397  0.26294  0.82882  1.0000
  C   C48       1.0  0.38865  0.38718  0.18724000000000005  1.0000
  C   C49       1.0  0.20489  0.19766  0.16780000000000003  1.0000
  C   C50       1.0  0.2990599999999999  0.76663  0.47656  1.0000
  C   C51       1.0  0.75715  0.18420000000000003  0.56896  1.0000
  C   C52       1.0  0.27611  0.7646400000000002  0.55318  1.0000
  C   C53       1.0  0.81612  0.80106  0.9046800000000002  1.0000
  C   C54       1.0  0.6874  0.67575  0.84243  1.0000
  C   C55       1.0  0.3126  0.32425  0.15757  1.0000
  C   C56       1.0  0.7891699999999999  0.17365  0.41427  1.0000
  C   C57       1.0  0.74285  0.68409  0.06899000000000001  1.0000
  C   C58       1.0  0.47305  0.65686  0.34298  1.0000
  C   C59       1.0  0.02702  0.15686  0.84303  1.0000
  C   C60       1.0  0.10626  0.21455999999999997  0.87347  1.0000
  C   C61       1.0  0.37661  0.71838  0.44663  1.0000
  C   C62       1.0  0.61135  0.6128300000000001  0.8127600000000003  1.0000
  C   C63       1.0  0.39377  0.7144800000000002  0.37347  1.0000
  C   C64       1.0  0.6838399999999999  0.30109  0.40465  1.0000
  O   O1        1.0  0.90964  0.11079  0.24749000000000002  1.0000
  O   O2        1.0  0.9585899999999998  0.14034  0.8855000000000001  1.0000
  O   O3        1.0  0.64707  0.36121  0.22453000000000004  1.0000
  O   O4        1.0  0.78034  0.13004  0.75415  1.0000
  O   O5        1.0  0.03189  0.12768  0.7785200000000001  1.0000
  O   O6        1.0  0.9319099999999999  0.06469000000000003  0.3576000000000001  1.0000
  O   O7        1.0  0.8529  0.8613  0.72459  1.0000
  O   O8        1.0  0.04141  0.8596600000000001  0.11451000000000001  1.0000
  O   O9        1.0  0.86694  0.94995  0.82567  1.0000
  O   O10       1.0  0.21966  0.86997  0.24586000000000002  1.0000
  O   O11       1.0  0.45844999999999997  0.35966  0.61463  1.0000
  O   O12       1.0  0.1471  0.1387  0.27542000000000005  1.0000
  O   O13       1.0  0.35293  0.63879  0.77547  1.0000
  O   O14       1.0  0.40961  0.3892  0.25251  1.0000
  O   O15       1.0  0.36695  0.55008  0.6744000000000001  1.0000
  O   O16       1.0  0.6339099999999998  0.58338  0.15751  1.0000
  O   O17       1.0  0.13306  0.05005  0.17433000000000007  1.0000
  O   O18       1.0  0.36609  0.41662  0.84249  1.0000
  O   O19       1.0  0.09036  0.88922  0.75251  1.0000
  O   O20       1.0  0.28029  0.37008  0.74582  1.0000
  O   O21       1.0  0.59039  0.61081  0.7475  1.0000
  O   O22       1.0  0.86614  0.08345  0.65746  1.0000
  O   O23       1.0  0.4319899999999999  0.43532  0.14242  1.0000
  O   O24       1.0  0.96811  0.87232  0.22148  1.0000
  O   O25       1.0  0.54155  0.64035  0.38538  1.0000
  O   O26       1.0  0.06809  0.93531  0.6424000000000001  1.0000
  O   O27       1.0  0.56801  0.56469  0.8575800000000001  1.0000
  O   O28       1.0  0.53197  0.37232  0.72152  1.0000
  O   O29       1.0  0.13386  0.91655  0.34255  1.0000
  O   O30       1.0  0.71971  0.6299200000000001  0.25418  1.0000
  O   O31       1.0  0.46802  0.62768  0.27848  1.0000
  O   O32       1.0  0.6330499999999998  0.44992  0.3256  1.0000
