data_image0
_chemical_formula_structural       Zn8H32C64O40
_chemical_formula_sum              "Zn8 H32 C64 O40"
_cell_length_a       12.51841
_cell_length_b       14.65986
_cell_length_c       16.23001
_cell_angle_alpha    97.55177
_cell_angle_beta     89.88746
_cell_angle_gamma    89.75698000000001

_symmetry_space_group_name_H-M    'P 1'
_symmetry_Int_Tables_number       1

loop_
  _symmetry_equiv_pos_as_xyz
  'x,y,z'

loop_
  _atom_site_type_symbol
  _atom_site_label
  _atom_site_symmetry_multiplicity
  _atom_site_fract_x
  _atom_site_fract_y
  _atom_site_fract_z
  _atom_site_occupancy
  Zn  Zn1       1.0  0.54192  0.7101  0.15571  1.0000
  Zn  Zn2       1.0  0.54723  0.39138000000000006  0.6682  1.0000
  Zn  Zn3       1.0  0.04003000000000001  0.7899  0.84698  1.0000
  Zn  Zn4       1.0  0.04800000000000001  0.10478  0.3315  1.0000
  Zn  Zn5       1.0  0.4580800000000001  0.28989  0.8443  1.0000
  Zn  Zn6       1.0  0.45277000000000006  0.60861  0.3318  1.0000
  Zn  Zn7       1.0  0.95997  0.2101  0.15302  1.0000
  Zn  Zn8       1.0  0.952  0.8952200000000001  0.6685000000000002  1.0000
  H   H1        1.0  0.66086  0.75301  0.49519  1.0000
  H   H2        1.0  0.92982  0.93767  0.5027  1.0000
  H   H3        1.0  0.74894  0.87704  0.27763  1.0000
  H   H4        1.0  0.75031  0.74447  0.93555  1.0000
  H   H5        1.0  0.7592500000000001  0.54927  0.71176  1.0000
  H   H6        1.0  0.5716400000000001  0.49241  0.92283  1.0000
  H   H7        1.0  0.7986400000000002  0.7821299999999999  0.61207  1.0000
  H   H8        1.0  0.36515  0.62701  0.19366000000000005  1.0000
  H   H9        1.0  0.16434000000000004  0.75204  0.5077  1.0000
  H   H10       1.0  0.43149  0.56327  0.49691000000000013  1.0000
  H   H11       1.0  0.25023  0.62303  0.72297  1.0000
  H   H12       1.0  0.24940000000000007  0.75451  0.0661  1.0000
  H   H13       1.0  0.2612  0.9528299999999998  0.28782  1.0000
  H   H14       1.0  0.0726  0.00849  0.07723  1.0000
  H   H15       1.0  0.3005300000000001  0.72205  0.38989  1.0000
  H   H16       1.0  0.8649200000000002  0.87133  0.80616  1.0000
  H   H17       1.0  0.33914  0.24699  0.50481  1.0000
  H   H18       1.0  0.07018000000000002  0.06233  0.4973  1.0000
  H   H19       1.0  0.25106  0.12296000000000001  0.72237  1.0000
  H   H20       1.0  0.24969000000000005  0.25553  0.06445  1.0000
  H   H21       1.0  0.24075000000000005  0.45073  0.28824  1.0000
  H   H22       1.0  0.42836  0.50759  0.07717  1.0000
  H   H23       1.0  0.20136  0.21787  0.38793  1.0000
  H   H24       1.0  0.63485  0.37299  0.80634  1.0000
  H   H25       1.0  0.8356500000000001  0.24795999999999996  0.4923  1.0000
  H   H26       1.0  0.56851  0.43673  0.50309  1.0000
  H   H27       1.0  0.74976  0.37697  0.27703  1.0000
  H   H28       1.0  0.7506  0.24548  0.9339  1.0000
  H   H29       1.0  0.7388  0.04717  0.71218  1.0000
  H   H30       1.0  0.9274000000000002  0.99151  0.92277  1.0000
  H   H31       1.0  0.6994700000000003  0.27795  0.61012  1.0000
  H   H32       1.0  0.13507000000000002  0.12866  0.19384  1.0000
  C   C1        1.0  0.61253  0.75603  0.33234  1.0000
  C   C2        1.0  0.6978200000000002  0.80885  0.38145  1.0000
  C   C3        1.0  0.7135800000000002  0.7977299999999999  0.46545  1.0000
  C   C4        1.0  0.79754  0.84485  0.50824  1.0000
  C   C5        1.0  0.86454  0.90132  0.46896  1.0000
  C   C6        1.0  0.84654  0.91378  0.38608  1.0000
  C   C7        1.0  0.9173700000000002  0.97841  0.34755  1.0000
  C   C8        1.0  0.7628200000000003  0.86771  0.34204  1.0000
  C   C9        1.0  0.6137  0.65435  0.0218  1.0000
  C   C10       1.0  0.6569300000000001  0.6219  0.93765  1.0000
  C   C11       1.0  0.72622  0.67937  0.90093  1.0000
  C   C12       1.0  0.7625200000000001  0.65338  0.81961  1.0000
  C   C13       1.0  0.8315100000000001  0.71764  0.77986  1.0000
  C   C14       1.0  0.73123  0.56918  0.77511  1.0000
  C   C15       1.0  0.6657100000000001  0.51117  0.81414  1.0000
  C   C16       1.0  0.6267100000000001  0.53663  0.89462  1.0000
  C   C17       1.0  0.11561000000000003  0.74767  0.67101  1.0000
  C   C18       1.0  0.20058000000000004  0.6943600000000001  0.62073  1.0000
  C   C19       1.0  0.21663000000000002  0.70621  0.53686  1.0000
  C   C20       1.0  0.29986000000000007  0.6580900000000001  0.4930700000000001  1.0000
  C   C21       1.0  0.36655  0.60006  0.5314  1.0000
  C   C22       1.0  0.34791  0.58658  0.61404  1.0000
  C   C23       1.0  0.41644000000000003  0.5196799999999999  0.65232  1.0000
  C   C24       1.0  0.26462  0.63343  0.65883  1.0000
  C   C25       1.0  0.11337  0.84566  0.97988  1.0000
  C   C26       1.0  0.15708  0.87815  0.06351  1.0000
  C   C27       1.0  0.22615000000000005  0.82029  0.10024  1.0000
  C   C28       1.0  0.26331  0.84665  0.18107  1.0000
  C   C29       1.0  0.33274  0.78196  0.22035  1.0000
  C   C30       1.0  0.23268  0.93165  0.22494  1.0000
  C   C31       1.0  0.16717  0.98988  0.18584  1.0000
  C   C32       1.0  0.12753  0.96421  0.10584  1.0000
  C   C33       1.0  0.3874700000000001  0.24396000000000004  0.66766  1.0000
  C   C34       1.0  0.30218  0.19115000000000001  0.6185500000000002  1.0000
  C   C35       1.0  0.28642  0.20227  0.53455  1.0000
  C   C36       1.0  0.20246  0.15515  0.4917700000000001  1.0000
  C   C37       1.0  0.13545  0.09868  0.53104  1.0000
  C   C38       1.0  0.15346  0.08622000000000002  0.61392  1.0000
  C   C39       1.0  0.08262  0.021590000000000005  0.65245  1.0000
  C   C40       1.0  0.23718  0.13229  0.65796  1.0000
  C   C41       1.0  0.3863  0.34565  0.9782000000000002  1.0000
  C   C42       1.0  0.3430700000000001  0.3781  0.06235  1.0000
  C   C43       1.0  0.27378  0.32062  0.09907  1.0000
  C   C44       1.0  0.23748000000000005  0.34662  0.18039  1.0000
  C   C45       1.0  0.16849000000000006  0.28236  0.22015  1.0000
  C   C46       1.0  0.26877  0.43082  0.22489  1.0000
  C   C47       1.0  0.33429000000000003  0.48882  0.18586  1.0000
  C   C48       1.0  0.37329  0.46337  0.10538  1.0000
  C   C49       1.0  0.8843900000000002  0.25233  0.32899  1.0000
  C   C50       1.0  0.7994200000000002  0.30564  0.37927  1.0000
  C   C51       1.0  0.78337  0.29379  0.46314  1.0000
  C   C52       1.0  0.70014  0.34191  0.50693  1.0000
  C   C53       1.0  0.63345  0.39994  0.4686  1.0000
  C   C54       1.0  0.65209  0.41342  0.38596  1.0000
  C   C55       1.0  0.5835600000000001  0.48032  0.34768  1.0000
  C   C56       1.0  0.7353800000000003  0.36657  0.34117  1.0000
  C   C57       1.0  0.8866300000000003  0.15434  0.02012  1.0000
  C   C58       1.0  0.84292  0.12185  0.93649  1.0000
  C   C59       1.0  0.7738500000000001  0.17971  0.89976  1.0000
  C   C60       1.0  0.7366900000000002  0.15335  0.81893  1.0000
  C   C61       1.0  0.66726  0.21804  0.77965  1.0000
  C   C62       1.0  0.7673100000000002  0.06835  0.77506  1.0000
  C   C63       1.0  0.83283  0.010119999999999994  0.81416  1.0000
  C   C64       1.0  0.8724700000000001  0.03577999999999999  0.89416  1.0000
  O   O1        1.0  0.54556  0.7121  0.3709300000000001  1.0000
  O   O2        1.0  0.6150800000000001  0.75962  0.25397  1.0000
  O   O3        1.0  0.8155300000000001  0.84154  0.5929300000000002  1.0000
  O   O4        1.0  0.00654  0.9998599999999999  0.3874  1.0000
  O   O5        1.0  0.8927700000000002  0.012880000000000006  0.2834  1.0000
  O   O6        1.0  0.57095  0.5977399999999998  0.0663  1.0000
  O   O7        1.0  0.61878  0.74021  0.0503  1.0000
  O   O8        1.0  0.88359  0.77846  0.83411  1.0000
  O   O9        1.0  0.8361100000000002  0.71726  0.70353  1.0000
  O   O10       1.0  0.64012  0.4256  0.77038  1.0000
  O   O11       1.0  0.046819999999999994  0.7907799999999999  0.63303  1.0000
  O   O12       1.0  0.12106000000000004  0.74534  0.74958  1.0000
  O   O13       1.0  0.31742  0.66217  0.4083  1.0000
  O   O14       1.0  0.5089  0.50031  0.61629  1.0000
  O   O15       1.0  0.38615000000000005  0.48183  0.7131200000000002  1.0000
  O   O16       1.0  0.06751  0.90229  0.93701  1.0000
  O   O17       1.0  0.12084  0.76008  0.9503600000000002  1.0000
  O   O18       1.0  0.38477  0.72086  0.16604  1.0000
  O   O19       1.0  0.33807  0.7826999999999998  0.29671  1.0000
  O   O20       1.0  0.14225000000000002  0.07572999999999999  0.22968  1.0000
  O   O21       1.0  0.45443  0.2879  0.62907  1.0000
  O   O22       1.0  0.38492000000000004  0.24037999999999998  0.7460300000000002  1.0000
  O   O23       1.0  0.18446000000000007  0.15846  0.40707  1.0000
  O   O24       1.0  0.99345  0.00013999999999999524  0.6126  1.0000
  O   O25       1.0  0.10721  0.98712  0.71661  1.0000
  O   O26       1.0  0.4290500000000001  0.40225  0.9337  1.0000
  O   O27       1.0  0.38122  0.25979  0.9497  1.0000
  O   O28       1.0  0.11641  0.22154  0.16589000000000007  1.0000
  O   O29       1.0  0.16389000000000004  0.28273999999999994  0.29647  1.0000
  O   O30       1.0  0.35988  0.5744  0.22962  1.0000
  O   O31       1.0  0.95318  0.20921999999999996  0.36697  1.0000
  O   O32       1.0  0.87893  0.25466  0.2504200000000001  1.0000
  O   O33       1.0  0.68258  0.33782  0.5917  1.0000
  O   O34       1.0  0.49110000000000004  0.49969  0.38372  1.0000
  O   O35       1.0  0.61385  0.51817  0.28688  1.0000
  O   O36       1.0  0.93249  0.09771  0.06299  1.0000
  O   O37       1.0  0.8791600000000002  0.23992  0.04965  1.0000
  O   O38       1.0  0.6152300000000002  0.27914  0.8339600000000003  1.0000
  O   O39       1.0  0.66193  0.21729999999999997  0.70329  1.0000
  O   O40       1.0  0.8577400000000001  0.92426  0.77032  1.0000
