data_image0
_chemical_formula_structural       Na8Co4H32C64O32
_chemical_formula_sum              "Na8 Co4 H32 C64 O32"
_cell_length_a       10.05598
_cell_length_b       10.06273
_cell_length_c       20.9038
_cell_angle_alpha    90.01952
_cell_angle_beta     89.82547
_cell_angle_gamma    89.95842000000002

_space_group_name_H-M_alt    "P 1"
_space_group_IT_number       1

loop_
  _space_group_symop_operation_xyz
  'x, y, z'

loop_
  _atom_site_type_symbol
  _atom_site_label
  _atom_site_symmetry_multiplicity
  _atom_site_fract_x
  _atom_site_fract_y
  _atom_site_fract_z
  _atom_site_occupancy
  Na  Na1       1.0  0.9664900000000001  0.84663  0.02528  1.0000
  Na  Na2       1.0  0.28012  0.8201200000000001  0.01911  1.0000
  Na  Na3       1.0  0.03992  0.15342  0.52688  1.0000
  Na  Na4       1.0  0.70679  0.17329  0.52381  1.0000
  Na  Na5       1.0  0.14674  0.9533  0.7651  1.0000
  Na  Na6       1.0  0.17333  0.28656  0.7714999999999999  1.0000
  Na  Na7       1.0  0.8466199999999999  0.03355  0.27611  1.0000
  Na  Na8       1.0  0.8201199999999998  0.7199  0.26992  1.0000
  Co  Co1       1.0  0.11581  0.78755  0.88975  1.0000
  Co  Co2       1.0  0.8835400000000001  0.21214000000000002  0.39408  1.0000
  Co  Co3       1.0  0.21874  0.11611  0.63959  1.0000
  Co  Co4       1.0  0.78347  0.88441  0.1408  1.0000
  H   H1        1.0  0.62731  0.79275  0.9098099999999999  1.0000
  H   H2        1.0  0.4047200000000001  0.7983599999999998  0.7340299999999998  1.0000
  H   H3        1.0  0.61582  0.80776  0.67185  1.0000
  H   H4        1.0  0.8333499999999999  0.81369  0.72997  1.0000
  H   H5        1.0  0.12792  0.3403  0.89829  1.0000
  H   H6        1.0  0.13378  0.48169  0.09137  1.0000
  H   H7        1.0  0.1419  0.24717  0.13112  1.0000
  H   H8        1.0  0.14109  0.06106  0.054909999999999994  1.0000
  H   H9        1.0  0.37154  0.20718999999999999  0.4134  1.0000
  H   H10       1.0  0.59617  0.20168999999999998  0.23761999999999997  1.0000
  H   H11       1.0  0.38575  0.19245  0.17553  1.0000
  H   H12       1.0  0.16722  0.18697  0.2336  1.0000
  H   H13       1.0  0.8682600000000001  0.65743  0.40162999999999993  1.0000
  H   H14       1.0  0.8617500000000001  0.51635  0.59475  1.0000
  H   H15       1.0  0.85878  0.75105  0.63448  1.0000
  H   H16       1.0  0.8611  0.9372999999999999  0.55805  1.0000
  H   H17       1.0  0.2074  0.63312  0.65939  1.0000
  H   H18       1.0  0.20155  0.40197  0.48595999999999995  1.0000
  H   H19       1.0  0.19071000000000002  0.60949  0.42169999999999996  1.0000
  H   H20       1.0  0.18393  0.83034  0.47775  1.0000
  H   H21       1.0  0.66185  0.12972  0.65061  1.0000
  H   H22       1.0  0.51637  0.13444  0.8432199999999999  1.0000
  H   H23       1.0  0.75019  0.14048  0.8834399999999999  1.0000
  H   H24       1.0  0.9383400000000001  0.13858  0.80788  1.0000
  H   H25       1.0  0.79361  0.37199  0.16112  1.0000
  H   H26       1.0  0.79818  0.59596  0.98547  1.0000
  H   H27       1.0  0.80747  0.38533  0.9231799999999999  1.0000
  H   H28       1.0  0.8139199999999999  0.16723  0.9811399999999999  1.0000
  H   H29       1.0  0.33925  0.8715099999999999  0.15103  1.0000
  H   H30       1.0  0.48119  0.8664900000000001  0.34386  1.0000
  H   H31       1.0  0.24663000000000002  0.8591000000000001  0.38395999999999997  1.0000
  H   H32       1.0  0.06006999999999999  0.85947  0.3082  1.0000
  C   C1        1.0  0.74351  0.8026899999999999  0.82299  1.0000
  C   C2        1.0  0.62504  0.7959699999999998  0.85784  1.0000
  C   C3        1.0  0.50331  0.79545  0.82578  1.0000
  C   C4        1.0  0.49996  0.7986399999999999  0.7586099999999999  1.0000
  C   C5        1.0  0.61846  0.8040699999999998  0.72385  1.0000
  C   C6        1.0  0.73972  0.80708  0.7559  1.0000
  C   C7        1.0  0.8725399999999999  0.80626  0.85688  1.0000
  C   C8        1.0  0.37828  0.79388  0.86371  1.0000
  C   C9        1.0  0.13775  0.18614  0.97031  1.0000
  C   C10       1.0  0.13376  0.31865  0.9490999999999999  1.0000
  C   C11       1.0  0.13263  0.42516999999999994  0.99245  1.0000
  C   C12       1.0  0.13671000000000003  0.3983499999999999  0.05827999999999999  1.0000
  C   C13       1.0  0.14142  0.26744  0.07999  1.0000
  C   C14       1.0  0.14166  0.16217  0.03659  1.0000
  C   C15       1.0  0.13185  0.07216  0.9235599999999999  1.0000
  C   C16       1.0  0.12342  0.56754  0.97123  1.0000
  C   C17       1.0  0.25629  0.19754  0.32662  1.0000
  C   C18       1.0  0.37439  0.20412999999999998  0.36143  1.0000
  C   C19       1.0  0.49653  0.20473999999999998  0.32942  1.0000
  C   C20       1.0  0.50061  0.20154  0.26223  1.0000
  C   C21       1.0  0.3824  0.19626  0.22751  1.0000
  C   C22       1.0  0.26061  0.19338  0.25951  1.0000
  C   C23       1.0  0.12721  0.1936  0.36083  1.0000
  C   C24       1.0  0.62098  0.20607  0.36754  1.0000
  C   C25       1.0  0.86111  0.81165  0.47385  1.0000
  C   C26       1.0  0.86327  0.67917  0.45251  1.0000
  C   C27       1.0  0.86299  0.57313  0.49607  1.0000
  C   C28       1.0  0.86005  0.60006  0.56185  1.0000
  C   C29       1.0  0.858  0.73101  0.5834299999999999  1.0000
  C   C30       1.0  0.85852  0.83609  0.54002  1.0000
  C   C31       1.0  0.86717  0.92452  0.42686  1.0000
  C   C32       1.0  0.8702100000000002  0.43039000000000005  0.4754999999999999  1.0000
  C   C33       1.0  0.19635999999999998  0.74444  0.57131  1.0000
  C   C34       1.0  0.20372  0.62812  0.60746  1.0000
  C   C35       1.0  0.2043  0.50515  0.57671  1.0000
  C   C36       1.0  0.20088999999999999  0.49837  0.50957  1.0000
  C   C37       1.0  0.19476  0.61494  0.4736  1.0000
  C   C38       1.0  0.19138  0.7378  0.50435  1.0000
  C   C39       1.0  0.19363  0.8736699999999998  0.60463  1.0000
  C   C40       1.0  0.20625  0.38261  0.61614  1.0000
  C   C41       1.0  0.8141400000000001  0.1378  0.72288  1.0000
  C   C42       1.0  0.68198  0.13511  0.70149  1.0000
  C   C43       1.0  0.57461  0.13409  0.7443199999999999  1.0000
  C   C44       1.0  0.60019  0.13737  0.81025  1.0000
  C   C45       1.0  0.73101  0.14104  0.8322399999999999  1.0000
  C   C46       1.0  0.83747  0.14097  0.7892  1.0000
  C   C47       1.0  0.92625  0.13002  0.67504  1.0000
  C   C48       1.0  0.43357999999999997  0.12463  0.72153  1.0000
  C   C49       1.0  0.8033899999999999  0.25658  0.07416  1.0000
  C   C50       1.0  0.7967199999999999  0.37472  0.10912999999999999  1.0000
  C   C51       1.0  0.79582  0.4966400000000001  0.07712  1.0000
  C   C52       1.0  0.7987200000000001  0.50049  0.00994  1.0000
  C   C53       1.0  0.80408  0.38226  0.97515  1.0000
  C   C54       1.0  0.80737  0.26074  0.007049999999999999  1.0000
  C   C55       1.0  0.80666  0.12728  0.10794  1.0000
  C   C56       1.0  0.7938  0.62144  0.11502  1.0000
  C   C57       1.0  0.18533  0.86234  0.22345  1.0000
  C   C58       1.0  0.3177  0.86615  0.2019  1.0000
  C   C59       1.0  0.42416000000000004  0.8674100000000001  0.24498999999999999  1.0000
  C   C60       1.0  0.39776  0.86363  0.31091  1.0000
  C   C61       1.0  0.26676  0.8592199999999999  0.33284  1.0000
  C   C62       1.0  0.16122  0.8588399999999999  0.28971  1.0000
  C   C63       1.0  0.07316  0.86776  0.17605999999999997  1.0000
  C   C64       1.0  0.56569  0.8765799999999999  0.22255999999999998  1.0000
  O   O1        1.0  0.88036  0.79365  0.9170699999999999  1.0000
  O   O2        1.0  0.9792200000000001  0.81996  0.8221199999999999  1.0000
  O   O3        1.0  0.38026  0.78642  0.9238999999999999  1.0000
  O   O4        1.0  0.26847  0.80042  0.8313  1.0000
  O   O5        1.0  0.13027  0.09392  0.8641899999999999  1.0000
  O   O6        1.0  0.12691  0.95313  0.9490399999999999  1.0000
  O   O7        1.0  0.11334  0.59224  0.9110999999999999  1.0000
  O   O8        1.0  0.12597  0.65844  0.01354  1.0000
  O   O9        1.0  0.11965000000000002  0.20641  0.42108  1.0000
  O   O10       1.0  0.02052  0.17939  0.32662  1.0000
  O   O11       1.0  0.61832  0.21337  0.42775  1.0000
  O   O12       1.0  0.73132  0.19934000000000002  0.33528  1.0000
  O   O13       1.0  0.86771  0.8998300000000001  0.3677  1.0000
  O   O14       1.0  0.8727900000000001  0.04439  0.45097  1.0000
  O   O15       1.0  0.88647  0.40609  0.41559  1.0000
  O   O16       1.0  0.86127  0.33981  0.51768  1.0000
  O   O17       1.0  0.20738  0.88072  0.66482  1.0000
  O   O18       1.0  0.1804  0.98077  0.57078  1.0000
  O   O19       1.0  0.21342  0.38695  0.67621  1.0000
  O   O20       1.0  0.20007000000000003  0.27199  0.58415  1.0000
  O   O21       1.0  0.9000300000000001  0.12535  0.61614  1.0000
  O   O22       1.0  0.04681000000000001  0.12696  0.69841  1.0000
  O   O23       1.0  0.41343  0.11326  0.66082  1.0000
  O   O24       1.0  0.3396  0.12736  0.76219  1.0000
  O   O25       1.0  0.79333  0.11933  0.16814999999999997  1.0000
  O   O26       1.0  0.82022  0.02069  0.07325  1.0000
  O   O27       1.0  0.78607  0.61944  0.17518  1.0000
  O   O28       1.0  0.80009  0.73144  0.08259  1.0000
  O   O29       1.0  0.09938  0.8682400000000001  0.11704  1.0000
  O   O30       1.0  0.9526500000000001  0.87309  0.19975999999999997  1.0000
  O   O31       1.0  0.58777  0.88673  0.16211  1.0000
  O   O32       1.0  0.65852  0.8740199999999999  0.26379  1.0000
