data_image0
_chemical_formula_structural       Zn6P6H26C24N12O30
_chemical_formula_sum              "Zn6 P6 H26 C24 N12 O30"
_cell_length_a       10.18047
_cell_length_b       11.88523
_cell_length_c       13.805309999999999
_cell_angle_alpha    86.90434
_cell_angle_beta     90.07103
_cell_angle_gamma    88.35468

_space_group_name_H-M_alt    "P 1"
_space_group_IT_number       1

loop_
  _space_group_symop_operation_xyz
  'x, y, z'

loop_
  _atom_site_type_symbol
  _atom_site_label
  _atom_site_symmetry_multiplicity
  _atom_site_fract_x
  _atom_site_fract_y
  _atom_site_fract_z
  _atom_site_occupancy
  Zn  Zn1       1.0  0.15282000000000004  0.52302  0.3948  1.0000
  Zn  Zn2       1.0  0.5553000000000002  0.58598  0.36969  1.0000
  Zn  Zn3       1.0  0.5958  0.11241999999999999  0.8553400000000001  1.0000
  Zn  Zn4       1.0  0.8471800000000002  0.47697999999999996  0.6052  1.0000
  Zn  Zn5       1.0  0.44470000000000004  0.41401999999999994  0.63031  1.0000
  Zn  Zn6       1.0  0.40420000000000006  0.88758  0.14466000000000004  1.0000
  P   P1        1.0  0.3741  0.3534  0.42107000000000006  1.0000
  P   P2        1.0  0.67437  0.33117  0.7750000000000002  1.0000
  P   P3        1.0  0.83907  0.46714999999999995  0.37705000000000005  1.0000
  P   P4        1.0  0.6259  0.6466  0.57894  1.0000
  P   P5        1.0  0.32563  0.66883  0.22500000000000006  1.0000
  P   P6        1.0  0.16093  0.53285  0.6229500000000002  1.0000
  H   H1        1.0  0.15648  0.3088  0.9901600000000003  1.0000
  H   H2        1.0  0.54076  0.21862999999999996  0.37212  1.0000
  H   H3        1.0  0.38205  0.15439  0.38603000000000004  1.0000
  H   H4        1.0  0.26673000000000013  0.26637999999999995  0.14930000000000002  1.0000
  H   H5        1.0  0.21358000000000002  0.22646  0.27067  1.0000
  H   H6        1.0  0.72863  0.43255  0.9173700000000001  1.0000
  H   H7        1.0  0.59765  0.50144  0.8479600000000003  1.0000
  H   H8        1.0  0.39631  0.38315  0.8418700000000001  1.0000
  H   H9        1.0  0.34132000000000007  0.40887  0.96148  1.0000
  H   H10       1.0  0.97441  0.31264  0.31502  1.0000
  H   H11       1.0  0.80532  0.27236  0.3349400000000001  1.0000
  H   H12       1.0  0.010649999999999998  0.45313  0.18636000000000003  1.0000
  H   H13       1.0  0.89373  0.47481  0.09024000000000003  1.0000
  H   H14       1.0  0.84351  0.6912  0.009840000000000003  1.0000
  H   H15       1.0  0.4592400000000001  0.78137  0.62789  1.0000
  H   H16       1.0  0.61795  0.8456099999999998  0.6139700000000002  1.0000
  H   H17       1.0  0.73327  0.73362  0.8507100000000002  1.0000
  H   H18       1.0  0.78642  0.7735399999999999  0.72933  1.0000
  H   H19       1.0  0.27137  0.56745  0.08264000000000003  1.0000
  H   H20       1.0  0.40235  0.49856  0.15204000000000004  1.0000
  H   H21       1.0  0.60369  0.61684  0.15813000000000005  1.0000
  H   H22       1.0  0.65868  0.59113  0.03852  1.0000
  H   H23       1.0  0.02559000000000001  0.68736  0.6849800000000003  1.0000
  H   H24       1.0  0.19468  0.72764  0.6650600000000001  1.0000
  H   H25       1.0  0.98935  0.54687  0.8136400000000001  1.0000
  H   H26       1.0  0.10627000000000002  0.52519  0.9097600000000002  1.0000
  C   C1        1.0  0.51208  0.28237  0.19229000000000004  1.0000
  C   C2        1.0  0.575  0.34788  0.043290000000000016  1.0000
  C   C3        1.0  0.71821  0.34119  0.16848000000000002  1.0000
  C   C4        1.0  0.43564000000000014  0.22677  0.35587  1.0000
  C   C5        1.0  0.2889  0.21419999999999997  0.21544000000000005  1.0000
  C   C6        1.0  0.28756  0.08877  0.18535  1.0000
  C   C7        1.0  0.63632  0.4200799999999999  0.8791700000000002  1.0000
  C   C8        1.0  0.40715  0.35641999999999996  0.9187700000000002  1.0000
  C   C9        1.0  0.35898  0.23413  0.9314300000000002  1.0000
  C   C10       1.0  0.87037  0.33682  0.30493  1.0000
  C   C11       1.0  0.93845  0.41174  0.1422  1.0000
  C   C12       1.0  0.010160000000000002  0.32228  0.08161  1.0000
  C   C13       1.0  0.4879200000000001  0.71763  0.8077100000000002  1.0000
  C   C14       1.0  0.425  0.65212  0.95672  1.0000
  C   C15       1.0  0.28179000000000004  0.6588099999999999  0.83152  1.0000
  C   C16       1.0  0.56436  0.77323  0.64414  1.0000
  C   C17       1.0  0.7111  0.7857999999999999  0.7845600000000003  1.0000
  C   C18       1.0  0.71244  0.9112299999999999  0.81466  1.0000
  C   C19       1.0  0.36368  0.5799199999999999  0.12083000000000003  1.0000
  C   C20       1.0  0.5928500000000001  0.6435699999999999  0.08123000000000002  1.0000
  C   C21       1.0  0.6410200000000001  0.76587  0.06857  1.0000
  C   C22       1.0  0.12963000000000005  0.66318  0.69507  1.0000
  C   C23       1.0  0.06155000000000001  0.58826  0.8578  1.0000
  C   C24       1.0  0.9898400000000002  0.67772  0.91839  1.0000
  N   N1        1.0  0.41439  0.24142  0.25362  1.0000
  N   N2        1.0  0.8408500000000001  0.36222  0.20497  1.0000
  N   N3        1.0  0.54269  0.37243  0.9476400000000003  1.0000
  N   N4        1.0  0.47684000000000004  0.30764  0.09978000000000001  1.0000
  N   N5        1.0  0.63125  0.2946199999999999  0.23122  1.0000
  N   N6        1.0  0.69718  0.36937  0.07379000000000001  1.0000
  N   N7        1.0  0.58561  0.75857  0.7463900000000001  1.0000
  N   N8        1.0  0.15915000000000004  0.63778  0.7950300000000002  1.0000
  N   N9        1.0  0.45731000000000005  0.62757  0.05236000000000001  1.0000
  N   N10       1.0  0.52316  0.69236  0.9002200000000002  1.0000
  N   N11       1.0  0.36875  0.70537  0.76878  1.0000
  N   N12       1.0  0.30282  0.63062  0.9262100000000002  1.0000
  O   O1        1.0  0.22550000000000006  0.36512  0.3992000000000001  1.0000
  O   O2        1.0  0.44883  0.45224  0.37589  1.0000
  O   O3        1.0  0.40963  0.3161199999999999  0.5257400000000002  1.0000
  O   O4        1.0  0.40394  0.04443999999999999  0.17193  1.0000
  O   O5        1.0  0.18077  0.04548  0.17658  1.0000
  O   O6        1.0  0.7796400000000001  0.39471999999999996  0.71947  1.0000
  O   O7        1.0  0.72673  0.21652999999999997  0.8205800000000002  1.0000
  O   O8        1.0  0.54177  0.31411  0.7242  1.0000
  O   O9        1.0  0.43768000000000007  0.14872999999999995  0.92346  1.0000
  O   O10       1.0  0.23906000000000002  0.22266  0.9478000000000002  1.0000
  O   O11       1.0  0.7235  0.52744  0.32306  1.0000
  O   O12       1.0  0.9657300000000001  0.5325799999999999  0.3662  1.0000
  O   O13       1.0  0.8068  0.41762  0.47915000000000013  1.0000
  O   O14       1.0  0.10454  0.37112999999999996  0.028450000000000007  1.0000
  O   O15       1.0  0.98189  0.22358999999999998  0.08551000000000003  1.0000
  O   O16       1.0  0.7745000000000001  0.63487  0.6008000000000002  1.0000
  O   O17       1.0  0.55117  0.54776  0.62411  1.0000
  O   O18       1.0  0.59037  0.68388  0.4742600000000001  1.0000
  O   O19       1.0  0.5960500000000001  0.95556  0.8280700000000002  1.0000
  O   O20       1.0  0.81923  0.95452  0.82342  1.0000
  O   O21       1.0  0.22036  0.6052799999999999  0.28053000000000006  1.0000
  O   O22       1.0  0.27327  0.7834699999999999  0.17942000000000005  1.0000
  O   O23       1.0  0.45823  0.68589  0.27581  1.0000
  O   O24       1.0  0.56232  0.8512599999999999  0.07655  1.0000
  O   O25       1.0  0.76094  0.77734  0.05220000000000002  1.0000
  O   O26       1.0  0.27649999999999997  0.47256  0.67694  1.0000
  O   O27       1.0  0.03427  0.46741999999999995  0.6338  1.0000
  O   O28       1.0  0.19320000000000007  0.58238  0.5208500000000003  1.0000
  O   O29       1.0  0.8954600000000001  0.62887  0.9715500000000002  1.0000
  O   O30       1.0  0.01811  0.77641  0.9144900000000001  1.0000
