data_image0
_chemical_formula_structural       La8H24C56N8O32
_chemical_formula_sum              "La8 H24 C56 N8 O32"
_cell_length_a       17.01207
_cell_length_b       15.84443
_cell_length_c       17.09189
_cell_angle_alpha    73.98908
_cell_angle_beta     60.48058999999999
_cell_angle_gamma    58.35996999999999

_space_group_name_H-M_alt    "P 1"
_space_group_IT_number       1

loop_
  _space_group_symop_operation_xyz
  'x, y, z'

loop_
  _atom_site_type_symbol
  _atom_site_label
  _atom_site_symmetry_multiplicity
  _atom_site_fract_x
  _atom_site_fract_y
  _atom_site_fract_z
  _atom_site_occupancy
  La  La1       1.0  0.030960000000000147  0.48843  0.7131999999999997  1.0000
  La  La2       1.0  0.7290300000000002  0.7871599999999997  0.49674999999999997  1.0000
  La  La3       1.0  0.23694999999999994  0.0089  0.78235  1.0000
  La  La4       1.0  0.010140000000000052  0.7138699999999999  0.005929999999999999  1.0000
  La  La5       1.0  0.9690400000000001  0.51157  0.2868  1.0000
  La  La6       1.0  0.2709700000000001  0.21283  0.5032399999999998  1.0000
  La  La7       1.0  0.7630599999999998  0.9911  0.21765  1.0000
  La  La8       1.0  0.9898600000000001  0.28612999999999994  0.9940699999999998  1.0000
  H   H1        1.0  0.65299  0.53458  0.9757  1.0000
  H   H2        1.0  0.5498400000000002  0.6567799999999999  0.8893699999999998  1.0000
  H   H3        1.0  0.64385  0.6960100000000001  0.72696  1.0000
  H   H4        1.0  0.37999000000000005  0.47002  0.53695  1.0000
  H   H5        1.0  0.56112  0.39794  0.4157399999999999  1.0000
  H   H6        1.0  0.6256000000000002  0.24649000000000001  0.3351599999999999  1.0000
  H   H7        1.0  0.15609000000000003  0.96517  0.52319  1.0000
  H   H8        1.0  0.08735000000000014  0.84298  0.6109999999999998  1.0000
  H   H9        1.0  0.06322999999999991  0.8022600000000001  0.77203  1.0000
  H   H10       1.0  0.38249  0.03545  0.96624  1.0000
  H   H11       1.0  0.36705  0.11061  0.08969999999999997  1.0000
  H   H12       1.0  0.20160000000000003  0.26067000000000007  0.16817999999999997  1.0000
  H   H13       1.0  0.34701  0.46541999999999994  0.0243  1.0000
  H   H14       1.0  0.45016000000000006  0.34322  0.11062999999999998  1.0000
  H   H15       1.0  0.35615  0.30397999999999986  0.2730399999999999  1.0000
  H   H16       1.0  0.6200100000000001  0.52998  0.4630399999999999  1.0000
  H   H17       1.0  0.43888  0.60206  0.58426  1.0000
  H   H18       1.0  0.3744000000000001  0.75351  0.6648399999999999  1.0000
  H   H19       1.0  0.8439100000000002  0.03483  0.4768099999999999  1.0000
  H   H20       1.0  0.9126500000000001  0.15701999999999997  0.389  1.0000
  H   H21       1.0  0.9367700000000001  0.19774  0.22797  1.0000
  H   H22       1.0  0.61751  0.96455  0.033759999999999984  1.0000
  H   H23       1.0  0.6329500000000006  0.88939  0.9103  1.0000
  H   H24       1.0  0.7984000000000001  0.73933  0.83182  1.0000
  C   C1        1.0  0.8602500000000002  0.4393099999999999  0.9063999999999998  1.0000
  C   C2        1.0  0.79566  0.51133  0.86263  1.0000
  C   C3        1.0  0.6891400000000001  0.55464  0.9055199999999998  1.0000
  C   C4        1.0  0.6327800000000001  0.6221699999999999  0.8573899999999998  1.0000
  C   C5        1.0  0.6851900000000001  0.64434  0.7666099999999998  1.0000
  C   C6        1.0  0.7912700000000003  0.60065  0.7276899999999997  1.0000
  C   C7        1.0  0.85505  0.6202399999999999  0.6350499999999998  1.0000
  C   C8        1.0  0.24792999999999982  0.39819  0.58993  1.0000
  C   C9        1.0  0.35089  0.36188  0.5201499999999999  1.0000
  C   C10       1.0  0.4123100000000001  0.40538  0.4994899999999999  1.0000
  C   C11       1.0  0.51213  0.36527  0.4323899999999999  1.0000
  C   C12       1.0  0.5482400000000001  0.28124  0.38723999999999986  1.0000
  C   C13       1.0  0.4837600000000001  0.2414  0.4094699999999999  1.0000
  C   C14       1.0  0.5131200000000001  0.15438  0.3669  1.0000
  C   C15       1.0  0.20720000000000005  0.057789999999999994  0.5893  1.0000
  C   C16       1.0  0.16917000000000032  0.9862599999999998  0.6340799999999998  1.0000
  C   C17       1.0  0.14454000000000006  0.94435  0.5928199999999999  1.0000
  C   C18       1.0  0.10656999999999998  0.87695  0.64177  1.0000
  C   C19       1.0  0.09319000000000002  0.85388  0.73182  1.0000
  C   C20       1.0  0.12021000000000026  0.89669  0.7692799999999997  1.0000
  C   C21       1.0  0.11236000000000003  0.87706  0.86145  1.0000
  C   C22       1.0  0.23519  0.10257  0.91039  1.0000
  C   C23       1.0  0.23110000000000014  0.14074  0.9808699999999998  1.0000
  C   C24       1.0  0.31316000000000005  0.09957999999999997  0.0031799999999999997  1.0000
  C   C25       1.0  0.30422  0.14133  0.07124  1.0000
  C   C26       1.0  0.21211000000000002  0.22476  0.11547999999999999  1.0000
  C   C27       1.0  0.13247  0.26246  0.09132  1.0000
  C   C28       1.0  0.03366999999999999  0.34928  0.13227  1.0000
  C   C29       1.0  0.13975  0.56068  0.09359999999999997  1.0000
  C   C30       1.0  0.20435  0.48866999999999994  0.13736  1.0000
  C   C31       1.0  0.31086  0.44536  0.09447999999999997  1.0000
  C   C32       1.0  0.36722000000000016  0.37783  0.14260999999999996  1.0000
  C   C33       1.0  0.31481  0.35566  0.23338999999999993  1.0000
  C   C34       1.0  0.20872999999999997  0.39935  0.27231  1.0000
  C   C35       1.0  0.14495000000000016  0.3797599999999999  0.3649399999999999  1.0000
  C   C36       1.0  0.7520700000000002  0.6018099999999997  0.4100699999999999  1.0000
  C   C37       1.0  0.6491100000000001  0.63812  0.47985  1.0000
  C   C38       1.0  0.58769  0.59462  0.5005  1.0000
  C   C39       1.0  0.48787000000000014  0.63472  0.56761  1.0000
  C   C40       1.0  0.45176000000000044  0.7187599999999997  0.61276  1.0000
  C   C41       1.0  0.51624  0.7586  0.5905299999999998  1.0000
  C   C42       1.0  0.4868799999999999  0.8456200000000001  0.6331  1.0000
  C   C43       1.0  0.7928000000000002  0.94221  0.4106999999999999  1.0000
  C   C44       1.0  0.83084  0.01374  0.36592  1.0000
  C   C45       1.0  0.85546  0.05565  0.40717  1.0000
  C   C46       1.0  0.89343  0.12305  0.35823  1.0000
  C   C47       1.0  0.90681  0.14612  0.26818  1.0000
  C   C48       1.0  0.87979  0.10331  0.23071999999999995  1.0000
  C   C49       1.0  0.88764  0.12294  0.13854999999999995  1.0000
  C   C50       1.0  0.7648100000000001  0.8974299999999997  0.0896  1.0000
  C   C51       1.0  0.76891  0.85926  0.01913  1.0000
  C   C52       1.0  0.6868400000000001  0.9004199999999998  0.99682  1.0000
  C   C53       1.0  0.6957899999999999  0.85866  0.9287599999999998  1.0000
  C   C54       1.0  0.7878900000000001  0.77524  0.8845199999999999  1.0000
  C   C55       1.0  0.8675299999999999  0.73754  0.9086699999999998  1.0000
  C   C56       1.0  0.96633  0.65072  0.8677199999999998  1.0000
  N   N1        1.0  0.8470400000000003  0.53462  0.7746399999999998  1.0000
  N   N2        1.0  0.38501  0.28058  0.4751299999999999  1.0000
  N   N3        1.0  0.15851000000000012  0.9621899999999998  0.7214899999999999  1.0000
  N   N4        1.0  0.13993  0.22142  0.02512  1.0000
  N   N5        1.0  0.15295999999999998  0.46538  0.22535  1.0000
  N   N6        1.0  0.6149900000000001  0.71942  0.52486  1.0000
  N   N7        1.0  0.8414900000000001  0.03781000000000001  0.27850999999999987  1.0000
  N   N8        1.0  0.86007  0.7785799999999999  0.9748799999999997  1.0000
  O   O1        1.0  0.96174  0.40346  0.8581199999999998  1.0000
  O   O2        1.0  0.8253100000000007  0.40802999999999995  0.9874899999999998  1.0000
  O   O3        1.0  0.9516800000000001  0.5809999999999997  0.6119499999999998  1.0000
  O   O4        1.0  0.8143899999999998  0.67355  0.58015  1.0000
  O   O5        1.0  0.19695000000000004  0.34843  0.60639  1.0000
  O   O6        1.0  0.20365000000000016  0.47524  0.6353399999999998  1.0000
  O   O7        1.0  0.4446600000000003  0.12632  0.3937599999999999  1.0000
  O   O8        1.0  0.6043800000000001  0.10841999999999999  0.30608  1.0000
  O   O9        1.0  0.22815999999999997  0.09247  0.63648  1.0000
  O   O10       1.0  0.22010000000000005  0.09005  0.5087199999999998  1.0000
  O   O11       1.0  0.14894000000000013  0.91572  0.8837299999999998  1.0000
  O   O12       1.0  0.06870000000000018  0.82459  0.9168999999999998  1.0000
  O   O13       1.0  0.15242000000000014  0.14961  0.8934099999999998  1.0000
  O   O14       1.0  0.31311000000000017  0.026459999999999997  0.86485  1.0000
  O   O15       1.0  0.9666100000000001  0.37611999999999995  0.10307  1.0000
  O   O16       1.0  0.016900000000000005  0.39588  0.19419  1.0000
  O   O17       1.0  0.038260000000000016  0.59654  0.14187999999999995  1.0000
  O   O18       1.0  0.17469  0.59196  0.012509999999999997  1.0000
  O   O19       1.0  0.04832000000000007  0.4189999999999999  0.38804999999999995  1.0000
  O   O20       1.0  0.18560999999999997  0.32644999999999996  0.41985  1.0000
  O   O21       1.0  0.80305  0.6515699999999999  0.39361  1.0000
  O   O22       1.0  0.7963499999999999  0.52476  0.36466  1.0000
  O   O23       1.0  0.5553499999999999  0.87368  0.60623  1.0000
  O   O24       1.0  0.39562000000000025  0.8915699999999998  0.69392  1.0000
  O   O25       1.0  0.7718400000000001  0.90753  0.36351  1.0000
  O   O26       1.0  0.7799100000000001  0.9099499999999998  0.49128  1.0000
  O   O27       1.0  0.85106  0.08427999999999998  0.11627  1.0000
  O   O28       1.0  0.9313000000000001  0.17540999999999995  0.08308999999999997  1.0000
  O   O29       1.0  0.8475799999999999  0.85039  0.10657999999999997  1.0000
  O   O30       1.0  0.68689  0.97354  0.13515  1.0000
  O   O31       1.0  0.033390000000000225  0.6238799999999998  0.8969299999999998  1.0000
  O   O32       1.0  0.9831  0.60412  0.80581  1.0000
