data_image0
_chemical_formula_structural       Zn8H48C72O26
_chemical_formula_sum              "Zn8 H48 C72 O26"
_cell_length_a       18.63446
_cell_length_b       18.63463
_cell_length_c       18.6346
_cell_angle_alpha    59.88040000000001
_cell_angle_beta     59.89505
_cell_angle_gamma    59.89509999999999

_space_group_name_H-M_alt    "P 1"
_space_group_IT_number       1

loop_
  _space_group_symop_operation_xyz
  'x, y, z'

loop_
  _atom_site_type_symbol
  _atom_site_label
  _atom_site_symmetry_multiplicity
  _atom_site_fract_x
  _atom_site_fract_y
  _atom_site_fract_z
  _atom_site_occupancy
  Zn  Zn1       1.0  0.7066000000000001  0.8796799999999999  0.70665  1.0000
  Zn  Zn2       1.0  0.7066000000000001  0.70665  0.8796899999999997  1.0000
  Zn  Zn3       1.0  0.70694  0.70676  0.70677  1.0000
  Zn  Zn4       1.0  0.8796699999999998  0.7065599999999997  0.70656  1.0000
  Zn  Zn5       1.0  0.29341  0.12031000000000004  0.2933499999999999  1.0000
  Zn  Zn6       1.0  0.29340999999999995  0.29335  0.12031  1.0000
  Zn  Zn7       1.0  0.12033  0.29344  0.29343999999999987  1.0000
  Zn  Zn8       1.0  0.29306  0.29323  0.29323  1.0000
  H   H1        1.0  0.5959399999999999  0.78412  0.1195  1.0000
  H   H2        1.0  0.5004  0.11963999999999997  0.78422  1.0000
  H   H3        1.0  0.11924  0.50019  0.59582  1.0000
  H   H4        1.0  0.7842499999999997  0.596  0.50041  1.0000
  H   H5        1.0  0.7841799999999999  0.11941000000000002  0.59596  1.0000
  H   H6        1.0  0.11958000000000003  0.7842399999999999  0.50043  1.0000
  H   H7        1.0  0.50022  0.59582  0.1192  1.0000
  H   H8        1.0  0.5960100000000004  0.5004499999999995  0.78422  1.0000
  H   H9        1.0  0.11944000000000002  0.59597  0.78412  1.0000
  H   H10       1.0  0.7842599999999997  0.5004  0.1196  1.0000
  H   H11       1.0  0.59582  0.11922999999999997  0.50021  1.0000
  H   H12       1.0  0.50046  0.7842  0.59603  1.0000
  H   H13       1.0  0.49959999999999993  0.21576999999999993  0.88035  1.0000
  H   H14       1.0  0.40406  0.8805  0.21586999999999995  1.0000
  H   H15       1.0  0.21575000000000008  0.49958  0.40399  1.0000
  H   H16       1.0  0.8807699999999999  0.4041699999999999  0.4998  1.0000
  H   H17       1.0  0.49977999999999995  0.8808  0.40416999999999986  1.0000
  H   H18       1.0  0.40399  0.21576999999999996  0.49954  1.0000
  H   H19       1.0  0.21581999999999987  0.40404  0.88059  1.0000
  H   H20       1.0  0.8804199999999999  0.49956999999999996  0.21576  1.0000
  H   H21       1.0  0.4995499999999999  0.40397  0.21579999999999994  1.0000
  H   H22       1.0  0.40417999999999965  0.49978000000000006  0.88077  1.0000
  H   H23       1.0  0.21573999999999988  0.8804000000000001  0.4995999999999999  1.0000
  H   H24       1.0  0.88056  0.21586999999999998  0.4040299999999999  1.0000
  H   H25       1.0  0.40406  0.21586999999999995  0.8805  1.0000
  H   H26       1.0  0.49959999999999993  0.88035  0.21578  1.0000
  H   H27       1.0  0.8807699999999999  0.4998000000000001  0.40418  1.0000
  H   H28       1.0  0.21574999999999994  0.40399  0.49959  1.0000
  H   H29       1.0  0.21582000000000004  0.8805800000000001  0.40404  1.0000
  H   H30       1.0  0.8804199999999999  0.21576  0.49957  1.0000
  H   H31       1.0  0.49977999999999995  0.40417  0.8808  1.0000
  H   H32       1.0  0.40399000000000007  0.49953999999999993  0.21578  1.0000
  H   H33       1.0  0.88056  0.40403  0.21588  1.0000
  H   H34       1.0  0.21573999999999993  0.49959  0.8804  1.0000
  H   H35       1.0  0.40418000000000004  0.88076  0.49979  1.0000
  H   H36       1.0  0.4995499999999999  0.21580000000000002  0.4039699999999999  1.0000
  H   H37       1.0  0.5004  0.7842199999999999  0.11965  1.0000
  H   H38       1.0  0.5959399999999999  0.11949000000000008  0.7841299999999998  1.0000
  H   H39       1.0  0.7842499999999997  0.50041  0.59601  1.0000
  H   H40       1.0  0.11924000000000004  0.59582  0.5002  1.0000
  H   H41       1.0  0.5002200000000002  0.11920000000000007  0.5958299999999997  1.0000
  H   H42       1.0  0.5960100000000002  0.78422  0.50046  1.0000
  H   H43       1.0  0.7841800000000001  0.5959499999999998  0.11940999999999997  1.0000
  H   H44       1.0  0.11958000000000003  0.50042  0.78424  1.0000
  H   H45       1.0  0.50046  0.59602  0.7841999999999998  1.0000
  H   H46       1.0  0.5958200000000001  0.50021  0.11923  1.0000
  H   H47       1.0  0.7842599999999997  0.11958999999999999  0.5004  1.0000
  H   H48       1.0  0.11944000000000002  0.78412  0.59597  1.0000
  C   C1        1.0  0.5266400000000002  0.9104399999999998  0.03632  1.0000
  C   C2        1.0  0.5301300000000001  0.82548  0.11431  1.0000
  C   C3        1.0  0.5266400000000001  0.036320000000000095  0.9104399999999998  1.0000
  C   C4        1.0  0.53013  0.11431000000000001  0.82548  1.0000
  C   C5        1.0  0.03623999999999996  0.52654  0.52655  1.0000
  C   C6        1.0  0.11408  0.53  0.53  1.0000
  C   C7        1.0  0.9104399999999999  0.52667  0.52668  1.0000
  C   C8        1.0  0.8255799999999999  0.5302000000000001  0.5301999999999999  1.0000
  C   C9        1.0  0.91046  0.036300000000000075  0.5266399999999998  1.0000
  C   C10       1.0  0.8255199999999999  0.11427  0.53013  1.0000
  C   C11       1.0  0.03629999999999997  0.9104399999999999  0.5266399999999998  1.0000
  C   C12       1.0  0.11427000000000001  0.82549  0.5301399999999998  1.0000
  C   C13       1.0  0.52655  0.52655  0.03623  1.0000
  C   C14       1.0  0.53001  0.53  0.11406999999999998  1.0000
  C   C15       1.0  0.5266899999999999  0.52668  0.91042  1.0000
  C   C16       1.0  0.53022  0.53021  0.82555  1.0000
  C   C17       1.0  0.036300000000000165  0.5266399999999996  0.91045  1.0000
  C   C18       1.0  0.11427000000000001  0.5301400000000001  0.8254999999999998  1.0000
  C   C19       1.0  0.91046  0.52663  0.0363  1.0000
  C   C20       1.0  0.8255199999999999  0.53012  0.11426999999999997  1.0000
  C   C21       1.0  0.52655  0.03622999999999999  0.52655  1.0000
  C   C22       1.0  0.53001  0.11407000000000002  0.53  1.0000
  C   C23       1.0  0.5266899999999998  0.9104199999999999  0.52669  1.0000
  C   C24       1.0  0.53022  0.82555  0.53022  1.0000
  C   C25       1.0  0.47337  0.08955000000000002  0.96368  1.0000
  C   C26       1.0  0.4698800000000001  0.17450999999999997  0.88569  1.0000
  C   C27       1.0  0.47337  0.96367  0.08955999999999997  1.0000
  C   C28       1.0  0.4698800000000001  0.88569  0.17452  1.0000
  C   C29       1.0  0.08957000000000002  0.47331999999999996  0.4733199999999999  1.0000
  C   C30       1.0  0.17443000000000003  0.46979999999999983  0.4698  1.0000
  C   C31       1.0  0.96377  0.4734499999999999  0.47345  1.0000
  C   C32       1.0  0.88592  0.46998999999999996  0.47  1.0000
  C   C33       1.0  0.4734599999999999  0.96376  0.47345  1.0000
  C   C34       1.0  0.47  0.88592  0.47  1.0000
  C   C35       1.0  0.47331  0.08956999999999998  0.47331  1.0000
  C   C36       1.0  0.46978999999999993  0.17444000000000007  0.46977999999999986  1.0000
  C   C37       1.0  0.08954000000000006  0.4733600000000001  0.9636999999999998  1.0000
  C   C38       1.0  0.17447999999999994  0.46987000000000007  0.88573  1.0000
  C   C39       1.0  0.9637000000000002  0.47335  0.08955  1.0000
  C   C40       1.0  0.88574  0.46984999999999993  0.1745  1.0000
  C   C41       1.0  0.47331  0.47331  0.08958  1.0000
  C   C42       1.0  0.46978999999999993  0.46978  0.17445  1.0000
  C   C43       1.0  0.47346000000000016  0.4734400000000001  0.9637699999999998  1.0000
  C   C44       1.0  0.47  0.4699900000000001  0.8859299999999998  1.0000
  C   C45       1.0  0.0895400000000001  0.96369  0.47336  1.0000
  C   C46       1.0  0.17448000000000002  0.8857199999999998  0.46986999999999995  1.0000
  C   C47       1.0  0.9637000000000002  0.08954999999999999  0.47336  1.0000
  C   C48       1.0  0.88574  0.17450000000000004  0.4698599999999999  1.0000
  C   C49       1.0  0.6123799999999999  0.8876000000000001  0.88761  1.0000
  C   C50       1.0  0.5561600000000003  0.9438699999999999  0.9438699999999998  1.0000
  C   C51       1.0  0.88758  0.6123200000000002  0.6123199999999998  1.0000
  C   C52       1.0  0.94383  0.55609  0.55609  1.0000
  C   C53       1.0  0.8875900000000002  0.8875700000000001  0.6124  1.0000
  C   C54       1.0  0.9438699999999997  0.94385  0.55618  1.0000
  C   C55       1.0  0.6123700000000001  0.6123500000000001  0.8875299999999998  1.0000
  C   C56       1.0  0.55611  0.5561100000000001  0.9437999999999999  1.0000
  C   C57       1.0  0.8875899999999999  0.61239  0.88758  1.0000
  C   C58       1.0  0.9438700000000001  0.55617  0.9438599999999999  1.0000
  C   C59       1.0  0.6123699999999999  0.88752  0.61236  1.0000
  C   C60       1.0  0.5561099999999997  0.9438000000000001  0.55612  1.0000
  C   C61       1.0  0.38763000000000003  0.11238999999999999  0.1124  1.0000
  C   C62       1.0  0.44383999999999996  0.056130000000000006  0.056129999999999985  1.0000
  C   C63       1.0  0.11242999999999992  0.38767  0.38768  1.0000
  C   C64       1.0  0.05617000000000007  0.44389999999999996  0.44391  1.0000
  C   C65       1.0  0.38763  0.11247000000000004  0.3876399999999999  1.0000
  C   C66       1.0  0.44389  0.05619000000000001  0.44388  1.0000
  C   C67       1.0  0.11241000000000005  0.3875999999999999  0.11243  1.0000
  C   C68       1.0  0.056140000000000016  0.44382  0.05614  1.0000
  C   C69       1.0  0.3876299999999998  0.38764  0.11248  1.0000
  C   C70       1.0  0.4438900000000001  0.44388  0.0562  1.0000
  C   C71       1.0  0.11240999999999998  0.11241999999999995  0.3876  1.0000
  C   C72       1.0  0.056140000000000016  0.05614  0.44382  1.0000
  O   O1        1.0  0.7499800000000001  0.7499600000000001  0.7499699999999998  1.0000
  O   O2        1.0  0.25002999999999975  0.25003  0.25003  1.0000
  O   O3        1.0  0.6340900000000002  0.9274199999999999  0.80429  1.0000
  O   O4        1.0  0.6340900000000003  0.80429  0.9274199999999998  1.0000
  O   O5        1.0  0.8043099999999997  0.6341100000000001  0.6341199999999998  1.0000
  O   O6        1.0  0.9273500000000001  0.63399  0.63399  1.0000
  O   O7        1.0  0.92739  0.80426  0.6340899999999998  1.0000
  O   O8        1.0  0.8042899999999998  0.9273800000000001  0.6341199999999998  1.0000
  O   O9        1.0  0.6341999999999998  0.63414  0.8042499999999998  1.0000
  O   O10       1.0  0.6340300000000001  0.63404  0.9273  1.0000
  O   O11       1.0  0.8042900000000001  0.63411  0.9273799999999998  1.0000
  O   O12       1.0  0.9273900000000003  0.63409  0.80426  1.0000
  O   O13       1.0  0.6342  0.80424  0.6341499999999998  1.0000
  O   O14       1.0  0.63403  0.9273  0.63404  1.0000
  O   O15       1.0  0.36592  0.07258000000000002  0.19570999999999994  1.0000
  O   O16       1.0  0.36592  0.19570999999999994  0.07257  1.0000
  O   O17       1.0  0.07264999999999996  0.366  0.36601  1.0000
  O   O18       1.0  0.1956900000000001  0.36587999999999987  0.36587999999999987  1.0000
  O   O19       1.0  0.36581  0.19574999999999998  0.3658499999999999  1.0000
  O   O20       1.0  0.3659799999999999  0.07269000000000006  0.3659599999999999  1.0000
  O   O21       1.0  0.07262  0.3659  0.19573999999999997  1.0000
  O   O22       1.0  0.19572  0.36588  0.07261  1.0000
  O   O23       1.0  0.36597  0.36596  0.07269  1.0000
  O   O24       1.0  0.36580999999999997  0.36585  0.19574999999999995  1.0000
  O   O25       1.0  0.07262000000000005  0.19574000000000005  0.3659099999999999  1.0000
  O   O26       1.0  0.19570999999999997  0.07261  0.36589  1.0000
