data_image0
_chemical_formula_structural       Co8H24C64O32
_chemical_formula_sum              "Co8 H24 C64 O32"
_cell_length_a       13.23817
_cell_length_b       14.25258
_cell_length_c       17.85941
_cell_angle_alpha    96.78981
_cell_angle_beta     90.03182
_cell_angle_gamma    89.97473

_space_group_name_H-M_alt    "P 1"
_space_group_IT_number       1

loop_
  _space_group_symop_operation_xyz
  'x, y, z'

loop_
  _atom_site_type_symbol
  _atom_site_label
  _atom_site_symmetry_multiplicity
  _atom_site_fract_x
  _atom_site_fract_y
  _atom_site_fract_z
  _atom_site_occupancy
  Co  Co1       1.0  0.06129  0.0019100000000000067  0.7738  1.0000
  Co  Co2       1.0  0.3066  0.43214  0.16026999999999994  1.0000
  Co  Co3       1.0  0.56068  0.4982200000000001  0.72613  1.0000
  Co  Co4       1.0  0.8063  0.06805  0.33985999999999994  1.0000
  Co  Co5       1.0  0.9399  0.9982800000000002  0.2267  1.0000
  Co  Co6       1.0  0.69319  0.56792  0.83949  1.0000
  Co  Co7       1.0  0.43895  0.50201  0.2739  1.0000
  Co  Co8       1.0  0.19332  0.9318900000000001  0.66013  1.0000
  H   H1        1.0  0.60375  0.23384000000000005  0.23270999999999997  1.0000
  H   H2        1.0  0.55249  0.31248  0.01124  1.0000
  H   H3        1.0  0.80164  0.12798  0.05244  1.0000
  H   H4        1.0  0.8279099999999998  0.10879000000000003  0.9407  1.0000
  H   H5        1.0  0.8102799999999999  0.22948000000000005  0.73225  1.0000
  H   H6        1.0  0.63037  0.34655  0.92075  1.0000
  H   H7        1.0  0.10347999999999997  0.26637  0.2672  1.0000
  H   H8        1.0  0.05266  0.18768  0.48862999999999995  1.0000
  H   H9        1.0  0.30186  0.37178  0.4474599999999999  1.0000
  H   H10       1.0  0.32732999999999995  0.39137000000000005  0.55952  1.0000
  H   H11       1.0  0.31007  0.27045  0.76778  1.0000
  H   H12       1.0  0.13081  0.15308  0.5787499999999999  1.0000
  H   H13       1.0  0.3961  0.76598  0.7670999999999998  1.0000
  H   H14       1.0  0.4475599999999999  0.6875900000000003  0.9886499999999999  1.0000
  H   H15       1.0  0.19841999999999996  0.87201  0.9474599999999999  1.0000
  H   H16       1.0  0.17335999999999996  0.8921300000000001  0.05933999999999999  1.0000
  H   H17       1.0  0.18981999999999993  0.77097  0.26757  1.0000
  H   H18       1.0  0.36926  0.6533  0.07886  1.0000
  H   H19       1.0  0.8957799999999998  0.7340800000000001  0.73281  1.0000
  H   H20       1.0  0.9475499999999998  0.8122800000000002  0.5113499999999999  1.0000
  H   H21       1.0  0.69833  0.6280200000000001  0.5520899999999997  1.0000
  H   H22       1.0  0.6725499999999998  0.6089  0.44041999999999987  1.0000
  H   H23       1.0  0.6915999999999998  0.7294000000000002  0.23184  1.0000
  H   H24       1.0  0.8698299999999999  0.8464800000000002  0.42128  1.0000
  C   C1        1.0  0.6247699999999999  0.22902  0.17359999999999998  1.0000
  C   C2        1.0  0.48854  0.3435000000000001  0.1547  1.0000
  C   C3        1.0  0.57151  0.27997  0.12418999999999998  1.0000
  C   C4        1.0  0.59846  0.27413  0.04795  1.0000
  C   C5        1.0  0.71974  0.22422  0.9416  1.0000
  C   C6        1.0  0.70493  0.17143000000000005  0.14563  1.0000
  C   C7        1.0  0.6838699999999999  0.22208000000000003  0.020289999999999996  1.0000
  C   C8        1.0  0.73551  0.16996  0.07034  1.0000
  C   C9        1.0  0.79385  0.16138  0.9090999999999999  1.0000
  C   C10       1.0  0.9114799999999997  0.10071000000000001  0.8050499999999999  1.0000
  C   C11       1.0  0.71523  0.29473  0.8230899999999998  1.0000
  C   C12       1.0  0.6732099999999998  0.3689500000000001  0.78067  1.0000
  C   C13       1.0  0.78558  0.22872999999999996  0.7902899999999998  1.0000
  C   C14       1.0  0.6836799999999998  0.29272000000000004  0.89785  1.0000
  C   C15       1.0  0.8273199999999998  0.16408000000000006  0.8348899999999999  1.0000
  C   C16       1.0  0.7609099999999998  0.11453000000000002  0.19649  1.0000
  C   C17       1.0  0.12461999999999997  0.27109  0.3263  1.0000
  C   C18       1.0  0.98833  0.15682  0.3453  1.0000
  C   C19       1.0  0.07129  0.22030000000000002  0.37572  1.0000
  C   C20       1.0  0.09844999999999998  0.22603  0.4519  1.0000
  C   C21       1.0  0.21955999999999995  0.27573000000000003  0.55831  1.0000
  C   C22       1.0  0.20494999999999994  0.32844  0.35427  1.0000
  C   C23       1.0  0.1839  0.27790999999999993  0.47958  1.0000
  C   C24       1.0  0.23566  0.3299  0.42957  1.0000
  C   C25       1.0  0.29334  0.33868  0.59099  1.0000
  C   C26       1.0  0.41085  0.39942  0.69499  1.0000
  C   C27       1.0  0.21506999999999996  0.20516  0.67676  1.0000
  C   C28       1.0  0.17321  0.13072000000000003  0.7188899999999999  1.0000
  C   C29       1.0  0.28525  0.27119  0.70975  1.0000
  C   C30       1.0  0.18369  0.20711  0.60193  1.0000
  C   C31       1.0  0.32677  0.33596  0.6652  1.0000
  C   C32       1.0  0.26082  0.38529000000000013  0.30341  1.0000
  C   C33       1.0  0.37523  0.7708699999999999  0.8262499999999998  1.0000
  C   C34       1.0  0.51149  0.65653  0.84526  1.0000
  C   C35       1.0  0.42854  0.72002  0.8756799999999998  1.0000
  C   C36       1.0  0.40164999999999995  0.7259300000000001  0.9519099999999999  1.0000
  C   C37       1.0  0.28048  0.77588  0.05823  1.0000
  C   C38       1.0  0.29512  0.8284600000000002  0.85425  1.0000
  C   C39       1.0  0.3162599999999999  0.77794  0.97956  1.0000
  C   C40       1.0  0.26456  0.8300499999999998  0.92956  1.0000
  C   C41       1.0  0.20704  0.8392700000000001  0.09084999999999997  1.0000
  C   C42       1.0  0.09055  0.90118  0.19502  1.0000
  C   C43       1.0  0.28467  0.7052600000000002  0.17668  1.0000
  C   C44       1.0  0.32653  0.6310000000000002  0.21903  1.0000
  C   C45       1.0  0.21475  0.7716000000000002  0.20956999999999995  1.0000
  C   C46       1.0  0.3161199999999999  0.70717  0.10188  1.0000
  C   C47       1.0  0.17381  0.8368000000000002  0.16514  1.0000
  C   C48       1.0  0.23926  0.8852900000000002  0.8033599999999999  1.0000
  C   C49       1.0  0.8748999999999999  0.72921  0.6736499999999997  1.0000
  C   C50       1.0  0.01132  0.8435400000000002  0.6547999999999998  1.0000
  C   C51       1.0  0.9283  0.78007  0.62432  1.0000
  C   C52       1.0  0.9015599999999999  0.7740099999999999  0.54803  1.0000
  C   C53       1.0  0.78072  0.72398  0.4415899999999999  1.0000
  C   C54       1.0  0.79477  0.67158  0.6456  1.0000
  C   C55       1.0  0.8162699999999999  0.72189  0.5202999999999998  1.0000
  C   C56       1.0  0.7643999999999999  0.6699500000000002  0.57023  1.0000
  C   C57       1.0  0.70663  0.6614200000000001  0.40884  1.0000
  C   C58       1.0  0.58887  0.601  0.3048599999999999  1.0000
  C   C59       1.0  0.78621  0.7944200000000002  0.3232099999999999  1.0000
  C   C60       1.0  0.82913  0.8694199999999999  0.28216999999999987  1.0000
  C   C61       1.0  0.7157899999999998  0.7287500000000001  0.2900299999999999  1.0000
  C   C62       1.0  0.81705  0.7924000000000002  0.39811  1.0000
  C   C63       1.0  0.6733  0.6643500000000001  0.33459  1.0000
  C   C64       1.0  0.73872  0.61474  0.6963999999999998  1.0000
  O   O1        1.0  0.92948  0.08336999999999999  0.73511  1.0000
  O   O2        1.0  0.96946  0.06511999999999997  0.8530099999999998  1.0000
  O   O3        1.0  0.4949699999999999  0.37996  0.22312999999999997  1.0000
  O   O4        1.0  0.41393  0.3574100000000001  0.11046  1.0000
  O   O5        1.0  0.83552  0.06564000000000003  0.1706  1.0000
  O   O6        1.0  0.7287299999999998  0.11945  0.26596  1.0000
  O   O7        1.0  0.63558  0.44514  0.82289  1.0000
  O   O8        1.0  0.6665399999999998  0.3643800000000001  0.7109899999999999  1.0000
  O   O9        1.0  0.4293  0.41639  0.76487  1.0000
  O   O10       1.0  0.4686599999999999  0.43504000000000004  0.64697  1.0000
  O   O11       1.0  0.9950099999999998  0.12026  0.27692  1.0000
  O   O12       1.0  0.9137199999999998  0.14292  0.38942  1.0000
  O   O13       1.0  0.33554  0.43402999999999997  0.3294  1.0000
  O   O14       1.0  0.2286  0.38055  0.23397  1.0000
  O   O15       1.0  0.13565  0.054659999999999986  0.6765099999999998  1.0000
  O   O16       1.0  0.16655999999999999  0.13501  0.7885599999999998  1.0000
  O   O17       1.0  0.07061  0.9164700000000001  0.26485999999999993  1.0000
  O   O18       1.0  0.0351  0.9395100000000002  0.14711999999999995  1.0000
  O   O19       1.0  0.50501  0.6200600000000001  0.77685  1.0000
  O   O20       1.0  0.5861  0.64263  0.8894799999999998  1.0000
  O   O21       1.0  0.1646  0.9341100000000002  0.8293899999999997  1.0000
  O   O22       1.0  0.27135  0.8804999999999998  0.7339299999999997  1.0000
  O   O23       1.0  0.36418  0.5548  0.17690999999999998  1.0000
  O   O24       1.0  0.33336  0.63567  0.28875  1.0000
  O   O25       1.0  0.57046  0.58375  0.23499999999999996  1.0000
  O   O26       1.0  0.5311  0.56521  0.35286  1.0000
  O   O27       1.0  0.005039999999999999  0.8798999999999999  0.7232399999999998  1.0000
  O   O28       1.0  0.08582  0.85742  0.61052  1.0000
  O   O29       1.0  0.6636399999999998  0.56635  0.67054  1.0000
  O   O30       1.0  0.77118  0.6192700000000002  0.7657499999999999  1.0000
  O   O31       1.0  0.8641199999999998  0.94539  0.32581  1.0000
  O   O32       1.0  0.83867  0.8655500000000002  0.21262999999999999  1.0000
