data_image0
_chemical_formula_structural       U6H18C54O38
_chemical_formula_sum              "U6 H18 C54 O38"
_cell_length_a       9.84333
_cell_length_b       18.44135
_cell_length_c       18.47716
_cell_angle_alpha    120.08389
_cell_angle_beta     90.08935
_cell_angle_gamma    90.01311

_space_group_name_H-M_alt    "P 1"
_space_group_IT_number       1

loop_
  _space_group_symop_operation_xyz
  'x, y, z'

loop_
  _atom_site_type_symbol
  _atom_site_label
  _atom_site_symmetry_multiplicity
  _atom_site_fract_x
  _atom_site_fract_y
  _atom_site_fract_z
  _atom_site_occupancy
  U   U1        1.0  0.75558  0.42852  0.8039199999999997  1.0000
  U   U2        1.0  0.74975  0.38058  0.57479  1.0000
  U   U3        1.0  0.75321  0.19701  0.62088  1.0000
  U   U4        1.0  0.25302  0.57339  0.19322999999999996  1.0000
  U   U5        1.0  0.24785000000000001  0.623  0.42515  1.0000
  U   U6        1.0  0.24844999999999998  0.8033499999999999  0.3751899999999999  1.0000
  H   H1        1.0  0.03099  0.52711  0.6054099999999998  1.0000
  H   H2        1.0  0.0345  0.07812999999999996  0.47542  1.0000
  H   H3        1.0  0.02937999999999999  0.3909899999999999  0.9163999999999998  1.0000
  H   H4        1.0  0.53228  0.4756  0.39551  1.0000
  H   H5        1.0  0.53117  0.9213700000000001  0.5253499999999998  1.0000
  H   H6        1.0  0.53354  0.60571  0.0783  1.0000
  H   H7        1.0  0.96785  0.47488  0.3959699999999999  1.0000
  H   H8        1.0  0.96709  0.92165  0.52563  1.0000
  H   H9        1.0  0.96947  0.60491  0.08037  1.0000
  H   H10       1.0  0.46729999999999994  0.52701  0.6036699999999998  1.0000
  H   H11       1.0  0.47015  0.07984999999999993  0.47554999999999986  1.0000
  H   H12       1.0  0.46492  0.3965299999999998  0.9204199999999998  1.0000
  H   H13       1.0  0.25322  0.45954000000000006  0.76503  1.0000
  H   H14       1.0  0.24983  0.30828  0.54521  1.0000
  H   H15       1.0  0.25352  0.23144000000000003  0.6903  1.0000
  H   H16       1.0  0.75092  0.54384  0.23579  1.0000
  H   H17       1.0  0.74916  0.69317  0.4595199999999999  1.0000
  H   H18       1.0  0.7499  0.7660100000000001  0.30781  1.0000
  C   C1        1.0  0.12797  0.49181999999999976  0.6888799999999998  1.0000
  C   C2        1.0  0.12658  0.51816  0.6294599999999998  1.0000
  C   C3        1.0  0.9975  0.47432  0.71796  1.0000
  C   C4        1.0  0.12789  0.19793  0.51136  1.0000
  C   C5        1.0  0.12911  0.11204999999999993  0.4845699999999999  1.0000
  C   C6        1.0  0.99497  0.24118  0.52771  1.0000
  C   C7        1.0  0.12767  0.30781  0.7984599999999997  1.0000
  C   C8        1.0  0.12545999999999996  0.3675799999999999  0.8840399999999998  1.0000
  C   C9        1.0  0.9950599999999998  0.27952999999999995  0.7542499999999998  1.0000
  C   C10       1.0  0.6276399999999999  0.5109000000000001  0.31219  1.0000
  C   C11       1.0  0.62765  0.48439  0.3713  1.0000
  C   C12       1.0  0.49457  0.5272900000000001  0.2849399999999999  1.0000
  C   C13       1.0  0.62547  0.8024899999999999  0.4915699999999999  1.0000
  C   C14       1.0  0.62613  0.88805  0.51697  1.0000
  C   C15       1.0  0.4912  0.75994  0.47504999999999986  1.0000
  C   C16       1.0  0.6274699999999999  0.6893199999999999  0.19784999999999994  1.0000
  C   C17       1.0  0.62839  0.62999  0.11219999999999997  1.0000
  C   C18       1.0  0.49436  0.7166399999999999  0.24105999999999994  1.0000
  C   C19       1.0  0.874  0.51046  0.31208999999999987  1.0000
  C   C20       1.0  0.87328  0.48411999999999994  0.3713299999999999  1.0000
  C   C21       1.0  0.0076  0.5271  0.28607  1.0000
  C   C22       1.0  0.8722499999999999  0.80253  0.4913899999999999  1.0000
  C   C23       1.0  0.872  0.88825  0.5170499999999998  1.0000
  C   C24       1.0  0.0054  0.7584600000000001  0.4742399999999999  1.0000
  C   C25       1.0  0.8737500000000001  0.68906  0.19904999999999995  1.0000
  C   C26       1.0  0.8742500000000001  0.6295800000000001  0.11336999999999997  1.0000
  C   C27       1.0  0.00528  0.7171099999999999  0.24425  1.0000
  C   C28       1.0  0.3746  0.4928499999999999  0.6884899999999998  1.0000
  C   C29       1.0  0.37268  0.5182699999999998  0.6285799999999998  1.0000
  C   C30       1.0  0.5089  0.47717000000000004  0.7152299999999998  1.0000
  C   C31       1.0  0.37392  0.19894000000000003  0.51187  1.0000
  C   C32       1.0  0.37478  0.11301999999999997  0.4847199999999999  1.0000
  C   C33       1.0  0.50613  0.24304000000000003  0.52855  1.0000
  C   C34       1.0  0.37431  0.3105699999999999  0.8008799999999998  1.0000
  C   C35       1.0  0.37082  0.37057999999999996  0.8863199999999998  1.0000
  C   C36       1.0  0.51105  0.28649  0.7612299999999997  1.0000
  C   C37       1.0  0.24927999999999997  0.53213  0.60001  1.0000
  C   C38       1.0  0.25217  0.48003999999999986  0.7190999999999997  1.0000
  C   C39       1.0  0.25113  0.56244  0.53906  1.0000
  C   C40       1.0  0.25242  0.06953999999999996  0.4699699999999999  1.0000
  C   C41       1.0  0.25045  0.2415699999999999  0.5241899999999998  1.0000
  C   C42       1.0  0.25367  0.97792  0.4379999999999999  1.0000
  C   C43       1.0  0.24705  0.3978499999999999  0.9281199999999997  1.0000
  C   C44       1.0  0.25228  0.2780399999999999  0.7566699999999997  1.0000
  C   C45       1.0  0.24613999999999997  0.45861  0.019339999999999993  1.0000
  C   C46       1.0  0.75053  0.46996  0.39989999999999987  1.0000
  C   C47       1.0  0.75093  0.52308  0.28153  1.0000
  C   C48       1.0  0.7517  0.43920999999999993  0.46034  1.0000
  C   C49       1.0  0.74891  0.93109  0.53093  1.0000
  C   C50       1.0  0.74879  0.75968  0.47966  1.0000
  C   C51       1.0  0.747  0.022340000000000013  0.56052  1.0000
  C   C52       1.0  0.75161  0.60113  0.06979  1.0000
  C   C53       1.0  0.7502499999999999  0.71983  0.24134999999999995  1.0000
  C   C54       1.0  0.75141  0.5409499999999999  0.9782799999999998  1.0000
  O   O1        1.0  0.9943899999999999  0.45502000000000004  0.77486  1.0000
  O   O2        1.0  0.36332  0.5700899999999999  0.5084699999999998  1.0000
  O   O3        1.0  0.88575  0.4797699999999998  0.6838699999999998  1.0000
  O   O4        1.0  0.98548  0.31669999999999987  0.5458599999999998  1.0000
  O   O5        1.0  0.36621  0.9379000000000001  0.42125  1.0000
  O   O6        1.0  0.8878799999999999  0.19694000000000006  0.52204  1.0000
  O   O7        1.0  0.9870199999999999  0.21906999999999982  0.6792799999999998  1.0000
  O   O8        1.0  0.35981  0.4846  0.058939999999999985  1.0000
  O   O9        1.0  0.88673  0.3178099999999998  0.7947099999999998  1.0000
  O   O10       1.0  0.48636999999999997  0.54318  0.22588999999999995  1.0000
  O   O11       1.0  0.86485  0.42602  0.4866699999999999  1.0000
  O   O12       1.0  0.38707  0.5236  0.32352  1.0000
  O   O13       1.0  0.47968999999999995  0.6849099999999999  0.4600199999999999  1.0000
  O   O14       1.0  0.85956  0.06334000000000004  0.57443  1.0000
  O   O15       1.0  0.38641  0.8029400000000001  0.47693999999999986  1.0000
  O   O16       1.0  0.48613999999999996  0.7742700000000001  0.3167599999999999  1.0000
  O   O17       1.0  0.86456  0.5127799999999998  0.9387499999999998  1.0000
  O   O18       1.0  0.387  0.6788900000000001  0.19782  1.0000
  O   O19       1.0  0.019709999999999995  0.54382  0.22800999999999993  1.0000
  O   O20       1.0  0.63892  0.42444999999999994  0.48565999999999987  1.0000
  O   O21       1.0  0.11287  0.5233  0.32689  1.0000
  O   O22       1.0  0.013289999999999998  0.6827100000000002  0.4573399999999999  1.0000
  O   O23       1.0  0.63464  0.061950000000000005  0.57411  1.0000
  O   O24       1.0  0.11304  0.7999999999999999  0.4774499999999999  1.0000
  O   O25       1.0  0.0111  0.77506  0.32013  1.0000
  O   O26       1.0  0.63914  0.5177700000000001  0.9377699999999998  1.0000
  O   O27       1.0  0.11499  0.68095  0.20371999999999996  1.0000
  O   O28       1.0  0.52012  0.45931999999999984  0.7727699999999997  1.0000
  O   O29       1.0  0.13948  0.5831499999999997  0.5173199999999998  1.0000
  O   O30       1.0  0.61387  0.48253000000000007  0.67603  1.0000
  O   O31       1.0  0.51419  0.3183299999999999  0.5456399999999998  1.0000
  O   O32       1.0  0.14047  0.9381  0.4255499999999999  1.0000
  O   O33       1.0  0.61388  0.20003999999999994  0.52389  1.0000
  O   O34       1.0  0.52684  0.22564999999999993  0.68699  1.0000
  O   O35       1.0  0.13377  0.48430999999999996  0.059259999999999986  1.0000
  O   O36       1.0  0.61267  0.32986  0.80615  1.0000
  O   O37       1.0  0.7470699999999999  0.32962  0.66481  1.0000
  O   O38       1.0  0.25282  0.66433  0.33456  1.0000
