data_image0
_chemical_formula_structural       Mg16H16C40N16O40
_chemical_formula_sum              "Mg16 H16 C40 N16 O40"
_cell_length_a       8.40769
_cell_length_b       15.41812
_cell_length_c       15.418139999999998
_cell_angle_alpha    89.91323999999999
_cell_angle_beta     90.0
_cell_angle_gamma    90.0

_symmetry_space_group_name_H-M    'P 1'
_symmetry_Int_Tables_number       1

loop_
  _symmetry_equiv_pos_as_xyz
  'x,y,z'

loop_
  _atom_site_type_symbol
  _atom_site_label
  _atom_site_symmetry_multiplicity
  _atom_site_fract_x
  _atom_site_fract_y
  _atom_site_fract_z
  _atom_site_occupancy
  Mg  Mg1       1.0  0.36838  0.11013  0.00027  1.0000
  Mg  Mg2       1.0  0.8683799999999998  0.8898600000000002  0.99973  1.0000
  Mg  Mg3       1.0  0.61934  0.50017  0.60986  1.0000
  Mg  Mg4       1.0  0.11934  0.4998300000000001  0.39013  1.0000
  Mg  Mg5       1.0  0.8806699999999997  0.39013  0.49983  1.0000
  Mg  Mg6       1.0  0.38067  0.6098600000000002  0.50017  1.0000
  Mg  Mg7       1.0  0.63162  0.00027  0.11014  1.0000
  Mg  Mg8       1.0  0.13162  0.9997200000000002  0.88986  1.0000
  Mg  Mg9       1.0  0.0  0.09822000000000003  0.09822  1.0000
  Mg  Mg10      1.0  0.0  0.24783  0.24782999999999997  1.0000
  Mg  Mg11      1.0  0.5  0.9017800000000002  0.90178  1.0000
  Mg  Mg12      1.0  0.5  0.75216  0.75217  1.0000
  Mg  Mg13      1.0  0.25  0.40183  0.5981699999999999  1.0000
  Mg  Mg14      1.0  0.25  0.25189  0.7480999999999999  1.0000
  Mg  Mg15      1.0  0.7499999999999998  0.59817  0.40183  1.0000
  Mg  Mg16      1.0  0.7499999999999998  0.7481  0.2519  1.0000
  H   H1        1.0  0.92938  0.95681  0.14229  1.0000
  H   H2        1.0  0.54705  0.3718300000000001  0.18093  1.0000
  H   H3        1.0  0.42938  0.04318000000000002  0.85771  1.0000
  H   H4        1.0  0.04704  0.62816  0.81906  1.0000
  H   H5        1.0  0.17829  0.35629  0.45675  1.0000
  H   H6        1.0  0.79694  0.3183400000000001  0.8715  1.0000
  H   H7        1.0  0.67829  0.6437  0.54324  1.0000
  H   H8        1.0  0.29693999999999987  0.68166  0.1285  1.0000
  H   H9        1.0  0.3217099999999999  0.54324  0.6437  1.0000
  H   H10       1.0  0.7030699999999999  0.12849000000000002  0.68166  1.0000
  H   H11       1.0  0.82171  0.4567500000000001  0.3563  1.0000
  H   H12       1.0  0.20306  0.8715000000000003  0.31834  1.0000
  H   H13       1.0  0.07062  0.14229  0.95681  1.0000
  H   H14       1.0  0.45296  0.18093  0.37183  1.0000
  H   H15       1.0  0.57062  0.8577100000000002  0.04319  1.0000
  H   H16       1.0  0.95296  0.8190600000000002  0.62816  1.0000
  C   C1        1.0  0.27338  0.24538000000000004  0.1365  1.0000
  C   C2        1.0  0.45963  0.4937600000000001  0.33374  1.0000
  C   C3        1.0  0.38232  0.42411  0.28256  1.0000
  C   C4        1.0  0.30379  0.31682  0.19796999999999998  1.0000
  C   C5        1.0  0.43343  0.37128  0.21387  1.0000
  C   C6        1.0  0.77338  0.75462  0.86349  1.0000
  C   C7        1.0  0.95963  0.50624  0.66626  1.0000
  C   C8        1.0  0.88232  0.57589  0.71744  1.0000
  C   C9        1.0  0.80379  0.68318  0.80203  1.0000
  C   C10       1.0  0.93343  0.62872  0.78613  1.0000
  C   C11       1.0  0.5230999999999999  0.36283  0.74428  1.0000
  C   C12       1.0  0.70858  0.16563000000000005  0.99371  1.0000
  C   C13       1.0  0.63163  0.21700000000000005  0.92398  1.0000
  C   C14       1.0  0.5536  0.30182  0.81643  1.0000
  C   C15       1.0  0.68313  0.28562  0.87094  1.0000
  C   C16       1.0  0.0231  0.63716  0.25572  1.0000
  C   C17       1.0  0.20858  0.8343700000000002  0.00629  1.0000
  C   C18       1.0  0.13162  0.78299  0.07601  1.0000
  C   C19       1.0  0.05359  0.69817  0.18355999999999997  1.0000
  C   C20       1.0  0.18313  0.71437  0.12906  1.0000
  C   C21       1.0  0.9769  0.25571  0.63716  1.0000
  C   C22       1.0  0.79143  0.00629  0.8343599999999999  1.0000
  C   C23       1.0  0.8683799999999998  0.07601  0.78299  1.0000
  C   C24       1.0  0.94641  0.18356000000000006  0.69817  1.0000
  C   C25       1.0  0.81687  0.12905  0.71437  1.0000
  C   C26       1.0  0.47690000000000005  0.7442800000000003  0.36283  1.0000
  C   C27       1.0  0.29142  0.9937100000000002  0.16563  1.0000
  C   C28       1.0  0.36838  0.92398  0.21701  1.0000
  C   C29       1.0  0.44641  0.81643  0.30183  1.0000
  C   C30       1.0  0.31687  0.87094  0.28562  1.0000
  C   C31       1.0  0.72662  0.1365  0.24538  1.0000
  C   C32       1.0  0.5403699999999999  0.3337300000000001  0.49375999999999987  1.0000
  C   C33       1.0  0.61769  0.28255  0.42410999999999993  1.0000
  C   C34       1.0  0.69621  0.19797000000000006  0.31682  1.0000
  C   C35       1.0  0.56657  0.21387000000000003  0.37128  1.0000
  C   C36       1.0  0.22662  0.86349  0.75462  1.0000
  C   C37       1.0  0.04037  0.6662600000000002  0.50624  1.0000
  C   C38       1.0  0.11769  0.7174400000000002  0.57589  1.0000
  C   C39       1.0  0.19621  0.80203  0.68318  1.0000
  C   C40       1.0  0.06657  0.78612  0.6287199999999997  1.0000
  N   N1        1.0  0.23057999999999998  0.40232  0.30554  1.0000
  N   N2        1.0  0.18291  0.33691  0.25464  1.0000
  N   N3        1.0  0.73058  0.5976700000000003  0.69446  1.0000
  N   N4        1.0  0.68292  0.66308  0.74535  1.0000
  N   N5        1.0  0.47969  0.19441000000000005  0.90241  1.0000
  N   N6        1.0  0.43239  0.24539000000000005  0.83688  1.0000
  N   N7        1.0  0.9796999999999999  0.8055800000000001  0.09758  1.0000
  N   N8        1.0  0.93239  0.7546  0.16311  1.0000
  N   N9        1.0  0.02031  0.09758000000000001  0.80558  1.0000
  N   N10       1.0  0.06761  0.16311  0.7546  1.0000
  N   N11       1.0  0.52031  0.9024100000000003  0.19442  1.0000
  N   N12       1.0  0.5676099999999998  0.8368800000000002  0.2454  1.0000
  N   N13       1.0  0.76942  0.3055400000000001  0.40233  1.0000
  N   N14       1.0  0.81709  0.25464000000000003  0.33692  1.0000
  N   N15       1.0  0.26942  0.69446  0.5976699999999998  1.0000
  N   N16       1.0  0.31708999999999987  0.74535  0.66308  1.0000
  O   O1        1.0  0.37261  0.22413  0.08006  1.0000
  O   O2        1.0  0.87159  0.9866100000000002  0.09621  1.0000
  O   O3        1.0  0.13445  0.20764000000000005  0.14715999999999996  1.0000
  O   O4        1.0  0.37216  0.52422  0.39588999999999996  1.0000
  O   O5        1.0  0.59944  0.51856  0.31692  1.0000
  O   O6        1.0  0.87261  0.77586  0.91993  1.0000
  O   O7        1.0  0.37159  0.01338  0.90379  1.0000
  O   O8        1.0  0.63445  0.79235  0.85283  1.0000
  O   O9        1.0  0.87216  0.4757800000000001  0.60411  1.0000
  O   O10       1.0  0.09943999999999999  0.48143000000000014  0.68308  1.0000
  O   O11       1.0  0.62104  0.41987  0.72279  1.0000
  O   O12       1.0  0.12043999999999999  0.40261  0.48597  1.0000
  O   O13       1.0  0.38519  0.3510600000000001  0.70606  1.0000
  O   O14       1.0  0.61999  0.10457000000000002  0.02552  1.0000
  O   O15       1.0  0.84939  0.18144000000000002  0.01734  1.0000
  O   O16       1.0  0.12104  0.58012  0.27721  1.0000
  O   O17       1.0  0.62045  0.5973800000000002  0.51403  1.0000
  O   O18       1.0  0.88519  0.64893  0.29394  1.0000
  O   O19       1.0  0.11998999999999999  0.8954300000000002  0.97448  1.0000
  O   O20       1.0  0.34939  0.81855  0.98265  1.0000
  O   O21       1.0  0.87896  0.2772  0.58012  1.0000
  O   O22       1.0  0.37956  0.51402  0.59738  1.0000
  O   O23       1.0  0.11481  0.29394  0.64893  1.0000
  O   O24       1.0  0.88002  0.97448  0.8954299999999997  1.0000
  O   O25       1.0  0.65062  0.98265  0.81855  1.0000
  O   O26       1.0  0.37896  0.72279  0.41987  1.0000
  O   O27       1.0  0.87956  0.4859700000000001  0.40261  1.0000
  O   O28       1.0  0.61481  0.70606  0.35105999999999987  1.0000
  O   O29       1.0  0.38002  0.02551000000000001  0.10457  1.0000
  O   O30       1.0  0.15060999999999997  0.01734  0.18144  1.0000
  O   O31       1.0  0.62739  0.08006  0.22413  1.0000
  O   O32       1.0  0.12841  0.0962  0.98661  1.0000
  O   O33       1.0  0.86556  0.14716000000000007  0.20763999999999994  1.0000
  O   O34       1.0  0.6278399999999998  0.39588  0.52422  1.0000
  O   O35       1.0  0.40056  0.3169200000000001  0.51857  1.0000
  O   O36       1.0  0.12739  0.91993  0.77586  1.0000
  O   O37       1.0  0.62841  0.90379  0.01339  1.0000
  O   O38       1.0  0.36555  0.85283  0.79236  1.0000
  O   O39       1.0  0.12784  0.60411  0.47578  1.0000
  O   O40       1.0  0.90057  0.6830800000000002  0.48143  1.0000
