data_image0
_chemical_formula_structural       Zn10H28C52N24O24
_chemical_formula_sum              "Zn10 H28 C52 N24 O24"
_cell_length_a       9.82412
_cell_length_b       13.405250000000002
_cell_length_c       17.905050000000003
_cell_angle_alpha    84.13727999999999
_cell_angle_beta     74.09537999999999
_cell_angle_gamma    68.25547

_symmetry_space_group_name_H-M    'P 1'
_symmetry_Int_Tables_number       1

loop_
  _symmetry_equiv_pos_as_xyz
  'x,y,z'

loop_
  _atom_site_type_symbol
  _atom_site_label
  _atom_site_symmetry_multiplicity
  _atom_site_fract_x
  _atom_site_fract_y
  _atom_site_fract_z
  _atom_site_occupancy
  Zn  Zn1       1.0  0.31705  0.18389  0.14959  1.0000
  Zn  Zn2       1.0  0.9388299999999998  0.89527  0.19867  1.0000
  Zn  Zn3       1.0  0.6486300000000003  0.8160799999999998  0.85053  1.0000
  Zn  Zn4       1.0  0.02786000000000001  0.10447999999999998  0.80098  1.0000
  Zn  Zn5       1.0  0.71341  0.68453  0.3505  1.0000
  Zn  Zn6       1.0  0.38544000000000006  0.39559  0.30123  1.0000
  Zn  Zn7       1.0  0.7516  0.31455999999999995  0.64973  1.0000
  Zn  Zn8       1.0  0.08069000000000007  0.6039699999999999  0.69905  1.0000
  Zn  Zn9       1.0  0.9804  0.99978  4e-05  1.0000
  Zn  Zn10      1.0  0.22831999999999997  0.49981  0.50112  1.0000
  H   H1        1.0  0.16195999999999997  0.55181  0.13116  1.0000
  H   H2        1.0  0.18999999999999992  0.37576  0.9347400000000001  1.0000
  H   H3        1.0  0.04409000000000005  0.7199  0.92715  1.0000
  H   H4        1.0  0.6127799999999999  0.13848  0.027890000000000005  1.0000
  H   H5        1.0  0.55806  0.014329999999999997  0.25584  1.0000
  H   H6        1.0  0.15680999999999998  0.15755  0.03252  1.0000
  H   H7        1.0  0.16088  0.00051  0.24861000000000003  1.0000
  H   H8        1.0  0.8431  0.44858  0.86869  1.0000
  H   H9        1.0  0.49875000000000014  0.62456  0.06564  1.0000
  H   H10       1.0  0.6905699999999998  0.28026  0.07231  1.0000
  H   H11       1.0  0.77766  0.86145  0.97221  1.0000
  H   H12       1.0  0.8261100000000005  0.9842499999999997  0.74406  1.0000
  H   H13       1.0  0.34630999999999995  0.8424999999999999  0.96679  1.0000
  H   H14       1.0  0.4062300000000001  0.99978  0.75082  1.0000
  H   H15       1.0  0.5420299999999999  0.05199  0.36882  1.0000
  H   H16       1.0  0.3732200000000001  0.8758699999999999  0.56503  1.0000
  H   H17       1.0  0.22161999999999998  0.21981999999999993  0.57316  1.0000
  H   H18       1.0  0.8878300000000002  0.6383199999999999  0.47217  1.0000
  H   H19       1.0  0.061549999999999924  0.5154  0.24412  1.0000
  H   H20       1.0  0.43604000000000037  0.65803  0.46769999999999995  1.0000
  H   H21       1.0  0.65616  0.50097  0.25184  1.0000
  H   H22       1.0  0.9625599999999999  0.9472699999999997  0.63135  1.0000
  H   H23       1.0  0.8162899999999996  0.12465999999999999  0.43443  1.0000
  H   H24       1.0  0.011430000000000136  0.7803599999999998  0.42746  1.0000
  H   H25       1.0  0.00029000000000010213  0.3611399999999999  0.52821  1.0000
  H   H26       1.0  0.82083  0.48368  0.75645  1.0000
  H   H27       1.0  0.5637599999999998  0.34173  0.53338  1.0000
  H   H28       1.0  0.4095499999999999  0.49872  0.74925  1.0000
  C   C1        1.0  0.04856000000000009  0.7521699999999999  0.07319  1.0000
  C   C2        1.0  0.09263000000000002  0.6467299999999999  0.03462  1.0000
  C   C3        1.0  0.14459000000000002  0.55008  0.074  1.0000
  C   C4        1.0  0.18274999999999997  0.4522  0.03753  1.0000
  C   C5        1.0  0.24109999999999998  0.349  0.07761000000000001  1.0000
  C   C6        1.0  0.16374  0.45126  0.96281  1.0000
  C   C7        1.0  0.11049000000000005  0.5478699999999999  0.92358  1.0000
  C   C8        1.0  0.09097999999999995  0.54525  0.84357  1.0000
  C   C9        1.0  0.07938000000000008  0.6451499999999999  0.9588600000000002  1.0000
  C   C10       1.0  0.63549  0.09363999999999997  0.07977  1.0000
  C   C11       1.0  0.60612  0.03163  0.19618  1.0000
  C   C12       1.0  0.14081999999999997  0.10447999999999998  0.08125000000000002  1.0000
  C   C13       1.0  0.1442  0.024579999999999998  0.19121  1.0000
  C   C14       1.0  0.8723200000000003  0.24774999999999997  0.92659  1.0000
  C   C15       1.0  0.7727599999999994  0.35341999999999996  0.96507  1.0000
  C   C16       1.0  0.7671000000000001  0.4500599999999999  0.92588  1.0000
  C   C17       1.0  0.6707599999999999  0.54797  0.9625700000000001  1.0000
  C   C18       1.0  0.6662200000000003  0.65103  0.92258  1.0000
  C   C19       1.0  0.5761799999999999  0.54904  0.03733  1.0000
  C   C20       1.0  0.58079  0.45241  0.07638  1.0000
  C   C21       1.0  0.47956000000000004  0.45490999999999987  0.15659  1.0000
  C   C22       1.0  0.6823  0.3551  0.04083  1.0000
  C   C23       1.0  0.8071900000000001  0.90607  0.9202900000000002  1.0000
  C   C24       1.0  0.8316199999999999  0.96745  0.80379  1.0000
  C   C25       1.0  0.3248700000000001  0.8956399999999998  0.91817  1.0000
  C   C26       1.0  0.3568000000000002  0.9756799999999998  0.80825  1.0000
  C   C27       1.0  0.37196999999999997  0.25236  0.42689  1.0000
  C   C28       1.0  0.37702  0.14702  0.46554  1.0000
  C   C29       1.0  0.4676  0.05049  0.42605  1.0000
  C   C30       1.0  0.4685700000000001  0.95273  0.46251  1.0000
  C   C31       1.0  0.56627  0.8498  0.42216  1.0000
  C   C32       1.0  0.3751  0.95156  0.53724  1.0000
  C   C33       1.0  0.28329  0.04805  0.57661  1.0000
  C   C34       1.0  0.18329999999999994  0.04577  0.65655  1.0000
  C   C35       1.0  0.28812999999999994  0.14524999999999996  0.5413  1.0000
  C   C36       1.0  0.9626699999999999  0.59369  0.42032  1.0000
  C   C37       1.0  0.04977999999999994  0.53229  0.30387  1.0000
  C   C38       1.0  0.4687500000000001  0.60498  0.41904  1.0000
  C   C39       1.0  0.5821599999999998  0.52505  0.30921  1.0000
  C   C40       1.0  0.0480999999999999  0.74726  0.57349  1.0000
  C   C41       1.0  0.9872600000000002  0.85288  0.53493  1.0000
  C   C42       1.0  0.94353  0.9492099999999999  0.57415  1.0000
  C   C43       1.0  0.88459  0.04726  0.53744  1.0000
  C   C44       1.0  0.8403899999999999  0.14994999999999997  0.57761  1.0000
  C   C45       1.0  0.8648599999999997  0.04885  0.46261  1.0000
  C   C46       1.0  0.9076899999999997  0.9525  0.4235  1.0000
  C   C47       1.0  0.8864899999999998  0.95509  0.34333  1.0000
  C   C48       1.0  0.9726400000000005  0.85491  0.45911  1.0000
  C   C49       1.0  0.9778899999999999  0.40574  0.58015  1.0000
  C   C50       1.0  0.88611  0.46703  0.6967  1.0000
  C   C51       1.0  0.49420000000000003  0.39478999999999986  0.58204  1.0000
  C   C52       1.0  0.4171100000000003  0.4746899999999999  0.69189  1.0000
  N   N1        1.0  0.7520100000000001  0.9862099999999998  0.15974  1.0000
  N   N2        1.0  0.7704999999999999  0.02587  0.08519  1.0000
  N   N3        1.0  0.5284  0.09993  0.14796  1.0000
  N   N4        1.0  0.07671000000000014  0.9822799999999998  0.15494  1.0000
  N   N5        1.0  0.07469000000000005  0.033549999999999996  0.08466  1.0000
  N   N6        1.0  0.18702999999999997  0.10175  0.147  1.0000
  N   N7        1.0  0.8951899999999999  0.0131  0.84007  1.0000
  N   N8        1.0  0.8792899999999999  0.9737699999999999  0.91475  1.0000
  N   N9        1.0  0.77454  0.8994299999999997  0.85216  1.0000
  N   N10       1.0  0.21038999999999997  0.017839999999999995  0.84462  1.0000
  N   N11       1.0  0.19038999999999995  0.9665  0.91485  1.0000
  N   N12       1.0  0.43371  0.8985  0.8523800000000001  1.0000
  N   N13       1.0  0.15925  0.48663  0.34035  1.0000
  N   N14       1.0  0.10313000000000003  0.52597  0.41501  1.0000
  N   N15       1.0  0.9237000000000001  0.60037  0.35205  1.0000
  N   N16       1.0  0.4785299999999999  0.48267  0.34549  1.0000
  N   N17       1.0  0.4061499999999999  0.53394  0.4157  1.0000
  N   N18       1.0  0.5807  0.60232  0.35331  1.0000
  N   N19       1.0  0.9856400000000002  0.5129199999999999  0.66032  1.0000
  N   N20       1.0  0.04405000000000009  0.47369999999999995  0.58566  1.0000
  N   N21       1.0  0.8776  0.39889  0.64836  1.0000
  N   N22       1.0  0.30666000000000004  0.51693  0.6557  1.0000
  N   N23       1.0  0.3562899999999999  0.4656499999999999  0.58551  1.0000
  N   N24       1.0  0.5379400000000001  0.39755  0.64768  1.0000
  O   O1        1.0  0.05347000000000006  0.8323599999999999  0.03002  1.0000
  O   O2        1.0  0.0071700000000000765  0.7531  0.14785  1.0000
  O   O3        1.0  0.21267000000000014  0.34605  0.15271  1.0000
  O   O4        1.0  0.31717  0.262  0.03865  1.0000
  O   O5        1.0  0.10599000000000008  0.4592299999999999  0.81533  1.0000
  O   O6        1.0  0.06198999999999995  0.63704  0.80659  1.0000
  O   O7        1.0  0.9130899999999998  0.16728  0.96984  1.0000
  O   O8        1.0  0.9068400000000002  0.24695999999999999  0.85192  1.0000
  O   O9        1.0  0.7119399999999998  0.65364  0.84756  1.0000
  O   O10       1.0  0.61464  0.7381799999999998  0.96146  1.0000
  O   O11       1.0  0.38058  0.54111  0.18533  1.0000
  O   O12       1.0  0.50569  0.3629  0.19326  1.0000
  O   O13       1.0  0.33286999999999994  0.33268  0.46996999999999994  1.0000
  O   O14       1.0  0.40641  0.25302  0.3522  1.0000
  O   O15       1.0  0.6136799999999999  0.84757  0.34711  1.0000
  O   O16       1.0  0.6020800000000002  0.7623399999999998  0.46087  1.0000
  O   O17       1.0  0.16898000000000007  0.9599399999999998  0.68488  1.0000
  O   O18       1.0  0.11793000000000001  0.13753  0.69341  1.0000
  O   O19       1.0  0.13319000000000003  0.66717  0.5302  1.0000
  O   O20       1.0  0.007310000000000121  0.7462599999999999  0.64813  1.0000
  O   O21       1.0  0.81182  0.15204  0.6526  1.0000
  O   O22       1.0  0.82728  0.23736  0.53892  1.0000
  O   O23       1.0  0.8139599999999999  0.04087  0.31493  1.0000
  O   O24       1.0  0.9517799999999998  0.8632799999999999  0.30644  1.0000
