data_image0
_chemical_formula_structural       Sm4Ag4H32C56N8O32
_chemical_formula_sum              "Sm4 Ag4 H32 C56 N8 O32"
_cell_length_a       9.66052
_cell_length_b       12.09985
_cell_length_c       17.09332
_cell_angle_alpha    96.70398
_cell_angle_beta     89.89406
_cell_angle_gamma    113.46504

_symmetry_space_group_name_H-M    'P 1'
_symmetry_Int_Tables_number       1

loop_
  _symmetry_equiv_pos_as_xyz
  'x,y,z'

loop_
  _atom_site_type_symbol
  _atom_site_label
  _atom_site_symmetry_multiplicity
  _atom_site_fract_x
  _atom_site_fract_y
  _atom_site_fract_z
  _atom_site_occupancy
  Sm  Sm1       1.0  0.7961800000000001  0.9909600000000001  0.06713  1.0000
  Sm  Sm2       1.0  0.19248  0.98932  0.56744  1.0000
  Sm  Sm3       1.0  0.20513  0.008650000000000001  0.93279  1.0000
  Sm  Sm4       1.0  0.80744  0.01237  0.43346  1.0000
  Ag  Ag1       1.0  0.22627  0.6848  0.41465  1.0000
  Ag  Ag2       1.0  0.54189  0.3154  0.08475  1.0000
  Ag  Ag3       1.0  0.7740299999999999  0.31558  0.58511  1.0000
  Ag  Ag4       1.0  0.45812  0.68396  0.91361  1.0000
  H   H1        1.0  0.47090999999999994  0.09313  0.33577999999999997  1.0000
  H   H2        1.0  0.4558199999999999  0.7161199999999999  0.54633  1.0000
  H   H3        1.0  0.47269999999999995  0.40854000000000007  0.36732  1.0000
  H   H4        1.0  0.07747999999999995  0.41553  0.45151999999999987  1.0000
  H   H5        1.0  0.9360000000000002  0.40733  0.8667699999999998  1.0000
  H   H6        1.0  0.3385099999999999  0.41557000000000005  0.9501999999999999  1.0000
  H   H7        1.0  0.52816  0.59193  0.63241  1.0000
  H   H8        1.0  0.92294  0.5847199999999999  0.54857  1.0000
  H   H9        1.0  0.89895  0.81604  0.72183  1.0000
  H   H10       1.0  0.08423  0.18612  0.77659  1.0000
  H   H11       1.0  0.040740000000000005  0.29638  0.67083  1.0000
  H   H12       1.0  0.9986099999999999  0.36419000000000007  0.12096999999999998  1.0000
  H   H13       1.0  0.10089000000000002  0.18628000000000003  0.27544  1.0000
  H   H14       1.0  0.66409  0.58599  0.04898  1.0000
  H   H15       1.0  0.9588399999999999  0.70339  0.32883  1.0000
  H   H16       1.0  0.591  0.19958  0.72387  1.0000
  H   H17       1.0  0.4086  0.79989  0.27554  1.0000
  H   H18       1.0  0.06434  0.59151  0.13266  1.0000
  H   H19       1.0  0.91544  0.81394  0.22342999999999996  1.0000
  H   H20       1.0  0.60878  0.20048  0.22431999999999994  1.0000
  H   H21       1.0  0.63366  0.63618  0.3790699999999999  1.0000
  H   H22       1.0  0.37910999999999995  0.90692  0.16382  1.0000
  H   H23       1.0  0.52514  0.90601  0.66331  1.0000
  H   H24       1.0  0.004309999999999988  0.63518  0.87868  1.0000
  H   H25       1.0  0.391  0.79932  0.77552  1.0000
  H   H26       1.0  0.36738  0.36465  0.62122  1.0000
  H   H27       1.0  0.74753  0.70637  0.82824  1.0000
  H   H28       1.0  0.54456  0.28411  0.4532699999999999  1.0000
  H   H29       1.0  0.25578  0.29679  0.1703  1.0000
  H   H30       1.0  0.62071  0.09391  0.83619  1.0000
  H   H31       1.0  0.73903  0.28379  0.9528199999999999  1.0000
  H   H32       1.0  0.26026  0.71604  0.04646  1.0000
  C   C1        1.0  0.02532999999999999  0.81107  0.2324  1.0000
  C   C2        1.0  0.8551  0.13058  0.81447  1.0000
  C   C3        1.0  0.5784300000000001  0.8636600000000001  0.69904  1.0000
  C   C4        1.0  0.79395  0.07080000000000002  0.2555  1.0000
  C   C5        1.0  0.7693699999999999  0.38075999999999993  0.9540999999999998  1.0000
  C   C6        1.0  0.21375999999999998  0.18912  0.26677  1.0000
  C   C7        1.0  0.46419  0.92886  0.48713999999999996  1.0000
  C   C8        1.0  0.46735999999999994  0.9291  0.9855599999999999  1.0000
  C   C9        1.0  0.049470000000000035  0.75024  0.2915699999999999  1.0000
  C   C10       1.0  0.82351  0.54797  0.50833  1.0000
  C   C11       1.0  0.7240299999999997  0.8704599999999998  0.6843499999999999  1.0000
  C   C12       1.0  0.7158499999999999  0.13679  0.80024  1.0000
  C   C13       1.0  0.61194  0.38092  0.45436999999999994  1.0000
  C   C14       1.0  0.17679000000000006  0.45211  0.49183  1.0000
  C   C15       1.0  0.8794900000000001  0.45075  0.90672  1.0000
  C   C16       1.0  0.50254  0.80337  0.7609199999999999  1.0000
  C   C17       1.0  0.8709600000000001  0.75829  0.97386  1.0000
  C   C18       1.0  0.2738  0.12997  0.31372  1.0000
  C   C19       1.0  0.70235  0.75221  0.7909699999999997  1.0000
  C   C20       1.0  0.95019  0.24958  0.70809  1.0000
  C   C21       1.0  0.4280799999999999  0.5489499999999999  0.59275  1.0000
  C   C22       1.0  0.5333099999999998  0.06728  0.010729999999999998  1.0000
  C   C23       1.0  0.81512  0.93819  0.61996  1.0000
  C   C24       1.0  0.12152  0.54866  0.09268999999999997  1.0000
  C   C25       1.0  0.27971000000000007  0.06991000000000003  0.75543  1.0000
  C   C26       1.0  0.27575  0.45215  0.99074  1.0000
  C   C27       1.0  0.7261600000000001  0.9300700000000001  0.24477999999999997  1.0000
  C   C28       1.0  0.18128999999999998  0.06038999999999998  0.3772099999999999  1.0000
  C   C29       1.0  0.79009  0.62476  0.46392  1.0000
  C   C30       1.0  0.88998  0.75821  0.47373  1.0000
  C   C31       1.0  0.14481000000000002  0.86987  0.18541  1.0000
  C   C32       1.0  0.9744899999999999  0.18916999999999998  0.7674299999999997  1.0000
  C   C33       1.0  0.53456  0.06706999999999999  0.51253  1.0000
  C   C34       1.0  0.7263599999999998  0.54865  0.00858  1.0000
  C   C35       1.0  0.41956  0.13654  0.2997999999999999  1.0000
  C   C36       1.0  0.29917  0.24984000000000003  0.20762  1.0000
  C   C37       1.0  0.12120999999999993  0.93801  0.12132999999999998  1.0000
  C   C38       1.0  0.49717999999999996  0.19690000000000002  0.23835  1.0000
  C   C39       1.0  0.57269  0.45142  0.40705  1.0000
  C   C40       1.0  0.38866  0.61928  0.5453499999999999  1.0000
  C   C41       1.0  0.33939  0.42467  0.58738  1.0000
  C   C42       1.0  0.30064  0.80326  0.26124  1.0000
  C   C43       1.0  0.23093999999999998  0.61918  0.04516999999999999  1.0000
  C   C44       1.0  0.10881999999999999  0.24242  0.52765  1.0000
  C   C45       1.0  0.08617  0.42433  0.08693999999999998  1.0000
  C   C46       1.0  0.21042999999999992  0.9294  0.74435  1.0000
  C   C47       1.0  0.69901  0.1965  0.7384  1.0000
  C   C48       1.0  0.20989000000000002  0.3755200000000001  0.5365899999999998  1.0000
  C   C49       1.0  0.78604  0.81262  0.7312899999999999  1.0000
  C   C50       1.0  0.8790499999999998  0.06280999999999996  0.8786499999999998  1.0000
  C   C51       1.0  0.83709  0.62489  0.96406  1.0000
  C   C52       1.0  0.28401  0.86363  0.19969999999999993  1.0000
  C   C53       1.0  0.13409  0.24218  0.0258  1.0000
  C   C54       1.0  0.66123  0.57575  0.41273  1.0000
  C   C55       1.0  0.16621  0.37538  0.0355  1.0000
  C   C56       1.0  0.91631  0.57525  0.9125799999999997  1.0000
  N   N1        1.0  0.18505  0.74709  0.30697999999999986  1.0000
  N   N2        1.0  0.30613  0.57157  0.99422  1.0000
  N   N3        1.0  0.69448  0.42893  0.00488  1.0000
  N   N4        1.0  0.43784  0.25260999999999995  0.19224999999999995  1.0000
  N   N5        1.0  0.26575999999999994  0.5714099999999999  0.49479999999999996  1.0000
  N   N6        1.0  0.7348  0.42851  0.5049699999999999  1.0000
  N   N7        1.0  0.5633200000000002  0.7482700000000001  0.8067  1.0000
  N   N8        1.0  0.81444  0.25225  0.69249  1.0000
  O   O1        1.0  0.16649000000000008  0.87741  0.80529  1.0000
  O   O2        1.0  0.20244000000000004  0.87741  0.67447  1.0000
  O   O3        1.0  0.5341699999999999  0.8839  0.43984  1.0000
  O   O4        1.0  0.7774899999999999  0.030249999999999954  0.92847  1.0000
  O   O5        1.0  0.22272  0.97171  0.07163  1.0000
  O   O6        1.0  0.9994999999999999  0.044690000000000014  0.87728  1.0000
  O   O7        1.0  0.833  0.8278899999999999  0.45213  1.0000
  O   O8        1.0  0.9999300000000001  0.95504  0.12279999999999999  1.0000
  O   O9        1.0  0.53191  0.87015  0.01608  1.0000
  O   O10       1.0  0.23597999999999997  0.21095999999999998  0.9961799999999998  1.0000
  O   O11       1.0  0.46458999999999995  0.11159  0.56016  1.0000
  O   O12       1.0  0.65973  0.12762  0.48386  1.0000
  O   O13       1.0  0.68715  0.8773  0.17464999999999997  1.0000
  O   O14       1.0  0.64527  0.11178  0.05986999999999999  1.0000
  O   O15       1.0  0.47064999999999996  0.12774999999999997  0.9802599999999999  1.0000
  O   O16       1.0  0.022900000000000052  0.7896100000000001  0.5034299999999998  1.0000
  O   O17       1.0  0.80499  0.12316  0.32545  1.0000
  O   O18       1.0  0.95177  0.95021  0.61901  1.0000
  O   O19       1.0  0.77017  0.79058  0.003309999999999999  1.0000
  O   O20       1.0  0.9742299999999999  0.21132999999999993  0.5003999999999997  1.0000
  O   O21       1.0  0.99827  0.8274600000000001  0.9518599999999999  1.0000
  O   O22       1.0  0.33892999999999995  0.86984  0.51615  1.0000
  O   O23       1.0  0.7148199999999998  0.87822  0.30602  1.0000
  O   O24       1.0  0.29112999999999994  0.12223  0.69429  1.0000
  O   O25       1.0  0.16636999999999993  0.1720599999999999  0.5477799999999998  1.0000
  O   O26       1.0  0.04392999999999999  0.04676000000000001  0.37702  1.0000
  O   O27       1.0  0.24684  0.022350000000000016  0.42493  1.0000
  O   O28       1.0  0.83318  0.12266  0.19417999999999994  1.0000
  O   O29       1.0  0.31984  0.12243999999999997  0.8255099999999997  1.0000
  O   O30       1.0  0.74948  0.9765699999999999  0.5724  1.0000
  O   O31       1.0  0.007709999999999994  0.17213  0.04793999999999999  1.0000
  O   O32       1.0  0.35532000000000014  0.88403  0.9364699999999998  1.0000
