data_image0
_chemical_formula_structural       Cu4H48C76N4O16
_chemical_formula_sum              "Cu4 H48 C76 N4 O16"
_cell_length_a       14.0137
_cell_length_b       15.302499999999998
_cell_length_c       15.29388
_cell_angle_alpha    84.21974
_cell_angle_beta     88.48279
_cell_angle_gamma    87.76952

_symmetry_space_group_name_H-M    'P 1'
_symmetry_Int_Tables_number       1

loop_
  _symmetry_equiv_pos_as_xyz
  'x,y,z'

loop_
  _atom_site_type_symbol
  _atom_site_label
  _atom_site_symmetry_multiplicity
  _atom_site_fract_x
  _atom_site_fract_y
  _atom_site_fract_z
  _atom_site_occupancy
  Cu  Cu1       1.0  0.79392  0.15979999999999994  0.38394  1.0000
  Cu  Cu2       1.0  0.6072600000000001  0.16642999999999994  0.38807  1.0000
  Cu  Cu3       1.0  0.20608  0.8402000000000001  0.61606  1.0000
  Cu  Cu4       1.0  0.39274  0.8335599999999997  0.6119300000000002  1.0000
  H   H1        1.0  0.8625600000000001  0.1522599999999999  0.6583700000000002  1.0000
  H   H2        1.0  0.86622  0.15513999999999997  0.8199700000000002  1.0000
  H   H3        1.0  0.5584900000000002  0.15372999999999992  0.83198  1.0000
  H   H4        1.0  0.5562800000000001  0.1551599999999999  0.6711400000000002  1.0000
  H   H5        1.0  0.85207  0.09549999999999993  0.9541800000000003  1.0000
  H   H6        1.0  0.85201  0.10689  0.11518000000000003  1.0000
  H   H7        1.0  0.57252  0.23077999999999996  0.10306000000000003  1.0000
  H   H8        1.0  0.57499  0.2285799999999999  0.94093  1.0000
  H   H9        1.0  0.54497  0.8903899999999998  0.41184  1.0000
  H   H10       1.0  0.54099  0.73047  0.4072700000000001  1.0000
  H   H11       1.0  0.8485  0.7190599999999998  0.3753  1.0000
  H   H12       1.0  0.84912  0.8807799999999998  0.37255  1.0000
  H   H13       1.0  0.5598500000000002  0.5988499999999998  0.4618  1.0000
  H   H14       1.0  0.55576  0.4382399999999999  0.45185  1.0000
  H   H15       1.0  0.82632  0.4435699999999999  0.31431  1.0000
  H   H16       1.0  0.82677  0.6052499999999996  0.3153300000000001  1.0000
  H   H17       1.0  0.44049999999999995  0.30220999999999987  0.3755600000000001  1.0000
  H   H18       1.0  0.26154  0.30681999999999987  0.37247  1.0000
  H   H19       1.0  0.2767800000000001  0.023129999999999987  0.3864700000000001  1.0000
  H   H20       1.0  0.45441  0.031060000000000004  0.39066  1.0000
  H   H21       1.0  0.131  0.2702399999999999  0.27487  1.0000
  H   H22       1.0  0.95191  0.2660299999999999  0.28143  1.0000
  H   H23       1.0  0.95704  0.06742  0.48479  1.0000
  H   H24       1.0  0.1364  0.05858999999999999  0.48454000000000014  1.0000
  H   H25       1.0  0.13744  0.84774  0.3416400000000001  1.0000
  H   H26       1.0  0.13378000000000004  0.8448599999999999  0.18003  1.0000
  H   H27       1.0  0.44151  0.84627  0.16802000000000006  1.0000
  H   H28       1.0  0.44372  0.8448399999999998  0.3288700000000001  1.0000
  H   H29       1.0  0.14793000000000003  0.9044999999999997  0.04583000000000002  1.0000
  H   H30       1.0  0.14799  0.89311  0.8848200000000003  1.0000
  H   H31       1.0  0.4274800000000001  0.7692199999999998  0.89695  1.0000
  H   H32       1.0  0.42501000000000005  0.77142  0.05907  1.0000
  H   H33       1.0  0.45503  0.10960999999999997  0.5881700000000002  1.0000
  H   H34       1.0  0.45901  0.26953  0.59274  1.0000
  H   H35       1.0  0.1515  0.2809399999999999  0.6247000000000003  1.0000
  H   H36       1.0  0.15088  0.11920999999999998  0.62745  1.0000
  H   H37       1.0  0.44015  0.4011499999999999  0.5382  1.0000
  H   H38       1.0  0.44424  0.56176  0.54815  1.0000
  H   H39       1.0  0.17368  0.5564299999999998  0.6856900000000002  1.0000
  H   H40       1.0  0.17324  0.3947499999999999  0.6846800000000002  1.0000
  H   H41       1.0  0.5595  0.6977899999999998  0.6244400000000002  1.0000
  H   H42       1.0  0.73846  0.6931799999999998  0.62754  1.0000
  H   H43       1.0  0.7232200000000001  0.9768699999999998  0.61353  1.0000
  H   H44       1.0  0.5455899999999998  0.96894  0.60934  1.0000
  H   H45       1.0  0.86901  0.7297599999999997  0.7251400000000002  1.0000
  H   H46       1.0  0.04809000000000002  0.7339699999999997  0.7185700000000003  1.0000
  H   H47       1.0  0.04296  0.93258  0.51521  1.0000
  H   H48       1.0  0.8636000000000001  0.9414099999999997  0.51546  1.0000
  C   C1        1.0  0.70734  0.15507  0.5560400000000002  1.0000
  C   C2        1.0  0.70938  0.15367  0.65385  1.0000
  C   C3        1.0  0.79651  0.15259999999999999  0.69727  1.0000
  C   C4        1.0  0.79791  0.15388000000000002  0.78811  1.0000
  C   C5        1.0  0.7125200000000002  0.15611999999999998  0.8388700000000002  1.0000
  C   C6        1.0  0.6256499999999999  0.15509999999999993  0.7946700000000002  1.0000
  C   C7        1.0  0.62409  0.15450999999999993  0.7039100000000003  1.0000
  C   C8        1.0  0.71313  0.16057999999999995  0.9350100000000002  1.0000
  C   C9        1.0  0.79132  0.12701999999999994  0.9857000000000001  1.0000
  C   C10       1.0  0.79142  0.13211999999999993  0.0761  1.0000
  C   C11       1.0  0.71196  0.16862999999999995  0.11889000000000002  1.0000
  C   C12       1.0  0.6335  0.20197999999999994  0.06938  1.0000
  C   C13       1.0  0.63483  0.19920999999999997  0.9786900000000002  1.0000
  C   C14       1.0  0.70998  0.16948  0.21647000000000005  1.0000
  C   C15       1.0  0.69935  0.99336  0.3925  1.0000
  C   C16       1.0  0.69732  0.8961099999999997  0.39135  1.0000
  C   C17       1.0  0.61098  0.8526099999999998  0.40184  1.0000
  C   C18       1.0  0.6095399999999999  0.7618699999999998  0.40083000000000013  1.0000
  C   C19       1.0  0.69464  0.71131  0.3906000000000001  1.0000
  C   C20       1.0  0.78112  0.75584  0.38133  1.0000
  C   C21       1.0  0.78241  0.8466799999999998  0.38085  1.0000
  C   C22       1.0  0.69349  0.61488  0.389  1.0000
  C   C23       1.0  0.6174899999999999  0.5657699999999998  0.42753  1.0000
  C   C24       1.0  0.61528  0.4754399999999998  0.4230100000000001  1.0000
  C   C25       1.0  0.69075  0.43057999999999996  0.38262  1.0000
  C   C26       1.0  0.76779  0.47838999999999987  0.3455800000000001  1.0000
  C   C27       1.0  0.76824  0.5690599999999998  0.3475700000000001  1.0000
  C   C28       1.0  0.6906200000000001  0.33306999999999987  0.3807300000000001  1.0000
  C   C29       1.0  0.40079  0.24227999999999997  0.37737  1.0000
  C   C30       1.0  0.30156  0.24428  0.3749200000000001  1.0000
  C   C31       1.0  0.25398  0.16491999999999993  0.3790600000000001  1.0000
  C   C32       1.0  0.30969  0.08652999999999997  0.38455  1.0000
  C   C33       1.0  0.40861  0.09029999999999998  0.38618000000000013  1.0000
  C   C34       1.0  0.14859  0.1644299999999999  0.3792900000000001  1.0000
  C   C35       1.0  0.09519999999999999  0.22402999999999992  0.3223700000000001  1.0000
  C   C36       1.0  0.99586  0.2219899999999999  0.3254800000000001  1.0000
  C   C37       1.0  0.99906  0.10949  0.4382000000000001  1.0000
  C   C38       1.0  0.09844  0.10529999999999996  0.43801  1.0000
  C   C39       1.0  0.29266  0.8449299999999997  0.44396  1.0000
  C   C40       1.0  0.29062  0.8463299999999998  0.34615  1.0000
  C   C41       1.0  0.20349  0.8474  0.30273  1.0000
  C   C42       1.0  0.20209  0.84612  0.2119  1.0000
  C   C43       1.0  0.28748  0.8438699999999998  0.16113  1.0000
  C   C44       1.0  0.37435  0.8448999999999998  0.20533  1.0000
  C   C45       1.0  0.37591  0.8454899999999997  0.2961  1.0000
  C   C46       1.0  0.28687  0.83941  0.06499000000000002  1.0000
  C   C47       1.0  0.20868  0.87298  0.014300000000000004  1.0000
  C   C48       1.0  0.20857999999999996  0.86787  0.92391  1.0000
  C   C49       1.0  0.28804  0.83137  0.8811200000000002  1.0000
  C   C50       1.0  0.3665  0.7980199999999997  0.93062  1.0000
  C   C51       1.0  0.3651700000000001  0.8007899999999998  0.02132  1.0000
  C   C52       1.0  0.29002  0.83052  0.7835300000000001  1.0000
  C   C53       1.0  0.30065  0.006640000000000004  0.6075  1.0000
  C   C54       1.0  0.30268  0.10388999999999998  0.60866  1.0000
  C   C55       1.0  0.38902  0.14738999999999994  0.59816  1.0000
  C   C56       1.0  0.39046  0.23812999999999993  0.59917  1.0000
  C   C57       1.0  0.30536  0.28869  0.60941  1.0000
  C   C58       1.0  0.21888  0.24416000000000002  0.61867  1.0000
  C   C59       1.0  0.21759000000000006  0.15331999999999996  0.61915  1.0000
  C   C60       1.0  0.30651  0.3851199999999999  0.611  1.0000
  C   C61       1.0  0.38251  0.4342299999999999  0.5724800000000002  1.0000
  C   C62       1.0  0.3847200000000001  0.5245499999999997  0.577  1.0000
  C   C63       1.0  0.30925  0.5694199999999998  0.6173800000000003  1.0000
  C   C64       1.0  0.23221  0.52161  0.6544200000000002  1.0000
  C   C65       1.0  0.23176  0.4309399999999999  0.6524300000000002  1.0000
  C   C66       1.0  0.30938  0.6669299999999999  0.6192700000000002  1.0000
  C   C67       1.0  0.5992100000000001  0.75772  0.62263  1.0000
  C   C68       1.0  0.69844  0.75572  0.62508  1.0000
  C   C69       1.0  0.74603  0.8350799999999998  0.62094  1.0000
  C   C70       1.0  0.69031  0.9134599999999998  0.61545  1.0000
  C   C71       1.0  0.5913900000000001  0.9096999999999995  0.6138200000000001  1.0000
  C   C72       1.0  0.85142  0.8355699999999998  0.62071  1.0000
  C   C73       1.0  0.9048000000000002  0.7759699999999998  0.67763  1.0000
  C   C74       1.0  0.004150000000000012  0.7780099999999999  0.67452  1.0000
  C   C75       1.0  0.00094  0.89051  0.5618  1.0000
  C   C76       1.0  0.90156  0.8946999999999998  0.56199  1.0000
  N   N1        1.0  0.45391  0.16667999999999994  0.38303000000000004  1.0000
  N   N2        1.0  0.9480699999999999  0.16587  0.3826700000000001  1.0000
  N   N3        1.0  0.54609  0.83332  0.61697  1.0000
  N   N4        1.0  0.05192999999999999  0.83413  0.6173300000000003  1.0000
  O   O1        1.0  0.7882  0.15544  0.51501  1.0000
  O   O2        1.0  0.62558  0.1557099999999999  0.5209600000000001  1.0000
  O   O3        1.0  0.7908599999999999  0.16023999999999994  0.25422  1.0000
  O   O4        1.0  0.62865  0.17808  0.25425  1.0000
  O   O5        1.0  0.6187900000000001  0.03564999999999997  0.39064  1.0000
  O   O6        1.0  0.78106  0.026920000000000003  0.39581  1.0000
  O   O7        1.0  0.60923  0.2972699999999999  0.38751000000000013  1.0000
  O   O8        1.0  0.77145  0.29333  0.37322000000000005  1.0000
  O   O9        1.0  0.21179999999999996  0.84456  0.48499  1.0000
  O   O10       1.0  0.37442  0.84429  0.47904  1.0000
  O   O11       1.0  0.20914  0.83975  0.74578  1.0000
  O   O12       1.0  0.37134999999999996  0.8219199999999995  0.74575  1.0000
  O   O13       1.0  0.38121  0.96435  0.6093600000000002  1.0000
  O   O14       1.0  0.21894  0.9730799999999997  0.6041900000000002  1.0000
  O   O15       1.0  0.39077  0.7027299999999997  0.6125  1.0000
  O   O16       1.0  0.22855000000000003  0.7066699999999998  0.6267800000000002  1.0000
