data_image0
_chemical_formula_structural       Zn8H44C48N28O12
_chemical_formula_sum              "Zn8 H44 C48 N28 O12"
_cell_length_a       7.96865
_cell_length_b       11.13205
_cell_length_c       20.361269999999998
_cell_angle_alpha    89.97335
_cell_angle_beta     90.05182
_cell_angle_gamma    91.59018

_space_group_name_H-M_alt    "P 1"
_space_group_IT_number       1

loop_
  _space_group_symop_operation_xyz
  'x, y, z'

loop_
  _atom_site_type_symbol
  _atom_site_label
  _atom_site_symmetry_multiplicity
  _atom_site_fract_x
  _atom_site_fract_y
  _atom_site_fract_z
  _atom_site_occupancy
  Zn  Zn1       1.0  0.8989900000000002  0.7201499999999998  0.38845  1.0000
  Zn  Zn2       1.0  0.18927  0.86546  0.31003  1.0000
  Zn  Zn3       1.0  0.10242000000000002  0.77745  0.8879  1.0000
  Zn  Zn4       1.0  0.8122300000000002  0.63327  0.8099600000000001  1.0000
  Zn  Zn5       1.0  0.10101000000000003  0.27984  0.61154  1.0000
  Zn  Zn6       1.0  0.81073  0.13454  0.68997  1.0000
  Zn  Zn7       1.0  0.89759  0.22254  0.1121  1.0000
  Zn  Zn8       1.0  0.18778  0.36672  0.19004  1.0000
  H   H1        1.0  0.99307  0.93349  0.39629  1.0000
  H   H2        1.0  0.45221  0.36145  0.39838  1.0000
  H   H3        1.0  0.16825000000000004  0.60972  0.51034  1.0000
  H   H4        1.0  0.5822400000000002  0.53198  0.33367  1.0000
  H   H5        1.0  0.30106000000000005  0.78161  0.44913  1.0000
  H   H6        1.0  0.25123  0.65597  0.13051  1.0000
  H   H7        1.0  0.42356  0.61527  0.18128  1.0000
  H   H8        1.0  0.33939  0.76217  0.18646  1.0000
  H   H9        1.0  0.8757500000000003  0.44344  0.37166  1.0000
  H   H10       1.0  0.04456  0.34985  0.3501  1.0000
  H   H11       1.0  0.8717900000000002  0.36297999999999997  0.29488  1.0000
  H   H12       1.0  0.00369  0.56382  0.89905  1.0000
  H   H13       1.0  0.54559  0.13782  0.8972500000000001  1.0000
  H   H14       1.0  0.82914  0.8920999999999999  0.01163  1.0000
  H   H15       1.0  0.42036  0.96643  0.8327000000000001  1.0000
  H   H16       1.0  0.7012100000000002  0.71959  0.95015  1.0000
  H   H17       1.0  0.74757  0.84486  0.63049  1.0000
  H   H18       1.0  0.5752200000000002  0.88533  0.68104  1.0000
  H   H19       1.0  0.65887  0.73836  0.68609  1.0000
  H   H20       1.0  0.12489000000000003  0.05597  0.87114  1.0000
  H   H21       1.0  0.9557100000000002  0.14973  0.85023  1.0000
  H   H22       1.0  0.12713000000000005  0.13681  0.7945400000000001  1.0000
  H   H23       1.0  0.00693  0.0665  0.60371  1.0000
  H   H24       1.0  0.54779  0.63855  0.6016200000000002  1.0000
  H   H25       1.0  0.8317500000000002  0.39027  0.48966000000000004  1.0000
  H   H26       1.0  0.41777  0.46802  0.66633  1.0000
  H   H27       1.0  0.69894  0.21838999999999997  0.55087  1.0000
  H   H28       1.0  0.74878  0.34402  0.8694900000000001  1.0000
  H   H29       1.0  0.5764400000000002  0.38472  0.8187200000000001  1.0000
  H   H30       1.0  0.66062  0.23782  0.8135400000000002  1.0000
  H   H31       1.0  0.12424999999999999  0.55655  0.6283400000000001  1.0000
  H   H32       1.0  0.95545  0.65015  0.6499  1.0000
  H   H33       1.0  0.12821  0.6370099999999999  0.7051200000000001  1.0000
  H   H34       1.0  0.9963200000000001  0.43616999999999995  0.10095  1.0000
  H   H35       1.0  0.45441  0.86217  0.10275  1.0000
  H   H36       1.0  0.17086000000000007  0.10788999999999999  0.98837  1.0000
  H   H37       1.0  0.57964  0.03356  0.16730000000000003  1.0000
  H   H38       1.0  0.29879  0.2804  0.049850000000000005  1.0000
  H   H39       1.0  0.2524300000000001  0.15513  0.36951  1.0000
  H   H40       1.0  0.42478  0.11466  0.31896  1.0000
  H   H41       1.0  0.34113  0.26163  0.3139100000000001  1.0000
  H   H42       1.0  0.8751100000000003  0.94402  0.12886  1.0000
  H   H43       1.0  0.04429000000000002  0.85026  0.14977  1.0000
  H   H44       1.0  0.87288  0.86319  0.20546000000000003  1.0000
  C   C1        1.0  0.23022  0.37253  0.49665000000000004  1.0000
  C   C2        1.0  0.30227  0.47563  0.4574500000000001  1.0000
  C   C3        1.0  0.41943  0.45392  0.40795  1.0000
  C   C4        1.0  0.2594400000000001  0.59404  0.47196  1.0000
  C   C5        1.0  0.494  0.54898  0.37313  1.0000
  C   C6        1.0  0.33362000000000014  0.68968  0.43777000000000005  1.0000
  C   C7        1.0  0.45101000000000013  0.66732  0.38821000000000006  1.0000
  C   C8        1.0  0.5275  0.76883  0.35272  1.0000
  C   C9        1.0  0.30774  0.66653  0.17961  1.0000
  C   C10       1.0  0.19260000000000005  0.62565  0.23266000000000003  1.0000
  C   C11       1.0  0.03706  0.51585  0.29822  1.0000
  C   C12       1.0  0.9515500000000002  0.41166  0.33058  1.0000
  C   C13       1.0  0.7660900000000003  0.12928  0.99727  1.0000
  C   C14       1.0  0.69573  0.0256  0.95777  1.0000
  C   C15       1.0  0.5799900000000002  0.04589  0.90746  1.0000
  C   C16       1.0  0.7393500000000002  0.9074  0.9726100000000001  1.0000
  C   C17       1.0  0.50762  0.95  0.87258  1.0000
  C   C18       1.0  0.6673400000000003  0.811  0.93828  1.0000
  C   C19       1.0  0.5505999999999999  0.8318399999999999  0.88817  1.0000
  C   C20       1.0  0.47435  0.72994  0.85263  1.0000
  C   C21       1.0  0.69088  0.83394  0.67949  1.0000
  C   C22       1.0  0.8060200000000002  0.8741999999999999  0.73268  1.0000
  C   C23       1.0  0.96218  0.98369  0.79814  1.0000
  C   C24       1.0  0.04808  0.0879  0.83035  1.0000
  C   C25       1.0  0.76978  0.62746  0.5033400000000001  1.0000
  C   C26       1.0  0.69773  0.52437  0.54255  1.0000
  C   C27       1.0  0.58057  0.54607  0.59205  1.0000
  C   C28       1.0  0.7405600000000002  0.40595  0.52803  1.0000
  C   C29       1.0  0.50601  0.45102  0.62687  1.0000
  C   C30       1.0  0.66638  0.31031  0.56223  1.0000
  C   C31       1.0  0.5489900000000002  0.33267  0.6117900000000001  1.0000
  C   C32       1.0  0.4725  0.23117  0.64728  1.0000
  C   C33       1.0  0.69227  0.33346  0.82039  1.0000
  C   C34       1.0  0.8074000000000002  0.37435  0.76734  1.0000
  C   C35       1.0  0.9629400000000002  0.48414  0.70178  1.0000
  C   C36       1.0  0.04845  0.58833  0.66942  1.0000
  C   C37       1.0  0.23392  0.8707099999999999  0.0027300000000000002  1.0000
  C   C38       1.0  0.30427  0.97439  0.04223  1.0000
  C   C39       1.0  0.42002  0.9541  0.09254  1.0000
  C   C40       1.0  0.26065  0.09258999999999999  0.027390000000000005  1.0000
  C   C41       1.0  0.4923800000000001  0.04999  0.12742  1.0000
  C   C42       1.0  0.33266  0.18899  0.06172  1.0000
  C   C43       1.0  0.4494  0.16814999999999997  0.11183  1.0000
  C   C44       1.0  0.52565  0.27005  0.14737000000000003  1.0000
  C   C45       1.0  0.30913  0.16606  0.32051  1.0000
  C   C46       1.0  0.19399000000000005  0.12579  0.26732  1.0000
  C   C47       1.0  0.037830000000000016  0.0163  0.20186000000000004  1.0000
  C   C48       1.0  0.95192  0.91209  0.16965  1.0000
  N   N1        1.0  0.13945  0.51017  0.24445  1.0000
  N   N2        1.0  0.02668  0.62938  0.31803  1.0000
  N   N3        1.0  0.12557000000000004  0.69902  0.27669  1.0000
  N   N4        1.0  0.69283  0.7912  0.34469  1.0000
  N   N5        1.0  0.4425100000000001  0.8566799999999998  0.32281000000000004  1.0000
  N   N6        1.0  0.55921  0.9332699999999999  0.29555  1.0000
  N   N7        1.0  0.70899  0.8943699999999999  0.30901000000000006  1.0000
  N   N8        1.0  0.8588500000000002  0.98975  0.74456  1.0000
  N   N9        1.0  0.9734200000000002  0.86995  0.81775  1.0000
  N   N10       1.0  0.87401  0.80044  0.7764300000000001  1.0000
  N   N11       1.0  0.3089900000000001  0.70732  0.84415  1.0000
  N   N12       1.0  0.55961  0.6426  0.82248  1.0000
  N   N13       1.0  0.44346000000000013  0.56629  0.79465  1.0000
  N   N14       1.0  0.29343  0.60473  0.808  1.0000
  N   N15       1.0  0.8605500000000003  0.4898299999999999  0.75555  1.0000
  N   N16       1.0  0.97332  0.37062  0.6819700000000001  1.0000
  N   N17       1.0  0.8744300000000003  0.30097  0.72331  1.0000
  N   N18       1.0  0.3071800000000001  0.20879  0.65531  1.0000
  N   N19       1.0  0.5574900000000003  0.14332  0.6771900000000001  1.0000
  N   N20       1.0  0.44079  0.06672  0.70445  1.0000
  N   N21       1.0  0.29101  0.10563  0.69099  1.0000
  N   N22       1.0  0.14115  0.01025  0.25544  1.0000
  N   N23       1.0  0.026580000000000006  0.13004  0.18225  1.0000
  N   N24       1.0  0.12599  0.19955  0.22357000000000002  1.0000
  N   N25       1.0  0.6910100000000002  0.29268  0.15585  1.0000
  N   N26       1.0  0.4403900000000001  0.35739  0.17752  1.0000
  N   N27       1.0  0.55655  0.4336999999999999  0.20534000000000002  1.0000
  N   N28       1.0  0.7065800000000002  0.39526  0.19199  1.0000
  O   O1        1.0  0.14917  0.40608  0.5492  1.0000
  O   O2        1.0  0.25057  0.26608  0.48037  1.0000
  O   O3        1.0  0.05787000000000001  0.86121  0.39259000000000005  1.0000
  O   O4        1.0  0.8425500000000002  0.0961  0.05104  1.0000
  O   O5        1.0  0.74923  0.23576  0.9801400000000001  1.0000
  O   O6        1.0  0.9418400000000002  0.63689  0.8928  1.0000
  O   O7        1.0  0.85083  0.59392  0.45080000000000003  1.0000
  O   O8        1.0  0.7494400000000002  0.7339099999999998  0.51963  1.0000
  O   O9        1.0  0.9421300000000002  0.13878  0.60741  1.0000
  O   O10       1.0  0.15745000000000006  0.90389  0.9489600000000001  1.0000
  O   O11       1.0  0.25077  0.76423  0.019850000000000003  1.0000
  O   O12       1.0  0.05816000000000002  0.3631  0.10720000000000002  1.0000
