data_image0
_chemical_formula_structural       Co6H16C48O40
_chemical_formula_sum              "Co6 H16 C48 O40"
_cell_length_a       8.46156
_cell_length_b       12.4122
_cell_length_c       17.73437
_cell_angle_alpha    106.34193
_cell_angle_beta     89.99322999999998
_cell_angle_gamma    90.03738999999999

_symmetry_space_group_name_H-M    'P 1'
_symmetry_Int_Tables_number       1

loop_
  _symmetry_equiv_pos_as_xyz
  'x,y,z'

loop_
  _atom_site_type_symbol
  _atom_site_label
  _atom_site_symmetry_multiplicity
  _atom_site_fract_x
  _atom_site_fract_y
  _atom_site_fract_z
  _atom_site_occupancy
  Co  Co1       1.0  0.17159  0.72321  0.43808  1.0000
  Co  Co2       1.0  0.67084  0.2757  0.06158000000000001  1.0000
  Co  Co3       1.0  0.83113  0.27529  0.56124  1.0000
  Co  Co4       1.0  0.32925  0.72445  0.93841  1.0000
  Co  Co5       1.0  0.99944  0.0005100000000000071  0.49977000000000005  1.0000
  Co  Co6       1.0  0.49988000000000005  0.00021  5e-05  1.0000
  H   H1        1.0  0.56226  0.32168  0.35393  1.0000
  H   H2        1.0  0.4313  0.1446  0.39676  1.0000
  H   H3        1.0  0.36221  0.07230000000000007  0.85619  1.0000
  H   H4        1.0  0.28302  0.11881  0.71785  1.0000
  H   H5        1.0  0.061410000000000006  0.6781999999999999  0.14632  1.0000
  H   H6        1.0  0.93197  0.85526  0.10334  1.0000
  H   H7        1.0  0.86264  0.92755  0.64359  1.0000
  H   H8        1.0  0.78241  0.88077  0.78188  1.0000
  H   H9        1.0  0.43876  0.6776499999999999  0.64677  1.0000
  H   H10       1.0  0.56727  0.85475  0.60332  1.0000
  H   H11       1.0  0.63743  0.92736  0.14381  1.0000
  H   H12       1.0  0.71733  0.88113  0.28212  1.0000
  H   H13       1.0  0.93877  0.32166  0.85358  1.0000
  H   H14       1.0  0.06818  0.14467999999999992  0.89673  1.0000
  H   H15       1.0  0.1363  0.0731  0.35623  1.0000
  H   H16       1.0  0.21803  0.11907000000000001  0.21797  1.0000
  C   C1        1.0  0.37031  0.52971  0.41791  1.0000
  C   C2        1.0  0.36624  0.41388  0.42374  1.0000
  C   C3        1.0  0.45976  0.32186  0.39042  1.0000
  C   C4        1.0  0.392  0.23103  0.41266  1.0000
  C   C5        1.0  0.26376  0.27397  0.46005  1.0000
  C   C6        1.0  0.33408  0.83063  0.83929  1.0000
  C   C7        1.0  0.33051  0.8993699999999999  0.78533  1.0000
  C   C8        1.0  0.33675  0.014449999999999998  0.79942  1.0000
  C   C9        1.0  0.29554  0.037320000000000006  0.72835  1.0000
  C   C10       1.0  0.26781  0.93421  0.67459  1.0000
  C   C11       1.0  0.2061  0.9066  0.59396  1.0000
  C   C12       1.0  0.14479  0.22424999999999995  0.49998  1.0000
  C   C13       1.0  0.87075  0.46995000000000003  0.08159  1.0000
  C   C14       1.0  0.86535  0.58603  0.07600999999999998  1.0000
  C   C15       1.0  0.9592199999999999  0.6779899999999999  0.10952  1.0000
  C   C16       1.0  0.89197  0.76898  0.0873  1.0000
  C   C17       1.0  0.76357  0.72632  0.03988  1.0000
  C   C18       1.0  0.83649  0.16979  0.66077  1.0000
  C   C19       1.0  0.83117  0.10048  0.71448  1.0000
  C   C20       1.0  0.83665  0.98537  0.70026  1.0000
  C   C21       1.0  0.7947  0.96224  0.77126  1.0000
  C   C22       1.0  0.76682  0.06520999999999999  0.8249  1.0000
  C   C23       1.0  0.70533  0.09242000000000003  0.90559  1.0000
  C   C24       1.0  0.64366  0.77601  0.0006099999999999998  1.0000
  C   C25       1.0  0.62844  0.46962999999999994  0.58165  1.0000
  C   C26       1.0  0.6346  0.58565  0.57607  1.0000
  C   C27       1.0  0.54058  0.67746  0.60969  1.0000
  C   C28       1.0  0.60737  0.7685599999999999  0.58739  1.0000
  C   C29       1.0  0.73571  0.7262  0.53993  1.0000
  C   C30       1.0  0.66588  0.16885  0.16035  1.0000
  C   C31       1.0  0.66893  0.10028  0.21437  1.0000
  C   C32       1.0  0.66293  0.9852900000000002  0.20051  1.0000
  C   C33       1.0  0.70449  0.9626299999999999  0.27167  1.0000
  C   C34       1.0  0.73185  0.06584  0.3251  1.0000
  C   C35       1.0  0.79416  0.09396999999999998  0.40547999999999995  1.0000
  C   C36       1.0  0.85551  0.7764899999999999  0.50093  1.0000
  C   C37       1.0  0.12908  0.52986  0.91842  1.0000
  C   C38       1.0  0.13477  0.41397  0.92398  1.0000
  C   C39       1.0  0.04093  0.3220100000000001  0.89041  1.0000
  C   C40       1.0  0.10795  0.23106  0.91278  1.0000
  C   C41       1.0  0.23634  0.2737800000000001  0.96022  1.0000
  C   C42       1.0  0.16432  0.83387  0.3416  1.0000
  C   C43       1.0  0.16841  0.90013  0.28604999999999997  1.0000
  C   C44       1.0  0.16229  0.015130000000000001  0.29959  1.0000
  C   C45       1.0  0.20531  0.03767  0.22864  1.0000
  C   C46       1.0  0.23387  0.93447  0.17535  1.0000
  C   C47       1.0  0.29467  0.90742  0.09448  1.0000
  C   C48       1.0  0.35624  0.22385999999999995  0.9994199999999999  1.0000
  O   O1        1.0  0.22907  0.5785  0.4318  1.0000
  O   O2        1.0  0.49071999999999993  0.57459  0.40218  1.0000
  O   O3        1.0  0.24573000000000003  0.38569  0.46603  1.0000
  O   O4        1.0  0.30919  0.72572  0.81869  1.0000
  O   O5        1.0  0.35436  0.87874  0.91428  1.0000
  O   O6        1.0  0.05543  0.29089  0.54955  1.0000
  O   O7        1.0  0.22326  0.80786  0.54872  1.0000
  O   O8        1.0  0.29045  0.8487299999999999  0.70828  1.0000
  O   O9        1.0  0.1393  0.11604999999999999  0.48022  1.0000
  O   O10       1.0  0.13697  0.9915599999999999  0.58061  1.0000
  O   O11       1.0  0.73076  0.41909  0.06766  1.0000
  O   O12       1.0  0.9920599999999999  0.42710999999999993  0.09841  1.0000
  O   O13       1.0  0.74521  0.61453  0.03384  1.0000
  O   O14       1.0  0.81839  0.27528  0.68168  1.0000
  O   O15       1.0  0.84888  0.12065999999999998  0.58536  1.0000
  O   O16       1.0  0.55489  0.70909  0.95074  1.0000
  O   O17       1.0  0.71998  0.19166  0.9505599999999998  1.0000
  O   O18       1.0  0.79043  0.15084000000000003  0.79149  1.0000
  O   O19       1.0  0.63586  0.88426  0.02236  1.0000
  O   O20       1.0  0.64047  0.006629999999999985  0.91966  1.0000
  O   O21       1.0  0.76748  0.41745  0.56756  1.0000
  O   O22       1.0  0.50691  0.42743999999999993  0.59891  1.0000
  O   O23       1.0  0.75472  0.6144399999999998  0.53393  1.0000
  O   O24       1.0  0.69267  0.27361  0.18107  1.0000
  O   O25       1.0  0.64459  0.12072  0.0855  1.0000
  O   O26       1.0  0.9481299999999999  0.70869  0.45403  1.0000
  O   O27       1.0  0.77863  0.19277  0.45069  1.0000
  O   O28       1.0  0.70899  0.15117  0.29139  1.0000
  O   O29       1.0  0.85762  0.88472  0.51972  1.0000
  O   O30       1.0  0.8623  0.009129999999999987  0.41919  1.0000
  O   O31       1.0  0.26868  0.58184  0.93256  1.0000
  O   O32       1.0  0.00791  0.57261  0.90142  1.0000
  O   O33       1.0  0.25491  0.38552  0.96618  1.0000
  O   O34       1.0  0.19795  0.72987  0.32299  1.0000
  O   O35       1.0  0.13698  0.88288  0.41561  1.0000
  O   O36       1.0  0.44503  0.29088  0.049149999999999985  1.0000
  O   O37       1.0  0.27935  0.8085  0.04932  1.0000
  O   O38       1.0  0.21101  0.8491300000000002  0.20922  1.0000
  O   O39       1.0  0.36417  0.11556999999999998  0.9774299999999999  1.0000
  O   O40       1.0  0.35953  0.99328  0.08043  1.0000
