data_image0
_chemical_formula_structural       Cu2H40C64S16N8
_chemical_formula_sum              "Cu2 H40 C64 S16 N8"
_cell_length_a       7.70798
_cell_length_b       14.67683
_cell_length_c       14.676939999999998
_cell_angle_alpha    90.00090999999999
_cell_angle_beta     90.01408999999998
_cell_angle_gamma    89.99364

_symmetry_space_group_name_H-M    'P 1'
_symmetry_Int_Tables_number       1

loop_
  _symmetry_equiv_pos_as_xyz
  'x,y,z'

loop_
  _atom_site_type_symbol
  _atom_site_label
  _atom_site_symmetry_multiplicity
  _atom_site_fract_x
  _atom_site_fract_y
  _atom_site_fract_z
  _atom_site_occupancy
  Cu  Cu1       1.0  0.50001  0.25058  0.74944  1.0000
  Cu  Cu2       1.0  0.49997  0.74942  0.25056  1.0000
  H   H1        1.0  0.08599999999999997  0.60892  0.66045  1.0000
  H   H2        1.0  0.5620699999999997  0.45593  0.72177  1.0000
  H   H3        1.0  0.8109799999999999  0.54777  0.67256  1.0000
  H   H4        1.0  0.03494  0.30013999999999996  0.56274  1.0000
  H   H5        1.0  0.77385  0.22005  0.61341  1.0000
  H   H6        1.0  0.0859  0.89116  0.8395500000000002  1.0000
  H   H7        1.0  0.56212  0.04398  0.77816  1.0000
  H   H8        1.0  0.8111899999999997  0.95235  0.82741  1.0000
  H   H9        1.0  0.035079999999999986  0.1998  0.9372000000000003  1.0000
  H   H10       1.0  0.77411  0.27998  0.8866500000000003  1.0000
  H   H11       1.0  0.08603999999999998  0.83956  0.60889  1.0000
  H   H12       1.0  0.56221  0.77821  0.45602  1.0000
  H   H13       1.0  0.8111999999999998  0.82749  0.54772  1.0000
  H   H14       1.0  0.03492999999999999  0.93726  0.30015  1.0000
  H   H15       1.0  0.77389  0.88656  0.22002000000000005  1.0000
  H   H16       1.0  0.08585  0.66046  0.89114  1.0000
  H   H17       1.0  0.56198  0.72182  0.044100000000000014  1.0000
  H   H18       1.0  0.8109699999999999  0.67264  0.95231  1.0000
  H   H19       1.0  0.035079999999999986  0.56278  0.19981000000000004  1.0000
  H   H20       1.0  0.77405  0.61331  0.27996  1.0000
  H   H21       1.0  0.91399  0.3910799999999999  0.33955000000000013  1.0000
  H   H22       1.0  0.4379099999999999  0.54408  0.2782300000000001  1.0000
  H   H23       1.0  0.189  0.45223  0.3274400000000001  1.0000
  H   H24       1.0  0.96504  0.69986  0.4372600000000001  1.0000
  H   H25       1.0  0.22613  0.77996  0.38659  1.0000
  H   H26       1.0  0.9140799999999998  0.10884  0.16046  1.0000
  H   H27       1.0  0.43786  0.9560199999999999  0.22185  1.0000
  H   H28       1.0  0.18878999999999996  0.047649999999999984  0.17259  1.0000
  H   H29       1.0  0.9648999999999998  0.8002  0.0628  1.0000
  H   H30       1.0  0.22587  0.72002  0.11335000000000002  1.0000
  H   H31       1.0  0.91394  0.16044  0.3911100000000001  1.0000
  H   H32       1.0  0.43777  0.22179  0.54398  1.0000
  H   H33       1.0  0.18878999999999996  0.17250999999999997  0.45228000000000007  1.0000
  H   H34       1.0  0.96505  0.06274  0.69986  1.0000
  H   H35       1.0  0.22609  0.11344  0.7799800000000001  1.0000
  H   H36       1.0  0.9141299999999998  0.33954  0.10886000000000003  1.0000
  H   H37       1.0  0.438  0.27818  0.95591  1.0000
  H   H38       1.0  0.18901  0.32736  0.0477  1.0000
  H   H39       1.0  0.9648999999999998  0.43722  0.8002  1.0000
  H   H40       1.0  0.22593  0.38669  0.72005  1.0000
  C   C1        1.0  0.11218  0.47961  0.59049  1.0000
  C   C2        1.0  0.16383999999999999  0.56467  0.6175000000000002  1.0000
  C   C3        1.0  0.4242899999999999  0.50412  0.52378  1.0000
  C   C4        1.0  0.6706999999999997  0.42369  0.6870700000000002  1.0000
  C   C5        1.0  0.81255  0.4749  0.6598600000000001  1.0000
  C   C6        1.0  0.9537299999999997  0.43259  0.61503  1.0000
  C   C7        1.0  0.9342499999999998  0.33874  0.59738  1.0000
  C   C8        1.0  0.78799  0.29247  0.62647  1.0000
  C   C9        1.0  0.11215  0.02044  0.90952  1.0000
  C   C10       1.0  0.16379  0.93538  0.8825  1.0000
  C   C11       1.0  0.42426  0.99586  0.97625  1.0000
  C   C12       1.0  0.6705099999999998  0.07643  0.81291  1.0000
  C   C13       1.0  0.8124199999999998  0.02522  0.84019  1.0000
  C   C14       1.0  0.9536099999999997  0.06745  0.88501  1.0000
  C   C15       1.0  0.93412  0.16129  0.90265  1.0000
  C   C16       1.0  0.7877999999999997  0.20755  0.8735  1.0000
  C   C17       1.0  0.11220999999999998  0.90952  0.47957  1.0000
  C   C18       1.0  0.16387  0.8825099999999998  0.56465  1.0000
  C   C19       1.0  0.42428  0.9762299999999998  0.50412  1.0000
  C   C20       1.0  0.67067  0.81294  0.42366  1.0000
  C   C21       1.0  0.81257  0.84019  0.47485000000000005  1.0000
  C   C22       1.0  0.9537099999999997  0.885  0.43254  1.0000
  C   C23       1.0  0.93415  0.90263  0.33870000000000006  1.0000
  C   C24       1.0  0.7878299999999998  0.87348  0.2924500000000001  1.0000
  C   C25       1.0  0.11212  0.59048  0.020420000000000004  1.0000
  C   C26       1.0  0.16374999999999995  0.61751  0.9353700000000001  1.0000
  C   C27       1.0  0.42426  0.52376  0.99588  1.0000
  C   C28       1.0  0.6705399999999998  0.6871  0.07641  1.0000
  C   C29       1.0  0.8124  0.65986  0.02518  1.0000
  C   C30       1.0  0.9536099999999997  0.61501  0.06741  1.0000
  C   C31       1.0  0.93421  0.59735  0.16126  1.0000
  C   C32       1.0  0.78793  0.62644  0.20753  1.0000
  C   C33       1.0  0.8878  0.5204  0.4095100000000001  1.0000
  C   C34       1.0  0.83614  0.43533  0.3825  1.0000
  C   C35       1.0  0.5756999999999998  0.49588  0.47623  1.0000
  C   C36       1.0  0.32928  0.57631  0.3129300000000001  1.0000
  C   C37       1.0  0.18743  0.52511  0.34014  1.0000
  C   C38       1.0  0.04625999999999999  0.56741  0.38497000000000003  1.0000
  C   C39       1.0  0.06573  0.66126  0.40262  1.0000
  C   C40       1.0  0.212  0.70753  0.37353  1.0000
  C   C41       1.0  0.88783  0.9795599999999998  0.09048  1.0000
  C   C42       1.0  0.83619  0.06462  0.11750000000000002  1.0000
  C   C43       1.0  0.57573  0.00414  0.02376  1.0000
  C   C44       1.0  0.3294699999999999  0.92357  0.1871  1.0000
  C   C45       1.0  0.18756  0.97478  0.15982  1.0000
  C   C46       1.0  0.04638  0.93255  0.11499000000000002  1.0000
  C   C47       1.0  0.06586  0.83871  0.09735  1.0000
  C   C48       1.0  0.21219  0.79245  0.1265  1.0000
  C   C49       1.0  0.88778  0.09049  0.52043  1.0000
  C   C50       1.0  0.8361099999999998  0.11749  0.43535  1.0000
  C   C51       1.0  0.5756999999999998  0.02377  0.49588  1.0000
  C   C52       1.0  0.32931  0.18707  0.57634  1.0000
  C   C53       1.0  0.18740999999999994  0.15980999999999998  0.52515  1.0000
  C   C54       1.0  0.04627  0.115  0.56746  1.0000
  C   C55       1.0  0.06582999999999997  0.09737  0.6613  1.0000
  C   C56       1.0  0.21214999999999995  0.12652  0.70755  1.0000
  C   C57       1.0  0.8878599999999998  0.40953  0.97959  1.0000
  C   C58       1.0  0.83623  0.3825  0.06463  1.0000
  C   C59       1.0  0.57572  0.47623999999999994  0.00413  1.0000
  C   C60       1.0  0.32945  0.31291  0.92359  1.0000
  C   C61       1.0  0.18758  0.34014  0.97483  1.0000
  C   C62       1.0  0.04638  0.38499  0.9325900000000003  1.0000
  C   C63       1.0  0.06578  0.40265  0.83874  1.0000
  C   C64       1.0  0.21205  0.37356  0.79247  1.0000
  S   S1        1.0  0.26828  0.41755  0.52773  1.0000
  S   S2        1.0  0.3675799999999999  0.60331  0.58541  1.0000
  S   S3        1.0  0.26828  0.08244  0.9723200000000002  1.0000
  S   S4        1.0  0.36751  0.89666  0.91461  1.0000
  S   S5        1.0  0.26828  0.97229  0.41755  1.0000
  S   S6        1.0  0.3676199999999999  0.9146  0.60332  1.0000
  S   S7        1.0  0.26829999999999987  0.5277  0.08244  1.0000
  S   S8        1.0  0.3674599999999999  0.58541  0.89668  1.0000
  S   S9        1.0  0.7317  0.58245  0.47227  1.0000
  S   S10       1.0  0.6324  0.39669  0.41459  1.0000
  S   S11       1.0  0.7317  0.91756  0.02768  1.0000
  S   S12       1.0  0.6324699999999998  0.10334  0.08539  1.0000
  S   S13       1.0  0.7317  0.02772  0.58246  1.0000
  S   S14       1.0  0.63236  0.08539999999999999  0.3966800000000001  1.0000
  S   S15       1.0  0.73169  0.4723  0.91756  1.0000
  S   S16       1.0  0.6325199999999997  0.4146  0.10332000000000002  1.0000
  N   N1        1.0  0.6568899999999998  0.3323799999999999  0.67347  1.0000
  N   N2        1.0  0.6565699999999998  0.16776999999999997  0.8264500000000002  1.0000
  N   N3        1.0  0.65673  0.82646  0.33233  1.0000
  N   N4        1.0  0.65673  0.67347  0.16773  1.0000
  N   N5        1.0  0.3430899999999999  0.66762  0.32653  1.0000
  N   N6        1.0  0.34341  0.83224  0.17355  1.0000
  N   N7        1.0  0.3432599999999999  0.17354  0.66767  1.0000
  N   N8        1.0  0.3432499999999999  0.32652999999999993  0.8322700000000002  1.0000
