data_image0
_chemical_formula_structural       Y4H24C48O24
_chemical_formula_sum              "Y4 H24 C48 O24"
_cell_length_a       9.77356
_cell_length_b       10.99543
_cell_length_c       16.28861
_cell_angle_alpha    89.66875000000002
_cell_angle_beta     90.23409
_cell_angle_gamma    89.72655

_symmetry_space_group_name_H-M    'P 1'
_symmetry_Int_Tables_number       1

loop_
  _symmetry_equiv_pos_as_xyz
  'x,y,z'

loop_
  _atom_site_type_symbol
  _atom_site_label
  _atom_site_symmetry_multiplicity
  _atom_site_fract_x
  _atom_site_fract_y
  _atom_site_fract_z
  _atom_site_occupancy
  Y   Y1        1.0  0.79001  0.50019  0.99964  1.0000
  Y   Y2        1.0  0.28981  0.0021099999999999995  0.49805000000000005  1.0000
  Y   Y3        1.0  0.20997999999999997  0.49982  0.00036  1.0000
  Y   Y4        1.0  0.71019  0.9978900000000002  0.50195  1.0000
  H   H1        1.0  0.21092000000000002  0.36253  0.76819  1.0000
  H   H2        1.0  0.21984  0.23688000000000003  0.6407000000000003  1.0000
  H   H3        1.0  0.78577  0.28293  0.60868  1.0000
  H   H4        1.0  0.77752  0.4114  0.73536  1.0000
  H   H5        1.0  0.22396  0.09707  0.03037  1.0000
  H   H6        1.0  0.79095  0.12936  0.9879800000000001  1.0000
  H   H7        1.0  0.70804  0.13815000000000002  0.73168  1.0000
  H   H8        1.0  0.71829  0.26411  0.85869  1.0000
  H   H9        1.0  0.2856  0.21642000000000006  0.8926300000000003  1.0000
  H   H10       1.0  0.27586  0.08904000000000002  0.7658900000000001  1.0000
  H   H11       1.0  0.72326  0.39963000000000004  0.47121000000000013  1.0000
  H   H12       1.0  0.29057  0.37320000000000003  0.51306  1.0000
  H   H13       1.0  0.78907  0.63748  0.23181  1.0000
  H   H14       1.0  0.78015  0.76313  0.3593000000000001  1.0000
  H   H15       1.0  0.21422999999999998  0.7170700000000001  0.3913200000000001  1.0000
  H   H16       1.0  0.22248000000000004  0.5886000000000001  0.26463  1.0000
  H   H17       1.0  0.77604  0.9029400000000001  0.96963  1.0000
  H   H18       1.0  0.20903999999999998  0.87064  0.01202  1.0000
  H   H19       1.0  0.29195  0.86186  0.26832  1.0000
  H   H20       1.0  0.2817  0.7359000000000001  0.14131  1.0000
  H   H21       1.0  0.7144  0.78358  0.10737  1.0000
  H   H22       1.0  0.72413  0.9109700000000001  0.23411000000000007  1.0000
  H   H23       1.0  0.27673  0.60038  0.52878  1.0000
  H   H24       1.0  0.70942  0.6268100000000001  0.48694  1.0000
  C   C1        1.0  0.9932799999999999  0.39164  0.76049  1.0000
  C   C2        1.0  0.11886  0.3458800000000001  0.73247  1.0000
  C   C3        1.0  0.12371  0.27567  0.66176  1.0000
  C   C4        1.0  0.0025200000000000014  0.24926  0.6190500000000002  1.0000
  C   C5        1.0  0.87804  0.30117000000000005  0.64407  1.0000
  C   C6        1.0  0.8735800000000001  0.37275  0.71421  1.0000
  C   C7        1.0  0.98512  0.4496  0.8428700000000002  1.0000
  C   C8        1.0  0.005749999999999998  0.16075  0.5497100000000003  1.0000
  C   C9        1.0  0.00827  0.12612  0.01035  1.0000
  C   C10       1.0  0.12664  0.05361000000000001  0.01709  1.0000
  C   C11       1.0  0.8815100000000001  0.07181  0.99317  1.0000
  C   C12       1.0  0.01718  0.26116  0.01855  1.0000
  C   C13       1.0  0.49088  0.10842000000000002  0.73989  1.0000
  C   C14       1.0  0.61638  0.15488  0.76752  1.0000
  C   C15       1.0  0.62194  0.22534  0.8381700000000002  1.0000
  C   C16       1.0  0.50171  0.25112  0.8818700000000003  1.0000
  C   C17       1.0  0.37746  0.19889  0.85696  1.0000
  C   C18       1.0  0.37215  0.12758  0.78659  1.0000
  C   C19       1.0  0.4827699999999999  0.048790000000000014  0.65783  1.0000
  C   C20       1.0  0.5058  0.33776  0.95265  1.0000
  C   C21       1.0  0.5077  0.37374  0.49133000000000004  1.0000
  C   C22       1.0  0.62638  0.44464  0.48390000000000005  1.0000
  C   C23       1.0  0.3812  0.4296800000000001  0.5074300000000003  1.0000
  C   C24       1.0  0.51725  0.23858  0.48469  1.0000
  C   C25       1.0  0.006719999999999997  0.6083600000000001  0.23951  1.0000
  C   C26       1.0  0.88114  0.65413  0.26752  1.0000
  C   C27       1.0  0.87628  0.72434  0.33824  1.0000
  C   C28       1.0  0.9974899999999999  0.7507500000000001  0.38094  1.0000
  C   C29       1.0  0.12194999999999999  0.6988400000000001  0.35593  1.0000
  C   C30       1.0  0.12641  0.62726  0.28579  1.0000
  C   C31       1.0  0.01483  0.55041  0.15712  1.0000
  C   C32       1.0  0.99418  0.8392500000000002  0.45029000000000013  1.0000
  C   C33       1.0  0.9917300000000001  0.87389  0.98965  1.0000
  C   C34       1.0  0.8733499999999998  0.9463900000000001  0.98291  1.0000
  C   C35       1.0  0.11848999999999998  0.9282000000000001  0.006830000000000002  1.0000
  C   C36       1.0  0.9827600000000001  0.7388500000000001  0.98145  1.0000
  C   C37       1.0  0.50911  0.8915900000000002  0.26011  1.0000
  C   C38       1.0  0.38361  0.84513  0.23248  1.0000
  C   C39       1.0  0.37806  0.77467  0.16183  1.0000
  C   C40       1.0  0.49828  0.7488800000000001  0.11813  1.0000
  C   C41       1.0  0.62254  0.80112  0.14304  1.0000
  C   C42       1.0  0.62784  0.8724300000000003  0.21341000000000004  1.0000
  C   C43       1.0  0.51728  0.9512100000000001  0.34217  1.0000
  C   C44       1.0  0.4942599999999999  0.6622400000000002  0.04735000000000002  1.0000
  C   C45       1.0  0.49229  0.62627  0.50867  1.0000
  C   C46       1.0  0.37362  0.5553700000000001  0.5161000000000002  1.0000
  C   C47       1.0  0.6188  0.57033  0.49256000000000005  1.0000
  C   C48       1.0  0.48279999999999995  0.76142  0.51531  1.0000
  O   O1        1.0  0.8663000000000001  0.47423000000000004  0.87064  1.0000
  O   O2        1.0  0.09654  0.46584  0.88295  1.0000
  O   O3        1.0  0.89397  0.11101000000000003  0.5287400000000002  1.0000
  O   O4        1.0  0.12102  0.13944  0.51628  1.0000
  O   O5        1.0  0.9065500000000001  0.32249  0.01217  1.0000
  O   O6        1.0  0.13495  0.30804000000000004  0.02912  1.0000
  O   O7        1.0  0.36422  0.02406  0.62915  1.0000
  O   O8        1.0  0.59445  0.03083  0.61897  1.0000
  O   O9        1.0  0.39335  0.3814000000000001  0.97854  1.0000
  O   O10       1.0  0.62233  0.3633100000000001  0.9831600000000001  1.0000
  O   O11       1.0  0.40697  0.17707  0.4879000000000001  1.0000
  O   O12       1.0  0.6362  0.19184  0.47838  1.0000
  O   O13       1.0  0.13372  0.52577  0.12935  1.0000
  O   O14       1.0  0.90348  0.53417  0.11706  1.0000
  O   O15       1.0  0.10606000000000002  0.88901  0.47127000000000013  1.0000
  O   O16       1.0  0.879  0.86056  0.48371  1.0000
  O   O17       1.0  0.09348  0.6775  0.98783  1.0000
  O   O18       1.0  0.86508  0.69198  0.9708800000000002  1.0000
  O   O19       1.0  0.63575  0.9759500000000001  0.3708400000000001  1.0000
  O   O20       1.0  0.40551999999999994  0.9691800000000002  0.38104  1.0000
  O   O21       1.0  0.60661  0.61862  0.02147  1.0000
  O   O22       1.0  0.37764  0.63668  0.01683  1.0000
  O   O23       1.0  0.59299  0.8229200000000001  0.5121000000000002  1.0000
  O   O24       1.0  0.36377  0.80818  0.52162  1.0000
