data_image0
_chemical_formula_structural       Ca6H36C44S4O28
_chemical_formula_sum              "Ca6 H36 C44 S4 O28"
_cell_length_a       10.30466
_cell_length_b       10.302740000000002
_cell_length_c       19.29011
_cell_angle_alpha    81.60572
_cell_angle_beta     81.64995
_cell_angle_gamma    79.6341

_space_group_name_H-M_alt    "P 1"
_space_group_IT_number       1

loop_
  _space_group_symop_operation_xyz
  'x, y, z'

loop_
  _atom_site_type_symbol
  _atom_site_label
  _atom_site_symmetry_multiplicity
  _atom_site_fract_x
  _atom_site_fract_y
  _atom_site_fract_z
  _atom_site_occupancy
  Ca  Ca1       1.0  0.14742000000000005  0.9482300000000001  0.926  1.0000
  Ca  Ca2       1.0  0.051850000000000014  0.85262  0.57407  1.0000
  Ca  Ca3       1.0  0.8525799999999999  0.05177  0.074  1.0000
  Ca  Ca4       1.0  0.94815  0.14737000000000003  0.4259299999999999  1.0000
  Ca  Ca5       1.0  0.20018  0.7996  0.75009  1.0000
  Ca  Ca6       1.0  0.7998099999999999  0.20039  0.24991999999999998  1.0000
  H   H1        1.0  0.18741999999999984  0.36874  0.77335  1.0000
  H   H2        1.0  0.10271999999999999  0.45045  0.55777  1.0000
  H   H3        1.0  0.86114  0.6338700000000002  0.85331  1.0000
  H   H4        1.0  0.92911  0.4608800000000001  0.8752  1.0000
  H   H5        1.0  0.008549999999999999  0.55859  0.80126  1.0000
  H   H6        1.0  0.058729999999999984  0.07046000000000001  0.6777  1.0000
  H   H7        1.0  0.23814999999999997  0.48613  0.84743  1.0000
  H   H8        1.0  0.15940000000000001  0.37806000000000006  0.91685  1.0000
  H   H9        1.0  0.26269  0.48752  0.93806  1.0000
  H   H10       1.0  0.63116  0.81248  0.72671  1.0000
  H   H11       1.0  0.5495900000000001  0.8975200000000001  0.94215  1.0000
  H   H12       1.0  0.3658  0.13926  0.6467  1.0000
  H   H13       1.0  0.53855  0.07088999999999997  0.62473  1.0000
  H   H14       1.0  0.44099000000000005  0.99149  0.69869  1.0000
  H   H15       1.0  0.92951  0.94129  0.82228  1.0000
  H   H16       1.0  0.5123899999999998  0.76217  0.65274  1.0000
  H   H17       1.0  0.6205600000000001  0.8408  0.58332  1.0000
  H   H18       1.0  0.51092  0.73756  0.56214  1.0000
  H   H19       1.0  0.81258  0.63126  0.22665999999999997  1.0000
  H   H20       1.0  0.89728  0.54954  0.44223  1.0000
  H   H21       1.0  0.13886000000000004  0.36611999999999995  0.14669  1.0000
  H   H22       1.0  0.07089000000000001  0.53912  0.1248  1.0000
  H   H23       1.0  0.99144  0.44140000000000007  0.19874  1.0000
  H   H24       1.0  0.94126  0.92954  0.3223  1.0000
  H   H25       1.0  0.76185  0.51386  0.15257  1.0000
  H   H26       1.0  0.84059  0.62194  0.08315  1.0000
  H   H27       1.0  0.73731  0.51248  0.061939999999999995  1.0000
  H   H28       1.0  0.36883999999999995  0.18750999999999998  0.27329  1.0000
  H   H29       1.0  0.4504099999999999  0.10247000000000002  0.05785  1.0000
  H   H30       1.0  0.6342  0.86074  0.3533  1.0000
  H   H31       1.0  0.46145  0.9291  0.37527  1.0000
  H   H32       1.0  0.559  0.008510000000000005  0.30131  1.0000
  H   H33       1.0  0.07049  0.058709999999999984  0.17772  1.0000
  H   H34       1.0  0.48760999999999993  0.23783  0.34726  1.0000
  H   H35       1.0  0.37944  0.15919  0.41668  1.0000
  H   H36       1.0  0.48908  0.26244  0.43785999999999997  1.0000
  C   C1        1.0  0.13168  0.12176999999999999  0.80087  1.0000
  C   C2        1.0  0.15617999999999993  0.3375000000000001  0.72794  1.0000
  C   C3        1.0  0.17890000000000003  0.56248  0.66395  1.0000
  C   C4        1.0  0.08016999999999999  0.25375000000000003  0.61069  1.0000
  C   C5        1.0  0.14999999999999994  0.42415  0.66511  1.0000
  C   C6        1.0  0.12310999999999998  0.21071000000000006  0.73301  1.0000
  C   C7        1.0  0.11101999999999997  0.3824600000000001  0.60637  1.0000
  C   C8        1.0  0.95219  0.56014  0.8540900000000001  1.0000
  C   C9        1.0  0.08532  0.16869  0.67415  1.0000
  C   C10       1.0  0.04163  0.20895  0.54704  1.0000
  C   C11       1.0  0.19284  0.47505  0.9026899999999999  1.0000
  C   C12       1.0  0.8781099999999998  0.8683000000000001  0.69914  1.0000
  C   C13       1.0  0.66242  0.84392  0.77205  1.0000
  C   C14       1.0  0.4374800000000001  0.82129  0.83604  1.0000
  C   C15       1.0  0.74633  0.9197399999999999  0.8893100000000002  1.0000
  C   C16       1.0  0.57581  0.85016  0.83487  1.0000
  C   C17       1.0  0.78923  0.87689  0.76699  1.0000
  C   C18       1.0  0.61759  0.8890499999999999  0.8936  1.0000
  C   C19       1.0  0.43926  0.047990000000000005  0.64586  1.0000
  C   C20       1.0  0.83132  0.91463  0.82586  1.0000
  C   C21       1.0  0.7910699999999999  0.9584599999999999  0.95291  1.0000
  C   C22       1.0  0.52364  0.80736  0.59746  1.0000
  C   C23       1.0  0.86832  0.8782300000000001  0.19913  1.0000
  C   C24       1.0  0.84381  0.66249  0.27206  1.0000
  C   C25       1.0  0.8211  0.43752  0.33605  1.0000
  C   C26       1.0  0.9198300000000003  0.7462499999999999  0.38932  1.0000
  C   C27       1.0  0.8499899999999999  0.57584  0.33489  1.0000
  C   C28       1.0  0.87688  0.78928  0.26699  1.0000
  C   C29       1.0  0.88898  0.61753  0.39363  1.0000
  C   C30       1.0  0.047799999999999995  0.4398500000000001  0.14591  1.0000
  C   C31       1.0  0.91468  0.8313  0.32586  1.0000
  C   C32       1.0  0.9583699999999999  0.79105  0.45296  1.0000
  C   C33       1.0  0.8071599999999999  0.52495  0.09731  1.0000
  C   C34       1.0  0.12188000000000002  0.13169  0.30086  1.0000
  C   C35       1.0  0.33758000000000005  0.15607999999999997  0.22795000000000004  1.0000
  C   C36       1.0  0.56251  0.17871  0.16396  1.0000
  C   C37       1.0  0.25367  0.08026  0.11070000000000002  1.0000
  C   C38       1.0  0.42419  0.14984  0.16514  1.0000
  C   C39       1.0  0.21076999999999999  0.12311  0.23301000000000002  1.0000
  C   C40       1.0  0.38241  0.11095  0.10641000000000002  1.0000
  C   C41       1.0  0.56074  0.952  0.35414  1.0000
  C   C42       1.0  0.16867999999999997  0.08537000000000002  0.17414  1.0000
  C   C43       1.0  0.20893  0.04154  0.04709  1.0000
  C   C44       1.0  0.47635999999999995  0.19264  0.40255  1.0000
  S   S1        1.0  0.05272999999999999  0.6071800000000002  0.9126199999999999  1.0000
  S   S2        1.0  0.39186999999999994  0.9474899999999999  0.58742  1.0000
  S   S3        1.0  0.9472700000000001  0.3928199999999999  0.08738  1.0000
  S   S4        1.0  0.60813  0.0525  0.41259  1.0000
  O   O1        1.0  0.14248000000000002  0.99517  0.79912  1.0000
  O   O2        1.0  0.024320000000000015  0.08653  0.5488  1.0000
  O   O3        1.0  0.10401000000000009  0.7344599999999998  0.8749  1.0000
  O   O4        1.0  0.16953000000000001  0.64253  0.60779  1.0000
  O   O5        1.0  0.026330000000000003  0.29207  0.49283  1.0000
  O   O6        1.0  0.12941000000000003  0.169  0.8581  1.0000
  O   O7        1.0  0.20806999999999998  0.59065  0.72196  1.0000
  O   O8        1.0  0.0047199999999999786  0.85747  0.7009  1.0000
  O   O9        1.0  0.91336  0.97599  0.95122  1.0000
  O   O10       1.0  0.26488000000000006  0.8958999999999999  0.62521  1.0000
  O   O11       1.0  0.35747000000000007  0.83068  0.89219  1.0000
  O   O12       1.0  0.7078399999999999  0.97382  0.00705  1.0000
  O   O13       1.0  0.83086  0.8706200000000001  0.64191  1.0000
  O   O14       1.0  0.40928  0.792  0.77807  1.0000
  O   O15       1.0  0.85752  0.004829999999999994  0.20088  1.0000
  O   O16       1.0  0.97568  0.9134599999999999  0.4512  1.0000
  O   O17       1.0  0.89599  0.26553  0.12511  1.0000
  O   O18       1.0  0.83047  0.35746  0.39221  1.0000
  O   O19       1.0  0.9736599999999999  0.7079299999999997  0.50717  1.0000
  O   O20       1.0  0.87059  0.83099  0.1419  1.0000
  O   O21       1.0  0.79192  0.40935  0.27804  1.0000
  O   O22       1.0  0.9952799999999999  0.14253  0.29911  1.0000
  O   O23       1.0  0.08663  0.024010000000000004  0.04878  1.0000
  O   O24       1.0  0.73511  0.10410000000000001  0.37479  1.0000
  O   O25       1.0  0.64253  0.16932  0.10782  1.0000
  O   O26       1.0  0.29216  0.026169999999999992  0.9929499999999999  1.0000
  O   O27       1.0  0.16913999999999998  0.12938000000000002  0.35809  1.0000
  O   O28       1.0  0.59072  0.208  0.22192999999999996  1.0000
