data_image0
_chemical_formula_structural       Cu4H48C60N12Cl2
_chemical_formula_sum              "Cu4 H48 C60 N12 Cl2"
_cell_length_a       12.57882
_cell_length_b       13.05167
_cell_length_c       15.26554
_cell_angle_alpha    125.12195
_cell_angle_beta     121.71011000000001
_cell_angle_gamma    77.66391999999999

_space_group_name_H-M_alt    "P 1"
_space_group_IT_number       1

loop_
  _space_group_symop_operation_xyz
  'x, y, z'

loop_
  _atom_site_type_symbol
  _atom_site_label
  _atom_site_symmetry_multiplicity
  _atom_site_fract_x
  _atom_site_fract_y
  _atom_site_fract_z
  _atom_site_occupancy
  Cu  Cu1       1.0  0.018620000000000046  0.8550000000000001  0.80424  1.0000
  Cu  Cu2       1.0  0.98825  0.15052000000000001  0.20282000000000003  1.0000
  Cu  Cu3       1.0  0.13891000000000006  0.43853  0.53913  1.0000
  Cu  Cu4       1.0  0.86585  0.56836  0.46591  1.0000
  H   H1        1.0  0.9462700000000001  0.63286  0.76893  1.0000
  H   H2        1.0  0.75505  0.5289400000000002  0.70658  1.0000
  H   H3        1.0  0.57922  0.86325  0.73624  1.0000
  H   H4        1.0  0.77994  0.95596  0.80523  1.0000
  H   H5        1.0  0.3653600000000001  0.33932000000000007  0.51676  1.0000
  H   H6        1.0  0.56916  0.43007  0.58808  1.0000
  H   H7        1.0  0.44192999999999993  0.7986000000000002  0.73688  1.0000
  H   H8        1.0  0.2445  0.6913500000000001  0.66163  1.0000
  H   H9        1.0  0.11731999999999998  0.82955  0.11918000000000001  1.0000
  H   H10       1.0  0.99573  0.7051200000000001  0.12061  1.0000
  H   H11       1.0  0.06903  0.36830999999999997  0.84818  1.0000
  H   H12       1.0  0.18623000000000012  0.5076500000000002  0.8574700000000001  1.0000
  H   H13       1.0  0.8297099999999998  0.13603  0.27856  1.0000
  H   H14       1.0  0.78565  0.0012199999999999754  0.32099  1.0000
  H   H15       1.0  0.15219  0.8759600000000003  0.3799600000000001  1.0000
  H   H16       1.0  0.17938000000000004  0.017190000000000004  0.33403  1.0000
  H   H17       1.0  0.71717  0.7383200000000002  0.38597  1.0000
  H   H18       1.0  0.7500400000000002  0.88109  0.3449  1.0000
  H   H19       1.0  0.11366000000000001  0.74902  0.40114  1.0000
  H   H20       1.0  0.06403  0.61125  0.43969  1.0000
  H   H21       1.0  0.83755  0.8916100000000001  0.02301  1.0000
  H   H22       1.0  0.6318400000000001  0.82998  0.97142  1.0000
  H   H23       1.0  0.54108  0.20506  0.05553  1.0000
  H   H24       1.0  0.7496  0.24837000000000006  0.09876  1.0000
  H   H25       1.0  0.060850000000000015  0.37427  0.23960000000000004  1.0000
  H   H26       1.0  0.25238000000000005  0.47658  0.30088  1.0000
  H   H27       1.0  0.42563  0.14014  0.26798  1.0000
  H   H28       1.0  0.22432999999999997  0.04899  0.19985  1.0000
  H   H29       1.0  0.63891  0.6650400000000001  0.48657  1.0000
  H   H30       1.0  0.43615000000000004  0.57397  0.4164  1.0000
  H   H31       1.0  0.5658800000000002  0.20618  0.27115  1.0000
  H   H32       1.0  0.76146  0.3138200000000001  0.34381  1.0000
  H   H33       1.0  0.9388799999999999  0.16772000000000006  0.95236  1.0000
  H   H34       1.0  0.06647000000000004  0.29334  0.95625  1.0000
  H   H35       1.0  0.80803  0.5716  0.00259  1.0000
  H   H36       1.0  0.6907  0.4331300000000001  0.9949900000000002  1.0000
  H   H37       1.0  0.1679200000000001  0.86594  0.7180200000000001  1.0000
  H   H38       1.0  0.21052  0.99913  0.67228  1.0000
  H   H39       1.0  0.8635000000000002  0.15458  0.65358  1.0000
  H   H40       1.0  0.8362  0.013839999999999986  0.69974  1.0000
  H   H41       1.0  0.30024  0.29709  0.65486  1.0000
  H   H42       1.0  0.26743  0.15799000000000007  0.70052  1.0000
  H   H43       1.0  0.8805500000000002  0.23973999999999998  0.57876  1.0000
  H   H44       1.0  0.93215  0.37881  0.54269  1.0000
  H   H45       1.0  0.17316999999999996  0.10848  0.98328  1.0000
  H   H46       1.0  0.38002  0.16955000000000003  0.03741  1.0000
  H   H47       1.0  0.46859000000000006  0.79439  0.95382  1.0000
  H   H48       1.0  0.25737999999999994  0.7510100000000002  0.9063500000000001  1.0000
  C   C1        1.0  0.86271  0.68046  0.76085  1.0000
  C   C2        1.0  0.75385  0.6224400000000002  0.724  1.0000
  C   C3        1.0  0.64428  0.68368  0.71027  1.0000
  C   C4        1.0  0.65732  0.8074100000000001  0.74175  1.0000
  C   C5        1.0  0.7698000000000002  0.8599700000000001  0.77903  1.0000
  C   C6        1.0  0.38697  0.4409600000000001  0.56751  1.0000
  C   C7        1.0  0.5013399999999998  0.49303  0.60808  1.0000
  C   C8        1.0  0.5267800000000002  0.62488  0.66896  1.0000
  C   C9        1.0  0.42971  0.69617  0.68706  1.0000
  C   C10       1.0  0.31868  0.63767  0.64568  1.0000
  C   C11       1.0  0.10505999999999999  0.7266700000000001  0.05981  1.0000
  C   C12       1.0  0.03555999999999998  0.6566  0.059930000000000004  1.0000
  C   C13       1.0  0.021330000000000012  0.52402  0.98401  1.0000
  C   C14       1.0  0.07819999999999999  0.4702  0.91099  1.0000
  C   C15       1.0  0.14456000000000005  0.5486700000000001  0.9163000000000001  1.0000
  C   C16       1.0  0.8979  0.07508  0.29929  1.0000
  C   C17       1.0  0.87387  0.9980600000000002  0.32302  1.0000
  C   C18       1.0  0.9621799999999999  0.9181700000000003  0.34978  1.0000
  C   C19       1.0  0.07600000000000001  0.92941  0.3556  1.0000
  C   C20       1.0  0.09218000000000004  0.008630000000000023  0.32960000000000006  1.0000
  C   C21       1.0  0.8039400000000001  0.7436  0.38836  1.0000
  C   C22       1.0  0.8234799999999999  0.8238100000000002  0.36526  1.0000
  C   C23       1.0  0.9369200000000004  0.83162  0.36939  1.0000
  C   C24       1.0  0.023819999999999997  0.7507000000000001  0.39601000000000003  1.0000
  C   C25       1.0  0.9972700000000001  0.67289  0.41807000000000005  1.0000
  C   C26       1.0  0.76923  0.9588200000000002  0.029620000000000004  1.0000
  C   C27       1.0  0.6532199999999999  0.9254400000000002  0.00219  1.0000
  C   C28       1.0  0.56555  0.013780000000000002  0.01485  1.0000
  C   C29       1.0  0.60299  0.13190000000000002  0.04791  1.0000
  C   C30       1.0  0.72038  0.1579  0.07289  1.0000
  C   C31       1.0  0.14395000000000005  0.32583  0.24671  1.0000
  C   C32       1.0  0.25292999999999993  0.38296000000000013  0.2831  1.0000
  C   C33       1.0  0.36209  0.3209  0.29594  1.0000
  C   C34       1.0  0.34815  0.19679000000000002  0.26358  1.0000
  C   C35       1.0  0.23553  0.14513  0.22676  1.0000
  C   C36       1.0  0.6180400000000003  0.56348  0.43671  1.0000
  C   C37       1.0  0.50425  0.51116  0.3968999999999999  1.0000
  C   C38       1.0  0.47941999999999996  0.3793900000000001  0.33704  1.0000
  C   C39       1.0  0.5770400000000002  0.30848  0.31965  1.0000
  C   C40       1.0  0.6873199999999999  0.3673200000000001  0.35989  1.0000
  C   C41       1.0  0.9115599999999999  0.25740000000000013  0.96213  1.0000
  C   C42       1.0  0.9834600000000001  0.3282  0.96475  1.0000
  C   C43       1.0  0.94871  0.44481  0.98031  1.0000
  C   C44       1.0  0.8410299999999999  0.48302  0.99193  1.0000
  C   C45       1.0  0.77482  0.40496000000000004  0.98699  1.0000
  C   C46       1.0  0.10378999999999995  0.9327700000000002  0.70492  1.0000
  C   C47       1.0  0.12752  0.009119999999999972  0.68037  1.0000
  C   C48       1.0  0.04336999999999998  0.09549000000000007  0.66211  1.0000
  C   C49       1.0  0.9344199999999999  0.09257000000000007  0.66685  1.0000
  C   C50       1.0  0.91862  0.013849999999999993  0.69367  1.0000
  C   C51       1.0  0.20821999999999996  0.2807000000000001  0.63827  1.0000
  C   C52       1.0  0.1884599999999999  0.20181000000000007  0.66268  1.0000
  C   C53       1.0  0.06840999999999998  0.18067  0.64104  1.0000
  C   C54       1.0  0.9756900000000001  0.24906000000000003  0.59816  1.0000
  C   C55       1.0  0.0030700000000000466  0.32678  0.57656  1.0000
  C   C56       1.0  0.24101000000000003  0.04085000000000004  0.97681  1.0000
  C   C57       1.0  0.35792  0.07403  0.00597  1.0000
  C   C58       1.0  0.4453099999999999  0.98538  0.99395  1.0000
  C   C59       1.0  0.40664999999999996  0.86745  0.96038  1.0000
  C   C60       1.0  0.2879499999999999  0.8414700000000002  0.9331  1.0000
  N   N1        1.0  0.8732100000000002  0.7985  0.78752  1.0000
  N   N2        1.0  0.29364999999999997  0.51034  0.58427  1.0000
  N   N3        1.0  0.15973999999999983  0.6756400000000001  0.98992  1.0000
  N   N4        1.0  0.0035700000000000063  0.07941  0.29719  1.0000
  N   N5        1.0  0.88906  0.66827  0.41596000000000005  1.0000
  N   N6        1.0  0.80785  0.07553  0.07  1.0000
  N   N7        1.0  0.13270999999999997  0.20755  0.21944  1.0000
  N   N8        1.0  0.71159  0.49451000000000017  0.4200400000000001  1.0000
  N   N9        1.0  0.80795  0.29315  0.97229  1.0000
  N   N10       1.0  0.002599999999999975  0.9354200000000004  0.7162200000000001  1.0000
  N   N11       1.0  0.11708999999999996  0.3424400000000001  0.59332  1.0000
  N   N12       1.0  0.20077  0.9241600000000002  0.9349300000000001  1.0000
  Cl  Cl1       1.0  0.052090000000000074  0.63743  0.65776  1.0000
  Cl  Cl2       1.0  0.95205  0.37029  0.34767  1.0000
