data_image0
_chemical_formula_structural       Zn12H36C24S4N48
_chemical_formula_sum              "Zn12 H36 C24 S4 N48"
_cell_length_a       13.54503
_cell_length_b       13.54052
_cell_length_c       13.54682
_cell_angle_alpha    109.4947
_cell_angle_beta     109.53850999999999
_cell_angle_gamma    109.4919

_space_group_name_H-M_alt    "P 1"
_space_group_IT_number       1

loop_
  _space_group_symop_operation_xyz
  'x, y, z'

loop_
  _atom_site_type_symbol
  _atom_site_label
  _atom_site_symmetry_multiplicity
  _atom_site_fract_x
  _atom_site_fract_y
  _atom_site_fract_z
  _atom_site_occupancy
  Zn  Zn1       1.0  0.6652599999999999  0.51967  0.66596  1.0000
  Zn  Zn2       1.0  0.85408  0.33419000000000004  0.99985  1.0000
  Zn  Zn3       1.0  0.33444999999999997  0.00021999999999996537  0.8542799999999999  1.0000
  Zn  Zn4       1.0  0.9992599999999999  0.33386  0.8536  1.0000
  Zn  Zn5       1.0  8.999999999995086e-05  0.8542199999999998  0.33446  1.0000
  Zn  Zn6       1.0  0.4804299999999999  0.14545999999999998  0.14569  1.0000
  Zn  Zn7       1.0  0.51966  0.66586  0.6652  1.0000
  Zn  Zn8       1.0  0.6659199999999998  0.6652999999999999  0.5196799999999999  1.0000
  Zn  Zn9       1.0  0.8537899999999999  0.9992699999999999  0.33395  1.0000
  Zn  Zn10      1.0  0.3340499999999999  0.85377  0.9993399999999999  1.0000
  Zn  Zn11      1.0  0.14546999999999993  0.1456  0.48023  1.0000
  Zn  Zn12      1.0  0.14577999999999997  0.48021999999999987  0.14536  1.0000
  H   H1        1.0  0.4698499999999999  0.11843999999999992  0.73036  1.0000
  H   H2        1.0  0.52905  0.26022  0.64973  1.0000
  H   H3        1.0  0.61182  0.88083  0.35202  1.0000
  H   H4        1.0  0.12341999999999995  0.56964  0.8110699999999998  1.0000
  H   H5        1.0  0.6501299999999999  0.5289499999999999  0.26048999999999994  1.0000
  H   H6        1.0  0.26963999999999994  0.3878899999999999  0.7408399999999999  1.0000
  H   H7        1.0  0.68686  0.44516  0.87517  1.0000
  H   H8        1.0  0.7712099999999998  0.6196099999999999  0.17898  1.0000
  H   H9        1.0  0.11791999999999998  0.72995  0.47051999999999994  1.0000
  H   H10       1.0  0.24053999999999998  0.42828999999999995  0.55124  1.0000
  H   H11       1.0  0.22716999999999993  0.4079899999999999  0.8482599999999998  1.0000
  H   H12       1.0  0.8815199999999997  0.3531  0.61205  1.0000
  H   H13       1.0  0.37899  0.15182  0.561  1.0000
  H   H14       1.0  0.4405099999999999  0.59216  0.8188399999999999  1.0000
  H   H15       1.0  0.18768999999999988  0.75912  0.31025  1.0000
  H   H16       1.0  0.4079799999999999  0.84837  0.2269  1.0000
  H   H17       1.0  0.4461899999999998  0.8761299999999997  0.68768  1.0000
  H   H18       1.0  0.81965  0.44119  0.59282  1.0000
  H   H19       1.0  0.55163  0.24054999999999999  0.42854  1.0000
  H   H20       1.0  0.7301299999999997  0.46989999999999993  0.11738999999999998  1.0000
  H   H21       1.0  0.56968  0.8110999999999998  0.12318999999999998  1.0000
  H   H22       1.0  0.38805999999999996  0.7408399999999999  0.26941999999999994  1.0000
  H   H23       1.0  0.42860999999999994  0.55176  0.24061999999999995  1.0000
  H   H24       1.0  0.5923899999999998  0.81921  0.44028999999999996  1.0000
  H   H25       1.0  0.25983999999999996  0.6489699999999999  0.52845  1.0000
  H   H26       1.0  0.74179  0.2697599999999999  0.38731999999999994  1.0000
  H   H27       1.0  0.31056  0.18777999999999995  0.75891  1.0000
  H   H28       1.0  0.81125  0.12311999999999998  0.56941  1.0000
  H   H29       1.0  0.87605  0.6874799999999998  0.4463599999999999  1.0000
  H   H30       1.0  0.8489500000000001  0.22693999999999995  0.40723  1.0000
  H   H31       1.0  0.17947  0.7716  0.62032  1.0000
  H   H32       1.0  0.3526  0.6116199999999999  0.88087  1.0000
  H   H33       1.0  0.7594299999999998  0.3097699999999999  0.18753999999999996  1.0000
  H   H34       1.0  0.56156  0.3788799999999999  0.15216  1.0000
  H   H35       1.0  0.61953  0.1790199999999999  0.77129  1.0000
  H   H36       1.0  0.1517899999999999  0.5603899999999998  0.37836999999999993  1.0000
  C   C1        1.0  0.7312099999999999  0.4157199999999999  0.82818  1.0000
  C   C2        1.0  0.5814299999999999  0.3147299999999999  0.41147999999999996  1.0000
  C   C3        1.0  0.5916599999999997  0.4162399999999999  0.31836  1.0000
  C   C4        1.0  0.4162799999999999  0.3181999999999999  0.59151  1.0000
  C   C5        1.0  0.58764  0.90269  0.17036999999999997  1.0000
  C   C6        1.0  0.17409000000000002  0.90135  0.58344  1.0000
  C   C7        1.0  0.90134  0.58336  0.17371  1.0000
  C   C8        1.0  0.7268599999999997  0.82435  0.40806  1.0000
  C   C9        1.0  0.68529  0.26609  0.09627999999999999  1.0000
  C   C10       1.0  0.09632  0.68508  0.26625  1.0000
  C   C11       1.0  0.40834999999999994  0.7268499999999998  0.8244899999999998  1.0000
  C   C12       1.0  0.09786000000000002  0.2726  0.68151  1.0000
  C   C13       1.0  0.26677999999999996  0.09638999999999998  0.6850099999999999  1.0000
  C   C14       1.0  0.31829  0.59141  0.41605  1.0000
  C   C15       1.0  0.31475  0.41133  0.58135  1.0000
  C   C16       1.0  0.9028699999999996  0.17003999999999994  0.58738  1.0000
  C   C17       1.0  0.27275  0.68152  0.09764  1.0000
  C   C18       1.0  0.5832299999999998  0.1738999999999999  0.9013299999999997  1.0000
  C   C19       1.0  0.41154999999999986  0.5817899999999999  0.31471  1.0000
  C   C20       1.0  0.82451  0.40813999999999995  0.72681  1.0000
  C   C21       1.0  0.8287899999999999  0.7315  0.41644  1.0000
  C   C22       1.0  0.4167499999999999  0.8290799999999998  0.7320099999999999  1.0000
  C   C23       1.0  0.68193  0.09773999999999998  0.2723  1.0000
  C   C24       1.0  0.17039  0.5874899999999998  0.90263  1.0000
  S   S1        1.0  0.9998199999999999  0.28512  0.99961  1.0000
  S   S2        1.0  0.9997000000000001  0.99981  0.28512  1.0000
  S   S3        1.0  0.28520999999999985  0.9998199999999997  0.9998399999999998  1.0000
  S   S4        1.0  0.7145699999999998  0.7145299999999998  0.7145199999999999  1.0000
  N   N1        1.0  0.24908999999999998  0.7010099999999999  0.0025299999999999997  1.0000
  N   N2        1.0  0.69825  0.24444000000000002  0.99618  1.0000
  N   N3        1.0  0.5016899999999999  0.9352399999999997  0.14677  1.0000
  N   N4        1.0  0.64403  0.4331099999999999  0.4978599999999999  1.0000
  N   N5        1.0  0.43316  0.49779  0.6440399999999998  1.0000
  N   N6        1.0  0.70127  0.002529999999999967  0.24850999999999995  1.0000
  N   N7        1.0  0.78702  0.353  0.85162  1.0000
  N   N8        1.0  0.49798  0.64446  0.43318  1.0000
  N   N9        1.0  0.4236099999999999  0.6523899999999998  0.8697799999999999  1.0000
  N   N10       1.0  0.7852699999999999  0.8473699999999997  0.34817  1.0000
  N   N11       1.0  0.75076  0.7533099999999999  0.45173  1.0000
  N   N12       1.0  0.21373999999999993  0.5631399999999999  0.06219999999999999  1.0000
  N   N13       1.0  0.56354  0.06246999999999999  0.21386  1.0000
  N   N14       1.0  0.75337  0.4516  0.75062  1.0000
  N   N15       1.0  0.3485699999999999  0.7853699999999999  0.84771  1.0000
  N   N16       1.0  0.49911999999999984  0.4367499999999998  0.6509899999999998  1.0000
  N   N17       1.0  0.6526099999999999  0.8699499999999998  0.42325  1.0000
  N   N18       1.0  0.3543099999999999  0.85265  0.7879499999999999  1.0000
  N   N19       1.0  0.45193999999999984  0.7508599999999997  0.7534799999999999  1.0000
  N   N20       1.0  0.9963299999999997  0.6982999999999998  0.24465  1.0000
  N   N21       1.0  0.8703999999999997  0.4240499999999998  0.65297  1.0000
  N   N22       1.0  0.12869  0.78127  0.55266  1.0000
  N   N23       1.0  0.5006099999999999  0.1512399999999999  0.93715  1.0000
  N   N24       1.0  0.43682999999999994  0.6510499999999998  0.499  1.0000
  N   N25       1.0  0.34752  0.77129  0.21763999999999997  1.0000
  N   N26       1.0  0.7719099999999998  0.21772  0.34671  1.0000
  N   N27       1.0  0.54734  0.30134  0.29832  1.0000
  N   N28       1.0  0.21786999999999992  0.3474199999999999  0.77127  1.0000
  N   N29       1.0  0.1512499999999999  0.9368999999999995  0.50056  1.0000
  N   N30       1.0  0.3013899999999999  0.29813  0.54718  1.0000
  N   N31       1.0  0.9353199999999999  0.14644  0.50146  1.0000
  N   N32       1.0  0.4469199999999999  0.22896999999999998  0.5778  1.0000
  N   N33       1.0  0.9369999999999998  0.5005799999999999  0.1508  1.0000
  N   N34       1.0  0.1464399999999998  0.5014999999999997  0.9350299999999999  1.0000
  N   N35       1.0  0.22888999999999995  0.5771999999999999  0.44641  1.0000
  N   N36       1.0  0.2983  0.54731  0.30124  1.0000
  N   N37       1.0  0.85246  0.7874799999999998  0.35398  1.0000
  N   N38       1.0  0.24498999999999985  0.9963999999999995  0.6983  1.0000
  N   N39       1.0  0.5518899999999999  0.12858999999999993  0.78116  1.0000
  N   N40       1.0  0.0027000000000000175  0.24866  0.70093  1.0000
  N   N41       1.0  0.56686  0.2107  0.06429  1.0000
  N   N42       1.0  0.5781499999999998  0.44683999999999996  0.22913999999999998  1.0000
  N   N43       1.0  0.0641599999999999  0.5666199999999999  0.21053  1.0000
  N   N44       1.0  0.7811799999999997  0.55222  0.12827  1.0000
  N   N45       1.0  0.65104  0.49908  0.43687999999999994  1.0000
  N   N46       1.0  0.06247999999999999  0.21384000000000003  0.56315  1.0000
  N   N47       1.0  0.8472899999999998  0.34777999999999987  0.7847999999999999  1.0000
  N   N48       1.0  0.21102  0.06411000000000001  0.56649  1.0000
