data_image0
_chemical_formula_structural       La2Cu3H54C36N6O24
_chemical_formula_sum              "La2 Cu3 H54 C36 N6 O24"
_cell_length_a       7.75941
_cell_length_b       13.57393
_cell_length_c       13.57347
_cell_angle_alpha    120.09581000000001
_cell_angle_beta     89.9857
_cell_angle_gamma    89.98883

_symmetry_space_group_name_H-M    'P 1'
_symmetry_Int_Tables_number       1

loop_
  _symmetry_equiv_pos_as_xyz
  'x,y,z'

loop_
  _atom_site_type_symbol
  _atom_site_label
  _atom_site_symmetry_multiplicity
  _atom_site_fract_x
  _atom_site_fract_y
  _atom_site_fract_z
  _atom_site_occupancy
  La  La1       1.0  0.3469799999999999  0.66648  0.3335  1.0000
  La  La2       1.0  0.65301  0.33352  0.6665  1.0000
  Cu  Cu1       1.0  0.9999899999999999  0.5  0.5  1.0000
  Cu  Cu2       1.0  0.9999899999999999  0.0  0.5  1.0000
  Cu  Cu3       1.0  0.0  0.5  0.0  1.0000
  H   H1        1.0  0.8580399999999998  0.64728  0.68029  1.0000
  H   H2        1.0  0.9414399999999998  0.82634  0.66159  1.0000
  H   H3        1.0  0.7646399999999998  0.7374899999999999  0.53604  1.0000
  H   H4        1.0  0.62459  0.7922  0.72308  1.0000
  H   H5        1.0  0.54572  0.65051  0.66534  1.0000
  H   H6        1.0  0.4759199999999999  0.7381999999999997  0.60919  1.0000
  H   H7        1.0  0.04086999999999998  0.80993  0.82551  1.0000
  H   H8        1.0  0.21049  0.8528900000000001  0.7673600000000002  1.0000
  H   H9        1.0  0.20411  0.71003  0.73815  1.0000
  H   H10       1.0  0.85781  0.032510000000000025  0.35314  1.0000
  H   H11       1.0  0.9413899999999997  0.8339  0.17424000000000003  1.0000
  H   H12       1.0  0.76396  0.79791  0.26321  1.0000
  H   H13       1.0  0.6251799999999997  0.9304499999999998  0.20849  1.0000
  H   H14       1.0  0.5452299999999998  0.014569999999999987  0.35015  1.0000
  H   H15       1.0  0.4758199999999999  0.8704599999999998  0.26199  1.0000
  H   H16       1.0  0.04065  0.01409000000000001  0.19013000000000002  1.0000
  H   H17       1.0  0.21100999999999995  0.9132  0.14803  1.0000
  H   H18       1.0  0.20319999999999994  0.02763  0.29077  1.0000
  H   H19       1.0  0.8580799999999997  0.32037000000000004  0.9664800000000001  1.0000
  H   H20       1.0  0.94083  0.33875  0.16416  1.0000
  H   H21       1.0  0.7649399999999997  0.46517999999999987  0.20146  1.0000
  H   H22       1.0  0.6259399999999998  0.27742  0.06894  1.0000
  H   H23       1.0  0.5459399999999998  0.33491999999999994  0.98508  1.0000
  H   H24       1.0  0.4765099999999999  0.3911  0.12926  1.0000
  H   H25       1.0  0.04115999999999999  0.17464999999999997  0.9841  1.0000
  H   H26       1.0  0.21076999999999996  0.23344  0.08531  1.0000
  H   H27       1.0  0.20407  0.26183000000000006  0.9712  1.0000
  H   H28       1.0  0.14195  0.3527199999999999  0.31971  1.0000
  H   H29       1.0  0.05855999999999999  0.17366  0.33841  1.0000
  H   H30       1.0  0.23535999999999996  0.2625  0.46396  1.0000
  H   H31       1.0  0.3753999999999999  0.20779  0.27693  1.0000
  H   H32       1.0  0.4542699999999999  0.34949  0.33466  1.0000
  H   H33       1.0  0.52407  0.2618  0.39082000000000006  1.0000
  H   H34       1.0  0.95913  0.19006  0.1745  1.0000
  H   H35       1.0  0.78951  0.14711  0.23265  1.0000
  H   H36       1.0  0.7958899999999998  0.28996  0.26185  1.0000
  H   H37       1.0  0.14218  0.96749  0.64687  1.0000
  H   H38       1.0  0.058609999999999995  0.16609999999999994  0.82577  1.0000
  H   H39       1.0  0.23602999999999996  0.20209  0.73679  1.0000
  H   H40       1.0  0.3748199999999999  0.06955000000000003  0.79151  1.0000
  H   H41       1.0  0.4547699999999999  0.9854299999999998  0.64985  1.0000
  H   H42       1.0  0.5241799999999998  0.12953999999999993  0.7380199999999999  1.0000
  H   H43       1.0  0.9593399999999997  0.9859099999999997  0.80988  1.0000
  H   H44       1.0  0.7889799999999998  0.0868  0.85197  1.0000
  H   H45       1.0  0.79679  0.9723699999999995  0.70923  1.0000
  H   H46       1.0  0.14191  0.67962  0.03353  1.0000
  H   H47       1.0  0.05916  0.66125  0.83585  1.0000
  H   H48       1.0  0.23505999999999994  0.53481  0.79854  1.0000
  H   H49       1.0  0.37406  0.72258  0.93107  1.0000
  H   H50       1.0  0.4540499999999999  0.66508  0.014920000000000001  1.0000
  H   H51       1.0  0.5234799999999998  0.6089  0.87074  1.0000
  H   H52       1.0  0.9588299999999997  0.82535  0.0159  1.0000
  H   H53       1.0  0.7892299999999998  0.76656  0.9147  1.0000
  H   H54       1.0  0.79593  0.73817  0.0288  1.0000
  C   C1        1.0  0.13567999999999994  0.72861  0.54522  1.0000
  C   C2        1.0  0.017449999999999993  0.7513  0.64484  1.0000
  C   C3        1.0  0.7356699999999998  0.67257  0.55969  1.0000
  C   C4        1.0  0.6907299999999997  0.56712  0.44621  1.0000
  C   C5        1.0  0.58571  0.71521  0.64423  1.0000
  C   C6        1.0  0.12430999999999998  0.78221  0.7509700000000001  1.0000
  C   C7        1.0  0.13563  0.8157599999999999  0.27162  1.0000
  C   C8        1.0  0.017229999999999995  0.8926699999999999  0.24921  1.0000
  C   C9        1.0  0.7350899999999998  0.88676  0.32795  1.0000
  C   C10       1.0  0.68983  0.87927  0.43335  1.0000
  C   C11       1.0  0.5854899999999997  0.9286599999999999  0.28527  1.0000
  C   C12       1.0  0.12414999999999997  0.96778  0.2183  1.0000
  C   C13       1.0  0.135  0.45522999999999997  0.1838  1.0000
  C   C14       1.0  0.0173  0.35551  0.10609  1.0000
  C   C15       1.0  0.7356499999999998  0.44085  0.11269  1.0000
  C   C16       1.0  0.6898699999999998  0.55383  0.12039  1.0000
  C   C17       1.0  0.58617  0.3561  0.07095  1.0000
  C   C18       1.0  0.12438999999999997  0.24932  0.03078  1.0000
  C   C19       1.0  0.8643099999999998  0.27138  0.4547800000000001  1.0000
  C   C20       1.0  0.9825499999999998  0.2487  0.35516  1.0000
  C   C21       1.0  0.2643199999999999  0.32743  0.44031  1.0000
  C   C22       1.0  0.30926  0.43288  0.5538  1.0000
  C   C23       1.0  0.4142899999999999  0.28478000000000003  0.35578000000000004  1.0000
  C   C24       1.0  0.8756799999999998  0.21779  0.24903000000000003  1.0000
  C   C25       1.0  0.8643699999999997  0.18424  0.72838  1.0000
  C   C26       1.0  0.98277  0.10733  0.7508  1.0000
  C   C27       1.0  0.26490999999999987  0.11323999999999994  0.67205  1.0000
  C   C28       1.0  0.31016  0.12072999999999999  0.56665  1.0000
  C   C29       1.0  0.4145  0.07134000000000007  0.7147300000000001  1.0000
  C   C30       1.0  0.8758499999999998  0.03222000000000005  0.78171  1.0000
  C   C31       1.0  0.8649899999999998  0.5447700000000001  0.81621  1.0000
  C   C32       1.0  0.98269  0.6444900000000001  0.8939100000000001  1.0000
  C   C33       1.0  0.26434  0.55914  0.8873200000000001  1.0000
  C   C34       1.0  0.31012  0.44616000000000006  0.8796100000000001  1.0000
  C   C35       1.0  0.41383  0.6439  0.92905  1.0000
  C   C36       1.0  0.8755999999999998  0.75067  0.96922  1.0000
  N   N1        1.0  0.89488  0.65546  0.61151  1.0000
  N   N2        1.0  0.8945299999999998  0.9555099999999999  0.345  1.0000
  N   N3        1.0  0.89497  0.38904999999999995  0.04368  1.0000
  N   N4        1.0  0.10510999999999997  0.34453  0.3885  1.0000
  N   N5        1.0  0.10547  0.04449000000000006  0.655  1.0000
  N   N6        1.0  0.10502  0.6109499999999998  0.95632  1.0000
  O   O1        1.0  0.24178999999999995  0.80569  0.55953  1.0000
  O   O2        1.0  0.12377999999999997  0.6336699999999997  0.45204  1.0000
  O   O3        1.0  0.79169  0.4810599999999999  0.40528000000000003  1.0000
  O   O4        1.0  0.5572299999999998  0.57085  0.3946  1.0000
  O   O5        1.0  0.24191999999999997  0.75328  0.19437000000000001  1.0000
  O   O6        1.0  0.12350999999999997  0.8170499999999999  0.36618  1.0000
  O   O7        1.0  0.7911999999999998  0.92432  0.51923  1.0000
  O   O8        1.0  0.55586  0.8243  0.42971  1.0000
  O   O9        1.0  0.24170999999999995  0.44048999999999994  0.24594  1.0000
  O   O10       1.0  0.12167999999999997  0.54893  0.18344000000000002  1.0000
  O   O11       1.0  0.7909499999999998  0.59485  0.07548  1.0000
  O   O12       1.0  0.55578  0.60506  0.17549000000000003  1.0000
  O   O13       1.0  0.7582099999999998  0.1943  0.44047  1.0000
  O   O14       1.0  0.8762199999999998  0.36633  0.54796  1.0000
  O   O15       1.0  0.20829999999999996  0.51894  0.59473  1.0000
  O   O16       1.0  0.4427599999999999  0.42915  0.6054  1.0000
  O   O17       1.0  0.7580699999999999  0.24671999999999997  0.80563  1.0000
  O   O18       1.0  0.8764799999999998  0.18295000000000006  0.63382  1.0000
  O   O19       1.0  0.20878999999999995  0.07568000000000001  0.48078  1.0000
  O   O20       1.0  0.4441299999999999  0.17569999999999994  0.57029  1.0000
  O   O21       1.0  0.7582899999999998  0.55951  0.75406  1.0000
  O   O22       1.0  0.87831  0.45107  0.81656  1.0000
  O   O23       1.0  0.20903999999999995  0.40515  0.92452  1.0000
  O   O24       1.0  0.44422  0.39494  0.82451  1.0000
