data_image0
_chemical_formula_structural       Cu12H40C28N44
_chemical_formula_sum              "Cu12 H40 C28 N44"
_cell_length_a       8.11413
_cell_length_b       7.90051
_cell_length_c       22.20927
_cell_angle_alpha    90.01307
_cell_angle_beta     90.33113
_cell_angle_gamma    89.99815999999998

_space_group_name_H-M_alt    "P 1"
_space_group_IT_number       1

loop_
  _space_group_symop_operation_xyz
  'x, y, z'

loop_
  _atom_site_type_symbol
  _atom_site_label
  _atom_site_symmetry_multiplicity
  _atom_site_fract_x
  _atom_site_fract_y
  _atom_site_fract_z
  _atom_site_occupancy
  Cu  Cu1       1.0  0.48367  0.44407  0.48312000000000005  1.0000
  Cu  Cu2       1.0  0.89342  0.36611  0.49435  1.0000
  Cu  Cu3       1.0  0.72144  0.5552200000000003  0.74002  1.0000
  Cu  Cu4       1.0  0.014210000000000004  0.5602  0.98564  1.0000
  Cu  Cu5       1.0  0.6049700000000002  0.64114  0.99415  1.0000
  Cu  Cu6       1.0  0.7733  0.4324600000000001  0.23878  1.0000
  Cu  Cu7       1.0  0.51447  0.9450900000000002  0.01756  1.0000
  Cu  Cu8       1.0  0.10335  0.8664200000000002  0.005740000000000001  1.0000
  Cu  Cu9       1.0  0.27725  0.056570000000000016  0.76022  1.0000
  Cu  Cu10      1.0  0.98471  0.05944  0.51502  1.0000
  Cu  Cu11      1.0  0.39347  0.14052  0.50592  1.0000
  Cu  Cu12      1.0  0.22806  0.9317000000000001  0.26095  1.0000
  H   H1        1.0  0.05324  0.63907  0.61393  1.0000
  H   H2        1.0  0.46064  0.71654  0.86012  1.0000
  H   H3        1.0  0.014990000000000003  0.2960700000000001  0.67738  1.0000
  H   H4        1.0  0.20388  0.41331  0.66945  1.0000
  H   H5        1.0  0.10052  0.33291  0.60506  1.0000
  H   H6        1.0  0.38818  0.3532  0.81789  1.0000
  H   H7        1.0  0.23996  0.5180300000000002  0.8306400000000002  1.0000
  H   H8        1.0  0.3511400000000001  0.4318700000000001  0.89232  1.0000
  H   H9        1.0  0.95545  0.7609000000000002  0.6971  1.0000
  H   H10       1.0  0.06287  0.61079  0.72913  1.0000
  H   H11       1.0  0.43459  0.3682100000000001  0.11331  1.0000
  H   H12       1.0  0.03943  0.2831400000000001  0.35658  1.0000
  H   H13       1.0  0.49232  0.7057800000000002  0.17857  1.0000
  H   H14       1.0  0.29805  0.59769  0.17185  1.0000
  H   H15       1.0  0.39913  0.6748500000000002  0.10678000000000001  1.0000
  H   H16       1.0  0.10892  0.65037  0.31875  1.0000
  H   H17       1.0  0.25774  0.48642000000000013  0.3321  1.0000
  H   H18       1.0  0.14212  0.5684800000000002  0.3930600000000001  1.0000
  H   H19       1.0  0.53647  0.23644000000000007  0.19432  1.0000
  H   H20       1.0  0.43491000000000013  0.3862500000000001  0.22887000000000002  1.0000
  H   H21       1.0  0.94508  0.13847000000000007  0.88604  1.0000
  H   H22       1.0  0.53713  0.21633  0.63974  1.0000
  H   H23       1.0  0.9851600000000001  0.79581  0.8226000000000001  1.0000
  H   H24       1.0  0.79538  0.9118200000000002  0.8303600000000001  1.0000
  H   H25       1.0  0.8994900000000002  0.83284  0.89485  1.0000
  H   H26       1.0  0.61068  0.85319  0.68208  1.0000
  H   H27       1.0  0.75895  0.018030000000000008  0.66949  1.0000
  H   H28       1.0  0.64725  0.9323300000000002  0.60777  1.0000
  H   H29       1.0  0.04375000000000001  0.26128  0.80302  1.0000
  H   H30       1.0  0.93722  0.11091  0.7705100000000001  1.0000
  H   H31       1.0  0.56369  0.8678800000000002  0.38632000000000005  1.0000
  H   H32       1.0  0.95953  0.7831300000000001  0.144  1.0000
  H   H33       1.0  0.50634  0.20673000000000005  0.32161  1.0000
  H   H34       1.0  0.70049  0.09826000000000003  0.32846  1.0000
  H   H35       1.0  0.59799  0.17378  0.39349  1.0000
  H   H36       1.0  0.88821  0.15032000000000006  0.18142  1.0000
  H   H37       1.0  0.7408400000000003  0.9855600000000002  0.16789  1.0000
  H   H38       1.0  0.8556  0.06896000000000002  0.1071  1.0000
  H   H39       1.0  0.46176  0.73576  0.30564  1.0000
  H   H40       1.0  0.56356  0.88496  0.27075  1.0000
  C   C1        1.0  0.2669800000000001  0.35459  0.49165  1.0000
  C   C2        1.0  0.65753  0.543  0.8611900000000001  1.0000
  C   C3        1.0  0.81586  0.52834  0.61693  1.0000
  C   C4        1.0  0.9845  0.55263  0.64344  1.0000
  C   C5        1.0  0.4958000000000001  0.60012  0.83576  1.0000
  C   C6        1.0  0.08174000000000002  0.38806  0.64972  1.0000
  C   C7        1.0  0.35948  0.4661  0.84455  1.0000
  C   C8        1.0  0.23017  0.65123  0.99285  1.0000
  C   C9        1.0  0.84042  0.45603  0.35972  1.0000
  C   C10       1.0  0.67716  0.47083000000000014  0.11630000000000001  1.0000
  C   C11       1.0  0.50908  0.4496300000000001  0.14308  1.0000
  C   C12       1.0  0.00219  0.40161  0.33361  1.0000
  C   C13       1.0  0.41921  0.6177600000000002  0.15114  1.0000
  C   C14       1.0  0.13704  0.5363300000000002  0.34502  1.0000
  C   C15       1.0  0.73058  0.8562100000000002  0.00827  1.0000
  C   C16       1.0  0.34144  0.0421  0.63925  1.0000
  C   C17       1.0  0.18282  0.02832000000000001  0.88317  1.0000
  C   C18       1.0  0.014250000000000004  0.05250000000000001  0.85649  1.0000
  C   C19       1.0  0.50293  0.10021000000000002  0.66448  1.0000
  C   C20       1.0  0.9177  0.8876  0.8501100000000001  1.0000
  C   C21       1.0  0.6393200000000002  0.96634  0.65557  1.0000
  C   C22       1.0  0.76843  0.14973000000000006  0.50741  1.0000
  C   C23       1.0  0.15855  0.9556900000000003  0.14038  1.0000
  C   C24       1.0  0.3212200000000002  0.9705300000000002  0.38353  1.0000
  C   C25       1.0  0.48925  0.9494500000000002  0.35662  1.0000
  C   C26       1.0  0.99697  0.9020600000000002  0.16672  1.0000
  C   C27       1.0  0.57891  0.11782  0.34889  1.0000
  C   C28       1.0  0.86135  0.03609000000000001  0.15509  1.0000
  N   N1        1.0  0.77397  0.50695  0.55924  1.0000
  N   N2        1.0  0.87517  0.4985000000000001  0.91411  1.0000
  N   N3        1.0  0.71591  0.5516300000000002  0.9174000000000001  1.0000
  N   N4        1.0  0.60655  0.49972  0.55914  1.0000
  N   N5        1.0  0.67959  0.5308600000000002  0.65139  1.0000
  N   N6        1.0  0.91263  0.45861  0.85774  1.0000
  N   N7        1.0  0.77609  0.48579  0.82394  1.0000
  N   N8        1.0  0.54839  0.5128200000000003  0.61435  1.0000
  N   N9        1.0  0.12686000000000006  0.39894000000000013  0.4934  1.0000
  N   N10       1.0  0.5172  0.63811  0.7726500000000001  1.0000
  N   N11       1.0  0.95931  0.6320800000000002  0.70374  1.0000
  N   N12       1.0  0.71941  0.49261  0.05883  1.0000
  N   N13       1.0  0.62459  0.50497  0.41253000000000006  1.0000
  N   N14       1.0  0.78444  0.45292  0.41614000000000007  1.0000
  N   N15       1.0  0.88699  0.50055  0.05967  1.0000
  N   N16       1.0  0.81345  0.46844000000000013  0.15136  1.0000
  N   N17       1.0  0.58493  0.5398  0.35575  1.0000
  N   N18       1.0  0.71984  0.5095400000000002  0.32216  1.0000
  N   N19       1.0  0.9447900000000002  0.48711  0.11515  1.0000
  N   N20       1.0  0.3714500000000001  0.61129  0.9927  1.0000
  N   N21       1.0  0.9832900000000002  0.3629500000000001  0.27056  1.0000
  N   N22       1.0  0.5360800000000002  0.36476  0.20256  1.0000
  N   N23       1.0  0.22422  0.00612  0.94084  1.0000
  N   N24       1.0  0.12390000000000001  0.99612  0.58644  1.0000
  N   N25       1.0  0.28296  0.05003  0.58305  1.0000
  N   N26       1.0  0.39168  0.9999100000000001  0.94117  1.0000
  N   N27       1.0  0.31933  0.03222  0.8488800000000001  1.0000
  N   N28       1.0  0.08681000000000003  0.9564900000000002  0.64288  1.0000
  N   N29       1.0  0.22331  0.9845500000000003  0.67659  1.0000
  N   N30       1.0  0.45031  0.014400000000000003  0.88607  1.0000
  N   N31       1.0  0.8703  0.90116  0.0062  1.0000
  N   N32       1.0  0.48184  0.13864  0.7275800000000001  1.0000
  N   N33       1.0  0.03994  0.13249  0.7963100000000001  1.0000
  N   N34       1.0  0.27924  0.9927700000000003  0.44101000000000007  1.0000
  N   N35       1.0  0.37309  0.00434  0.08702  1.0000
  N   N36       1.0  0.21292  0.9532200000000002  0.0838  1.0000
  N   N37       1.0  0.11163  0.00051  0.44031  1.0000
  N   N38       1.0  0.18489  0.96773  0.34854  1.0000
  N   N39       1.0  0.4146  0.03792  0.14371  1.0000
  N   N40       1.0  0.2805200000000001  0.00771  0.17765  1.0000
  N   N41       1.0  0.05361  0.9865400000000002  0.38485  1.0000
  N   N42       1.0  0.62697  0.10882000000000003  0.50719  1.0000
  N   N43       1.0  0.01715  0.8645  0.22981  1.0000
  N   N44       1.0  0.46255  0.86409  0.2972  1.0000
