data_image0
_chemical_formula_structural       Ag4H72C48N24
_chemical_formula_sum              "Ag4 H72 C48 N24"
_cell_length_a       9.76797
_cell_length_b       10.51374
_cell_length_c       14.292810000000001
_cell_angle_alpha    99.75624
_cell_angle_beta     80.52704
_cell_angle_gamma    87.61521

_symmetry_space_group_name_H-M    'P 1'
_symmetry_Int_Tables_number       1

loop_
  _symmetry_equiv_pos_as_xyz
  'x,y,z'

loop_
  _atom_site_type_symbol
  _atom_site_label
  _atom_site_symmetry_multiplicity
  _atom_site_fract_x
  _atom_site_fract_y
  _atom_site_fract_z
  _atom_site_occupancy
  Ag  Ag1       1.0  0.7208700000000003  0.75669  0.27451  1.0000
  Ag  Ag2       1.0  0.16989999999999997  0.40273999999999993  0.3243800000000001  1.0000
  Ag  Ag3       1.0  0.83283  0.5977399999999999  0.6775  1.0000
  Ag  Ag4       1.0  0.27948000000000006  0.24443999999999996  0.7279  1.0000
  H   H1        1.0  0.93687  0.05719  0.08535000000000001  1.0000
  H   H2        1.0  0.04753999999999999  0.9369799999999999  0.10911000000000003  1.0000
  H   H3        1.0  0.87  0.026059999999999996  0.24626  1.0000
  H   H4        1.0  0.9146400000000001  0.18621  0.24455  1.0000
  H   H5        1.0  0.10986999999999994  0.91813  0.36012000000000005  1.0000
  H   H6        1.0  0.11523999999999998  0.8895599999999998  0.23570000000000005  1.0000
  H   H7        1.0  0.34874  0.88778  0.28818  1.0000
  H   H8        1.0  0.31113  0.052400000000000016  0.3449500000000001  1.0000
  H   H9        1.0  0.43466  0.8971099999999997  0.06618  1.0000
  H   H10       1.0  0.26811  0.86752  0.11984  1.0000
  H   H11       1.0  0.25099  0.95434  0.97468  1.0000
  H   H12       1.0  0.3443600000000001  0.08877  0.010420000000000004  1.0000
  H   H13       1.0  0.10714999999999997  0.295  0.16442000000000004  1.0000
  H   H14       1.0  0.24291000000000001  0.26982  0.06638  1.0000
  H   H15       1.0  0.06332999999999996  0.14803  0.44768000000000013  1.0000
  H   H16       1.0  0.93946  0.23630999999999996  0.40221  1.0000
  H   H17       1.0  0.49929000000000007  0.13632999999999998  0.13165  1.0000
  H   H18       1.0  0.46003  0.17344  0.25856  1.0000
  H   H19       1.0  0.39897  0.57891  0.42046  1.0000
  H   H20       1.0  0.55968  0.4861599999999999  0.40254  1.0000
  H   H21       1.0  0.44775  0.4551799999999999  0.26025  1.0000
  H   H22       1.0  0.43487000000000003  0.62286  0.25992  1.0000
  H   H23       1.0  0.7628900000000002  0.36356  0.15726  1.0000
  H   H24       1.0  0.6995700000000001  0.39055  0.28073  1.0000
  H   H25       1.0  0.9506400000000002  0.41192999999999996  0.24915000000000007  1.0000
  H   H26       1.0  0.93267  0.52619  0.17287  1.0000
  H   H27       1.0  0.8886800000000001  0.56473  0.45962  1.0000
  H   H28       1.0  0.77246  0.47162999999999994  0.4024  1.0000
  H   H29       1.0  0.65334  0.6338399999999998  0.5383800000000001  1.0000
  H   H30       1.0  0.73386  0.7611299999999999  0.4892600000000001  1.0000
  H   H31       1.0  0.3973099999999999  0.80801  0.4222400000000001  1.0000
  H   H32       1.0  0.53697  0.88645  0.47017000000000003  1.0000
  H   H33       1.0  0.72558  0.53668  0.06609  1.0000
  H   H34       1.0  0.5597499999999999  0.62215  0.10413  1.0000
  H   H35       1.0  0.96635  0.7685299999999998  0.36504  1.0000
  H   H36       1.0  0.04270999999999999  0.68073  0.24969  1.0000
  H   H37       1.0  0.6014  0.42097999999999997  0.58108  1.0000
  H   H38       1.0  0.44075  0.51389  0.59895  1.0000
  H   H39       1.0  0.55284  0.54429  0.74126  1.0000
  H   H40       1.0  0.56491  0.37656999999999996  0.7417  1.0000
  H   H41       1.0  0.23821  0.63688  0.8436  1.0000
  H   H42       1.0  0.3008299999999998  0.60895  0.72  1.0000
  H   H43       1.0  0.04936999999999995  0.58854  0.7525800000000002  1.0000
  H   H44       1.0  0.06734  0.47395999999999994  0.82857  1.0000
  H   H45       1.0  0.11182000000000003  0.43536  0.54155  1.0000
  H   H46       1.0  0.22752000000000006  0.5286699999999999  0.59899  1.0000
  H   H47       1.0  0.34795  0.36592  0.46331  1.0000
  H   H48       1.0  0.267  0.23887999999999998  0.51229  1.0000
  H   H49       1.0  0.60331  0.19227  0.57888  1.0000
  H   H50       1.0  0.46317  0.11394  0.53123  1.0000
  H   H51       1.0  0.27322  0.46385  0.93488  1.0000
  H   H52       1.0  0.43832  0.3768599999999999  0.89751  1.0000
  H   H53       1.0  0.03402999999999995  0.23119000000000003  0.6367200000000002  1.0000
  H   H54       1.0  0.95672  0.32004999999999995  0.75173  1.0000
  H   H55       1.0  0.06367999999999999  0.9465199999999999  0.91586  1.0000
  H   H56       1.0  0.9524  0.06578000000000002  0.89139  1.0000
  H   H57       1.0  0.12982999999999992  0.97518  0.75505  1.0000
  H   H58       1.0  0.08502999999999995  0.81524  0.7576800000000001  1.0000
  H   H59       1.0  0.88945  0.08252  0.64091  1.0000
  H   H60       1.0  0.8839700000000003  0.11127  0.76553  1.0000
  H   H61       1.0  0.65068  0.11182  0.7128400000000001  1.0000
  H   H62       1.0  0.6889500000000001  0.94752  0.65595  1.0000
  H   H63       1.0  0.5644800000000001  0.10418000000000002  0.93414  1.0000
  H   H64       1.0  0.73077  0.13411000000000006  0.8806300000000002  1.0000
  H   H65       1.0  0.7485700000000002  0.05007  0.026570000000000007  1.0000
  H   H66       1.0  0.65583  0.91487  0.99211  1.0000
  H   H67       1.0  0.8890300000000001  0.70832  0.83615  1.0000
  H   H68       1.0  0.7565700000000001  0.73374  0.9366800000000001  1.0000
  H   H69       1.0  0.93595  0.85172  0.55396  1.0000
  H   H70       1.0  0.059989999999999995  0.7639  0.59923  1.0000
  H   H71       1.0  0.5007299999999999  0.8649299999999999  0.8702700000000002  1.0000
  H   H72       1.0  0.5410400000000001  0.82539  0.74335  1.0000
  C   C1        1.0  0.022449999999999998  0.04192  0.12506  1.0000
  C   C2        1.0  0.9593100000000001  0.08577  0.23233000000000004  1.0000
  C   C3        1.0  0.13726  0.9614599999999999  0.2953400000000001  1.0000
  C   C4        1.0  0.29317  0.9802699999999999  0.2837  1.0000
  C   C5        1.0  0.33401  0.9459599999999999  0.10469  1.0000
  C   C6        1.0  0.26947000000000004  0.023360000000000002  0.038110000000000005  1.0000
  C   C7        1.0  0.13834  0.2392  0.08945  1.0000
  C   C8        1.0  0.044700000000000004  0.28195999999999993  0.02766  1.0000
  C   C9        1.0  0.9866000000000001  0.13835999999999998  0.39903  1.0000
  C   C10       1.0  0.87727  0.058020000000000016  0.43748  1.0000
  C   C11       1.0  0.47188000000000013  0.09317000000000002  0.19657000000000005  1.0000
  C   C12       1.0  0.5874700000000002  0.002640000000000009  0.20516000000000006  1.0000
  C   C13       1.0  0.5081200000000001  0.5698  0.38315  1.0000
  C   C14       1.0  0.50173  0.54508  0.27546  1.0000
  C   C15       1.0  0.74256  0.43958  0.22208  1.0000
  C   C16       1.0  0.88222  0.49189  0.23763000000000006  1.0000
  C   C17       1.0  0.80883  0.56921  0.41381  1.0000
  C   C18       1.0  0.6917399999999999  0.66686  0.4699800000000001  1.0000
  C   C19       1.0  0.48116  0.79752  0.46376  1.0000
  C   C20       1.0  0.4148400000000001  0.78174  0.56049  1.0000
  C   C21       1.0  0.62298  0.53657  0.11141  1.0000
  C   C22       1.0  0.5554000000000001  0.42041  0.07355  1.0000
  C   C23       1.0  0.9981099999999999  0.67103  0.32369  1.0000
  C   C24       1.0  0.11587999999999989  0.6211300000000002  0.3702700000000001  1.0000
  C   C25       1.0  0.4922599999999999  0.4302100000000001  0.6183800000000003  1.0000
  C   C26       1.0  0.49857000000000046  0.45464  0.72603  1.0000
  C   C27       1.0  0.2577800000000001  0.5604999999999999  0.779  1.0000
  C   C28       1.0  0.11782999999999995  0.50837  0.7638400000000002  1.0000
  C   C29       1.0  0.19143000000000002  0.4309699999999999  0.58755  1.0000
  C   C30       1.0  0.3087  0.33328999999999986  0.53168  1.0000
  C   C31       1.0  0.5190200000000001  0.20283999999999996  0.53771  1.0000
  C   C32       1.0  0.58487  0.21883  0.44091  1.0000
  C   C33       1.0  0.37629  0.46302999999999994  0.8899400000000002  1.0000
  C   C34       1.0  0.44427000000000005  0.5787599999999999  0.9279200000000002  1.0000
  C   C35       1.0  0.0020800000000000076  0.32892  0.67764  1.0000
  C   C36       1.0  0.8849  0.37823000000000007  0.6303700000000001  1.0000
  C   C37       1.0  0.9775600000000001  0.9608599999999999  0.87641  1.0000
  C   C38       1.0  0.04049000000000002  0.9156499999999997  0.76924  1.0000
  C   C39       1.0  0.8624500000000003  0.03919000000000005  0.7057600000000003  1.0000
  C   C40       1.0  0.7067400000000004  0.019590000000000003  0.7173  1.0000
  C   C41       1.0  0.6654600000000003  0.055399999999999984  0.89612  1.0000
  C   C42       1.0  0.73051  0.97987  0.96362  1.0000
  C   C43       1.0  0.8609  0.76363  0.91166  1.0000
  C   C44       1.0  0.95759  0.71897  0.97063  1.0000
  C   C45       1.0  0.01304  0.8619199999999999  0.6023200000000001  1.0000
  C   C46       1.0  0.12199000000000008  0.9418599999999999  0.5630200000000001  1.0000
  C   C47       1.0  0.52844  0.9066  0.80472  1.0000
  C   C48       1.0  0.4132599999999998  0.9970399999999999  0.79556  1.0000
  N   N1        1.0  0.14531  0.10218999999999999  0.08733  1.0000
  N   N2        1.0  0.05385  0.08271  0.30154  1.0000
  N   N3        1.0  0.34547000000000005  0.028069999999999994  0.19563  1.0000
  N   N4        1.0  0.96492  0.31009  0.98046  1.0000
  N   N5        1.0  0.7963700000000001  0.9836699999999999  0.45766  1.0000
  N   N6        1.0  0.6591  0.9170799999999999  0.21709000000000006  1.0000
  N   N7        1.0  0.57946  0.68773  0.41461  1.0000
  N   N8        1.0  0.6382400000000001  0.54082  0.21178000000000002  1.0000
  N   N9        1.0  0.87026  0.6016499999999999  0.31929  1.0000
  N   N10       1.0  0.36956  0.76402  0.63759  1.0000
  N   N11       1.0  0.49787  0.32749  0.05209  1.0000
  N   N12       1.0  0.18695999999999993  0.68194  0.42163  1.0000
  N   N13       1.0  0.42076  0.31244  0.58714  1.0000
  N   N14       1.0  0.3618  0.4590399999999999  0.78942  1.0000
  N   N15       1.0  0.12972999999999998  0.39863000000000004  0.6820700000000002  1.0000
  N   N16       1.0  0.63042  0.23645000000000002  0.36382000000000003  1.0000
  N   N17       1.0  0.50144  0.67181  0.94972  1.0000
  N   N18       1.0  0.8140500000000002  0.3168800000000001  0.5791500000000003  1.0000
  N   N19       1.0  0.85513  0.9010099999999999  0.91544  1.0000
  N   N20       1.0  0.94614  0.91813  0.6998300000000002  1.0000
  N   N21       1.0  0.65498  0.9717399999999999  0.80549  1.0000
  N   N22       1.0  0.03987000000000002  0.6889  0.015410000000000004  1.0000
  N   N23       1.0  0.20302  0.015579999999999984  0.5418  1.0000
  N   N24       1.0  0.34185000000000004  0.08287000000000003  0.7838200000000002  1.0000
