data_image0
_chemical_formula_structural       La4H32C32O40
_chemical_formula_sum              "La4 H32 C32 O40"
_cell_length_a       12.45261
_cell_length_b       12.32537
_cell_length_c       12.46228
_cell_angle_alpha    55.72142999999999
_cell_angle_beta     96.5469
_cell_angle_gamma    124.10966999999998

_symmetry_space_group_name_H-M    'P 1'
_symmetry_Int_Tables_number       1

loop_
  _symmetry_equiv_pos_as_xyz
  'x,y,z'

loop_
  _atom_site_type_symbol
  _atom_site_label
  _atom_site_symmetry_multiplicity
  _atom_site_fract_x
  _atom_site_fract_y
  _atom_site_fract_z
  _atom_site_occupancy
  La  La1       1.0  0.052500000000000005  0.17739  0.62623  1.0000
  La  La2       1.0  0.19683999999999996  0.82364  0.12468999999999998  1.0000
  La  La3       1.0  0.6235399999999999  0.6773600000000001  0.19775  1.0000
  La  La4       1.0  0.12607999999999997  0.3245  0.05256  1.0000
  H   H1        1.0  0.37311  0.42446000000000006  0.78519  1.0000
  H   H2        1.0  0.47538  0.45066  0.66714  1.0000
  H   H3        1.0  0.70707  0.69036  0.78703  1.0000
  H   H4        1.0  0.61762  0.77717  0.73895  1.0000
  H   H5        1.0  0.7907500000000001  0.57699  0.05115  1.0000
  H   H6        1.0  0.88091  0.5487899999999999  0.9756900000000001  1.0000
  H   H7        1.0  0.52407  0.3125200000000001  0.9813700000000001  1.0000
  H   H8        1.0  0.48613  0.22721  0.15677  1.0000
  H   H9        1.0  0.7979200000000001  0.16855999999999996  0.79319  1.0000
  H   H10       1.0  0.68361  0.1621  0.8795299999999999  1.0000
  H   H11       1.0  0.77408  0.4825999999999999  0.52198  1.0000
  H   H12       1.0  0.73202  0.34732  0.48188  1.0000
  H   H13       1.0  0.04258000000000002  0.83309  0.37157  1.0000
  H   H14       1.0  0.96624  0.84445  0.47777000000000003  1.0000
  H   H15       1.0  0.99502  0.51716  0.70793  1.0000
  H   H16       1.0  0.17066999999999993  0.6542399999999999  0.61573  1.0000
  H   H17       1.0  0.87893  0.33209000000000005  0.21003  1.0000
  H   H18       1.0  0.7723000000000001  0.3416700000000001  0.28774  1.0000
  H   H19       1.0  0.54089  0.016589999999999976  0.25479  1.0000
  H   H20       1.0  0.6343  0.15214  0.07971  1.0000
  H   H21       1.0  0.458  0.6682799999999999  0.45339  1.0000
  H   H22       1.0  0.3700500000000001  0.6595000000000001  0.56842  1.0000
  H   H23       1.0  0.7301  0.98546  0.47386  1.0000
  H   H24       1.0  0.76919  0.84849  0.51775  1.0000
  H   H25       1.0  0.46698  0.92846  0.87559  1.0000
  H   H26       1.0  0.58599  0.95451  0.77442  1.0000
  H   H27       1.0  0.46257  0.18927  0.54296  1.0000
  H   H28       1.0  0.51001  0.27464  0.63322  1.0000
  H   H29       1.0  0.20048  0.07788999999999999  0.45801  1.0000
  H   H30       1.0  0.27734  0.05121999999999998  0.36735  1.0000
  H   H31       1.0  0.26767000000000013  0.8113900000000002  0.72712  1.0000
  H   H32       1.0  0.09290000000000012  0.72859  0.76414  1.0000
  C   C1        1.0  0.28593999999999997  0.20190999999999992  0.8138600000000001  1.0000
  C   C2        1.0  0.37209999999999993  0.39327  0.71731  1.0000
  C   C3        1.0  0.74857  0.83123  0.85848  1.0000
  C   C4        1.0  0.71573  0.80011  0.75168  1.0000
  C   C5        1.0  0.9846  0.79859  0.91583  1.0000
  C   C6        1.0  0.8893699999999999  0.60732  0.02095  1.0000
  C   C7        1.0  0.31197  0.17242000000000002  0.08036  1.0000
  C   C8        1.0  0.44978000000000007  0.20316  0.08233  1.0000
  C   C9        1.0  0.8189900000000001  0.10647000000000006  0.9871599999999999  1.0000
  C   C10       1.0  0.72824  0.10172000000000005  0.8908  1.0000
  C   C11       1.0  0.85405  0.60559  0.309  1.0000
  C   C12       1.0  0.74351  0.4588100000000001  0.44676  1.0000
  C   C13       1.0  0.90993  0.89486  0.28896  1.0000
  C   C14       1.0  0.012980000000000078  0.9016800000000003  0.37324  1.0000
  C   C15       1.0  0.08682000000000001  0.39632  0.75054  1.0000
  C   C16       1.0  0.09434000000000012  0.5421300000000002  0.71523  1.0000
  C   C17       1.0  0.96199  0.39441000000000004  0.34192  1.0000
  C   C18       1.0  0.87685  0.40025999999999995  0.23979000000000003  1.0000
  C   C19       1.0  0.4982400000000001  0.8940300000000001  0.16481  1.0000
  C   C20       1.0  0.53438  0.04101999999999999  0.15555  1.0000
  C   C21       1.0  0.2640599999999999  0.60593  0.43158  1.0000
  C   C22       1.0  0.35995  0.60047  0.52298  1.0000
  C   C23       1.0  0.94243  0.10604000000000005  0.39558  1.0000
  C   C24       1.0  0.8045300000000001  0.9602500000000003  0.50575  1.0000
  C   C25       1.0  0.43765000000000004  0.7051200000000001  0.96286  1.0000
  C   C26       1.0  0.53457  0.89644  0.87751  1.0000
  C   C27       1.0  0.39081  0.32996  0.50182  1.0000
  C   C28       1.0  0.49759  0.29855000000000004  0.53479  1.0000
  C   C29       1.0  0.33565  0.3002700000000001  0.26396  1.0000
  C   C30       1.0  0.23129000000000002  0.10900000000000006  0.35919  1.0000
  C   C31       1.0  0.1689300000000001  0.6718800000000001  0.9388299999999999  1.0000
  C   C32       1.0  0.16648000000000004  0.7028800000000001  0.80095  1.0000
  O   O1        1.0  0.34300999999999987  0.13785999999999987  0.8783100000000001  1.0000
  O   O2        1.0  0.16168000000000002  0.1343500000000001  0.81808  1.0000
  O   O3        1.0  0.84411  0.97835  0.81524  1.0000
  O   O4        1.0  0.6768  0.7087200000000001  0.9804899999999999  1.0000
  O   O5        1.0  0.98496  0.86301  0.79456  1.0000
  O   O6        1.0  0.04720999999999987  0.8656499999999998  0.9730300000000001  1.0000
  O   O7        1.0  0.20816  0.02543000000000001  0.13175  1.0000
  O   O8        1.0  0.31256  0.29526  0.02959  1.0000
  O   O9        1.0  0.8835  0.22785999999999998  0.98842  1.0000
  O   O10       1.0  0.8194299999999999  0.9822300000000002  0.05024  1.0000
  O   O11       1.0  0.81514  0.6641400000000001  0.20566999999999996  1.0000
  O   O12       1.0  0.9746900000000002  0.6551100000000002  0.30961  1.0000
  O   O13       1.0  0.78751  0.7740400000000001  0.3477  1.0000
  O   O14       1.0  0.97016  0.01721  0.16393  1.0000
  O   O15       1.0  0.13309000000000004  0.33915  0.84698  1.0000
  O   O16       1.0  0.03613999999999999  0.3461099999999999  0.67993  1.0000
  O   O17       1.0  0.9042600000000001  0.27361000000000013  0.46471  1.0000
  O   O18       1.0  0.08663999999999998  0.51713  0.28114  1.0000
  O   O19       1.0  0.4015000000000001  0.83634  0.11932000000000001  1.0000
  O   O20       1.0  0.56874  0.84346  0.21597  1.0000
  O   O21       1.0  0.26184  0.72683  0.36789  1.0000
  O   O22       1.0  0.20248000000000005  0.48285000000000006  0.42999  1.0000
  O   O23       1.0  0.04560000000000005  0.16392000000000007  0.43462999999999996  1.0000
  O   O24       1.0  0.9419  0.15553  0.27488  1.0000
  O   O25       1.0  0.37367999999999996  0.64254  0.9049400000000001  1.0000
  O   O26       1.0  0.43281000000000003  0.63602  0.08747  1.0000
  O   O27       1.0  0.43399000000000004  0.4771200000000001  0.40598  1.0000
  O   O28       1.0  0.2689100000000001  0.20754000000000014  0.57368  1.0000
  O   O29       1.0  0.45681  0.36469000000000007  0.26356  1.0000
  O   O30       1.0  0.27817  0.36724  0.20129  1.0000
  O   O31       1.0  0.11826000000000002  0.52495  0.04278  1.0000
  O   O32       1.0  0.21976  0.79471  0.9380300000000001  1.0000
  O   O33       1.0  0.3013100000000001  0.43147000000000013  0.6225  1.0000
  O   O34       1.0  0.8240699999999999  0.94331  0.62823  1.0000
  O   O35       1.0  0.94642  0.5692  0.1296  1.0000
  O   O36       1.0  0.42954999999999993  0.05920000000000001  0.11784000000000001  1.0000
  O   O37       1.0  0.62795  0.9329299999999999  0.9498000000000001  1.0000
  O   O38       1.0  0.6210900000000001  0.44206000000000006  0.42663999999999996  1.0000
  O   O39       1.0  0.12283  0.07074  0.30216  1.0000
  O   O40       1.0  0.12997000000000006  0.55847  0.8212499999999999  1.0000
