data_image0
_chemical_formula_structural       La4H32C72N12O32
_chemical_formula_sum              "La4 H32 C72 N12 O32"
_cell_length_a       10.81334
_cell_length_b       10.02394
_cell_length_c       20.620470000000005
_cell_angle_alpha    90.07686
_cell_angle_beta     89.87003
_cell_angle_gamma    113.34062

_symmetry_space_group_name_H-M    'P 1'
_symmetry_Int_Tables_number       1

loop_
  _symmetry_equiv_pos_as_xyz
  'x,y,z'

loop_
  _atom_site_type_symbol
  _atom_site_label
  _atom_site_symmetry_multiplicity
  _atom_site_fract_x
  _atom_site_fract_y
  _atom_site_fract_z
  _atom_site_occupancy
  La  La1       1.0  0.7914400000000001  0.75756  0.5387099999999999  1.0000
  La  La2       1.0  0.70934  0.23979  0.039339999999999986  1.0000
  La  La3       1.0  0.20857000000000003  0.24244  0.46129  1.0000
  La  La4       1.0  0.29066  0.76021  0.96066  1.0000
  H   H1        1.0  0.22681000000000007  0.79368  0.66521  1.0000
  H   H2        1.0  0.8151700000000001  0.19584  0.83839  1.0000
  H   H3        1.0  0.30143  0.50205  0.6133299999999999  1.0000
  H   H4        1.0  0.67361  0.09189  0.64103  1.0000
  H   H5        1.0  0.4024  0.91865  0.8014999999999998  1.0000
  H   H6        1.0  0.005449999999999998  0.31503  0.80073  1.0000
  H   H7        1.0  0.22133  0.47927999999999993  0.8190099999999998  1.0000
  H   H8        1.0  0.61782  0.73533  0.7465999999999999  1.0000
  H   H9        1.0  0.27471  0.20636  0.16541  1.0000
  H   H10       1.0  0.6844  0.80504  0.33793  1.0000
  H   H11       1.0  0.19932999999999998  0.49634999999999996  0.11333999999999998  1.0000
  H   H12       1.0  0.82776  0.90576  0.14039999999999997  1.0000
  H   H13       1.0  0.09742000000000002  0.08144  0.30085  1.0000
  H   H14       1.0  0.49457  0.6845299999999999  0.30061  1.0000
  H   H15       1.0  0.2773100000000001  0.52124  0.31909  1.0000
  H   H16       1.0  0.8820500000000002  0.26288  0.24680999999999995  1.0000
  H   H17       1.0  0.7732  0.20632  0.33479  1.0000
  H   H18       1.0  0.18484  0.80417  0.16161  1.0000
  H   H19       1.0  0.69857  0.49795  0.38667  1.0000
  H   H20       1.0  0.32639000000000007  0.90812  0.35897  1.0000
  H   H21       1.0  0.59761  0.08136  0.19850999999999994  1.0000
  H   H22       1.0  0.99456  0.68498  0.19927  1.0000
  H   H23       1.0  0.77867  0.52072  0.18099  1.0000
  H   H24       1.0  0.38218  0.26467  0.25341  1.0000
  H   H25       1.0  0.72529  0.79364  0.83459  1.0000
  H   H26       1.0  0.31561  0.19497  0.6620699999999999  1.0000
  H   H27       1.0  0.80068  0.50365  0.8866699999999998  1.0000
  H   H28       1.0  0.17224  0.09424999999999999  0.8595999999999999  1.0000
  H   H29       1.0  0.9025900000000001  0.91856  0.6991499999999999  1.0000
  H   H30       1.0  0.50544  0.31548  0.69939  1.0000
  H   H31       1.0  0.72269  0.47875999999999996  0.68091  1.0000
  H   H32       1.0  0.11795999999999991  0.7371299999999998  0.7531899999999999  1.0000
  C   C1        1.0  0.56843  0.6800399999999999  0.62213  1.0000
  C   C2        1.0  0.76051  0.15339  0.7366799999999998  1.0000
  C   C3        1.0  0.73677  0.14037  0.8033799999999999  1.0000
  C   C4        1.0  0.58418  0.0496  0.8981499999999999  1.0000
  C   C5        1.0  0.60806  0.05535000000000001  0.8269199999999998  1.0000
  C   C6        1.0  0.5280999999999999  0.9974999999999999  0.71689  1.0000
  C   C7        1.0  0.10288000000000001  0.3841  0.70304  1.0000
  C   C8        1.0  0.24373  0.47849  0.7144499999999999  1.0000
  C   C9        1.0  0.3352299999999999  0.53036  0.6629699999999997  1.0000
  C   C10       1.0  0.41872  0.9241  0.6688  1.0000
  C   C11       1.0  0.6565100000000001  0.08230999999999998  0.69307  1.0000
  C   C12       1.0  0.47032  0.65227  0.85931  1.0000
  C   C13       1.0  0.50327  0.98295  0.78369  1.0000
  C   C14       1.0  0.0035899999999999916  0.31618  0.74843  1.0000
  C   C15       1.0  0.4691000000000001  0.62265  0.6754799999999999  1.0000
  C   C16       1.0  0.28984  0.51858  0.7781299999999998  1.0000
  C   C17       1.0  0.51353  0.66265  0.73901  1.0000
  C   C18       1.0  0.42403000000000013  0.60892  0.79094  1.0000
  C   C19       1.0  0.9321699999999999  0.3158  0.12225  1.0000
  C   C20       1.0  0.73986  0.84611  0.23614  1.0000
  C   C21       1.0  0.76315  0.85985  0.30286  1.0000
  C   C22       1.0  0.9164600000000002  0.95223  0.3974199999999999  1.0000
  C   C23       1.0  0.8917300000000002  0.94494  0.3263  1.0000
  C   C24       1.0  0.97275  0.00137  0.21621999999999997  1.0000
  C   C25       1.0  0.3969500000000001  0.61577  0.20303  1.0000
  C   C26       1.0  0.25592999999999994  0.5211999999999999  0.21445  1.0000
  C   C27       1.0  0.16488  0.46822  0.16296  1.0000
  C   C28       1.0  0.08358000000000003  0.07336  0.16845  1.0000
  C   C29       1.0  0.8444500000000001  0.91627  0.19243  1.0000
  C   C30       1.0  0.028619999999999993  0.34746  0.35938  1.0000
  C   C31       1.0  0.9968  0.01688  0.283  1.0000
  C   C32       1.0  0.49632000000000004  0.68358  0.24829999999999994  1.0000
  C   C33       1.0  0.031059999999999987  0.37508  0.17552999999999994  1.0000
  C   C34       1.0  0.20932  0.48153  0.27816  1.0000
  C   C35       1.0  0.9862300000000002  0.33591  0.23910999999999993  1.0000
  C   C36       1.0  0.07523999999999996  0.3906299999999999  0.291  1.0000
  C   C37       1.0  0.43157  0.31996  0.37787999999999994  1.0000
  C   C38       1.0  0.23950000000000002  0.84661  0.26332  1.0000
  C   C39       1.0  0.26323  0.85963  0.19661999999999996  1.0000
  C   C40       1.0  0.4158300000000001  0.9503999999999999  0.10184999999999997  1.0000
  C   C41       1.0  0.3919499999999999  0.9446499999999999  0.17308  1.0000
  C   C42       1.0  0.47191  0.0024999999999999996  0.28311  1.0000
  C   C43       1.0  0.89713  0.61591  0.29697  1.0000
  C   C44       1.0  0.75628  0.52152  0.28555  1.0000
  C   C45       1.0  0.66478  0.46964999999999996  0.33703  1.0000
  C   C46       1.0  0.5812900000000001  0.07591  0.3312  1.0000
  C   C47       1.0  0.3435000000000001  0.91769  0.30694  1.0000
  C   C48       1.0  0.52969  0.34774  0.14069  1.0000
  C   C49       1.0  0.49674  0.01706  0.21631  1.0000
  C   C50       1.0  0.9964199999999999  0.6838299999999999  0.25157  1.0000
  C   C51       1.0  0.5309  0.37735  0.3245199999999999  1.0000
  C   C52       1.0  0.7101600000000001  0.48141999999999996  0.22187  1.0000
  C   C53       1.0  0.48647000000000007  0.33735999999999994  0.26099  1.0000
  C   C54       1.0  0.5759800000000002  0.39108999999999994  0.20905999999999994  1.0000
  C   C55       1.0  0.06783000000000003  0.68421  0.8777499999999999  1.0000
  C   C56       1.0  0.26015000000000005  0.1539  0.76386  1.0000
  C   C57       1.0  0.23686000000000001  0.14016  0.69714  1.0000
  C   C58       1.0  0.08354  0.04777  0.60258  1.0000
  C   C59       1.0  0.10828  0.055069999999999994  0.6737099999999999  1.0000
  C   C60       1.0  0.027259999999999982  0.99864  0.78378  1.0000
  C   C61       1.0  0.6030600000000002  0.38424  0.7969799999999998  1.0000
  C   C62       1.0  0.7440800000000001  0.47881  0.78555  1.0000
  C   C63       1.0  0.8351200000000001  0.53178  0.83704  1.0000
  C   C64       1.0  0.91643  0.9266500000000001  0.8315499999999999  1.0000
  C   C65       1.0  0.15556  0.08373999999999998  0.8075699999999998  1.0000
  C   C66       1.0  0.9713900000000001  0.6525499999999999  0.64062  1.0000
  C   C67       1.0  0.0032100000000000444  0.9831300000000001  0.717  1.0000
  C   C68       1.0  0.50369  0.3164199999999999  0.7517  1.0000
  C   C69       1.0  0.96895  0.62492  0.82448  1.0000
  C   C70       1.0  0.7906900000000001  0.51847  0.7218399999999999  1.0000
  C   C71       1.0  0.013779999999999959  0.6640999999999999  0.7608899999999997  1.0000
  C   C72       1.0  0.9247700000000001  0.60938  0.70901  1.0000
  N   N1        1.0  0.89105  0.24157  0.71332  1.0000
  N   N2        1.0  0.91856  0.26163  0.64798  1.0000
  N   N3        1.0  0.046490000000000004  0.34742  0.6423599999999999  1.0000
  N   N4        1.0  0.6090800000000001  0.75795  0.21301  1.0000
  N   N5        1.0  0.58154  0.73771  0.14773  1.0000
  N   N6        1.0  0.45353  0.65223  0.14229  1.0000
  N   N7        1.0  0.10896  0.75844  0.28668999999999994  1.0000
  N   N8        1.0  0.08145  0.73838  0.35201999999999994  1.0000
  N   N9        1.0  0.95351  0.65259  0.35764  1.0000
  N   N10       1.0  0.39093  0.24205999999999997  0.78699  1.0000
  N   N11       1.0  0.41847  0.26228999999999997  0.8522799999999999  1.0000
  N   N12       1.0  0.54647  0.34777  0.85771  1.0000
  O   O1        1.0  0.59142  0.71863  0.87355  1.0000
  O   O2        1.0  0.5507800000000002  0.61366  0.5673099999999999  1.0000
  O   O3        1.0  0.30256  0.8410299999999999  0.6978299999999998  1.0000
  O   O4        1.0  0.67998  0.13259  0.9344299999999998  1.0000
  O   O5        1.0  0.6762700000000001  0.7942  0.6329199999999998  1.0000
  O   O6        1.0  0.4360200000000001  0.94007  0.6100499999999999  1.0000
  O   O7        1.0  0.3741  0.61992  0.9028799999999999  1.0000
  O   O8        1.0  0.46967  0.9657  0.92074  1.0000
  O   O9        1.0  0.90744  0.28092  0.3736499999999999  1.0000
  O   O10       1.0  0.94972  0.38199999999999995  0.06744  1.0000
  O   O11       1.0  0.19813000000000003  0.15935999999999997  0.19778999999999997  1.0000
  O   O12       1.0  0.82269  0.86781  0.43436  1.0000
  O   O13       1.0  0.8248400000000001  0.20075  0.13290999999999997  1.0000
  O   O14       1.0  0.06903999999999999  0.05357  0.10977  1.0000
  O   O15       1.0  0.12476  0.38045  0.40286  1.0000
  O   O16       1.0  0.03041  0.03949  0.41905999999999993  1.0000
  O   O17       1.0  0.40859  0.28138  0.12645  1.0000
  O   O18       1.0  0.44923000000000013  0.38634  0.43269  1.0000
  O   O19       1.0  0.69745  0.15897999999999998  0.3021699999999999  1.0000
  O   O20       1.0  0.32003  0.86741  0.06557  1.0000
  O   O21       1.0  0.32374  0.2058  0.36707999999999996  1.0000
  O   O22       1.0  0.56399  0.05994  0.38995  1.0000
  O   O23       1.0  0.6259000000000001  0.38008  0.09712  1.0000
  O   O24       1.0  0.5303400000000001  0.03431  0.07925999999999998  1.0000
  O   O25       1.0  0.09256  0.71909  0.6263499999999999  1.0000
  O   O26       1.0  0.05028999999999997  0.61801  0.93256  1.0000
  O   O27       1.0  0.80188  0.84065  0.80221  1.0000
  O   O28       1.0  0.17732  0.1322  0.5656499999999999  1.0000
  O   O29       1.0  0.17517  0.79926  0.8670899999999998  1.0000
  O   O30       1.0  0.93096  0.9464399999999998  0.8902299999999997  1.0000
  O   O31       1.0  0.8752500000000001  0.61955  0.5971399999999999  1.0000
  O   O32       1.0  0.9696  0.96051  0.58094  1.0000
