data_image0
_chemical_formula_structural       Na4Zn4H32C48O28
_chemical_formula_sum              "Na4 Zn4 H32 C48 O28"
_cell_length_a       9.06081
_cell_length_b       10.06924
_cell_length_c       19.20656
_cell_angle_alpha    89.87878000000002
_cell_angle_beta     89.86042
_cell_angle_gamma    100.48975

_space_group_name_H-M_alt    "P 1"
_space_group_IT_number       1

loop_
  _space_group_symop_operation_xyz
  'x, y, z'

loop_
  _atom_site_type_symbol
  _atom_site_label
  _atom_site_symmetry_multiplicity
  _atom_site_fract_x
  _atom_site_fract_y
  _atom_site_fract_z
  _atom_site_occupancy
  Na  Na1       1.0  0.86677  0.6130199999999999  0.46536  1.0000
  Na  Na2       1.0  0.12596  0.89349  0.9722200000000001  1.0000
  Na  Na3       1.0  0.13323999999999997  0.38697999999999994  0.53464  1.0000
  Na  Na4       1.0  0.87405  0.10651  0.027780000000000003  1.0000
  Zn  Zn1       1.0  0.63414  0.51819  0.60597  1.0000
  Zn  Zn2       1.0  0.36605  0.9782  0.10679  1.0000
  Zn  Zn3       1.0  0.36588  0.48181  0.39404  1.0000
  Zn  Zn4       1.0  0.63396  0.0218  0.8932200000000001  1.0000
  H   H1        1.0  0.7311699999999999  0.33836  0.52752  1.0000
  H   H2        1.0  0.59901  0.38495  0.48471  1.0000
  H   H3        1.0  0.9004399999999999  0.752  0.74304  1.0000
  H   H4        1.0  0.08034  0.8705899999999999  0.83036  1.0000
  H   H5        1.0  0.44501999999999997  0.73778  0.72405  1.0000
  H   H6        1.0  0.26486999999999994  0.61856  0.63662  1.0000
  H   H7        1.0  0.37333999999999995  0.8322599999999999  0.58629  1.0000
  H   H8        1.0  0.74374  0.9707599999999997  0.44758  1.0000
  H   H9        1.0  0.28341  0.17267  0.03421  1.0000
  H   H10       1.0  0.40047  0.11654999999999997  0.98633  1.0000
  H   H11       1.0  0.09538999999999995  0.7441099999999999  0.24402  1.0000
  H   H12       1.0  0.91103  0.62469  0.3297  1.0000
  H   H13       1.0  0.55299  0.76527  0.22203  1.0000
  H   H14       1.0  0.73814  0.8830999999999999  0.13533  1.0000
  H   H15       1.0  0.62796  0.66597  0.08611  1.0000
  H   H16       1.0  0.25644  0.53114  0.9488200000000001  1.0000
  H   H17       1.0  0.26884  0.6616399999999999  0.47248  1.0000
  H   H18       1.0  0.40099999999999997  0.61505  0.51529  1.0000
  H   H19       1.0  0.09957  0.24801  0.25696  1.0000
  H   H20       1.0  0.91967  0.12940999999999997  0.16964  1.0000
  H   H21       1.0  0.555  0.26222  0.27595  1.0000
  H   H22       1.0  0.73514  0.38144  0.36338  1.0000
  H   H23       1.0  0.62667  0.16773999999999997  0.41371  1.0000
  H   H24       1.0  0.25627  0.02923999999999999  0.55242  1.0000
  H   H25       1.0  0.7166  0.82733  0.96579  1.0000
  H   H26       1.0  0.59954  0.8834499999999998  0.013670000000000002  1.0000
  H   H27       1.0  0.9046199999999999  0.25589  0.75598  1.0000
  H   H28       1.0  0.08897999999999998  0.37530999999999987  0.6703  1.0000
  H   H29       1.0  0.44702  0.23473  0.77797  1.0000
  H   H30       1.0  0.26187999999999995  0.11689999999999999  0.86467  1.0000
  H   H31       1.0  0.37205  0.33404  0.9138999999999999  1.0000
  H   H32       1.0  0.74357  0.46886  0.05118  1.0000
  C   C1        1.0  0.95834  0.60167  0.6343  1.0000
  C   C2        1.0  0.07058999999999999  0.6765699999999999  0.68463  1.0000
  C   C3        1.0  0.01938  0.74829  0.73964  1.0000
  C   C4        1.0  0.11985999999999997  0.8130199999999999  0.78866  1.0000
  C   C5        1.0  0.27351  0.80832  0.784  1.0000
  C   C6        1.0  0.32558999999999994  0.7396899999999998  0.72815  1.0000
  C   C7        1.0  0.2246  0.67405  0.67902  1.0000
  C   C8        1.0  0.37734  0.87728  0.8387  1.0000
  C   C9        1.0  0.6358  0.77061  0.53602  1.0000
  C   C10       1.0  0.56491  0.8889299999999999  0.51815  1.0000
  C   C11       1.0  0.42733  0.90484  0.54789  1.0000
  C   C12       1.0  0.63755  0.98484  0.47033  1.0000
  C   C13       1.0  0.04213999999999998  0.8965599999999999  0.13522  1.0000
  C   C14       1.0  0.9284900000000001  0.82216  0.18492  1.0000
  C   C15       1.0  0.9768799999999999  0.74908  0.24005000000000004  1.0000
  C   C16       1.0  0.8737100000000001  0.68453  0.28835  1.0000
  C   C17       1.0  0.72083  0.6917  0.28278  1.0000
  C   C18       1.0  0.6719  0.7617199999999997  0.22664  1.0000
  C   C19       1.0  0.77534  0.8264499999999999  0.17804  1.0000
  C   C20       1.0  0.61339  0.62414  0.33663  1.0000
  C   C21       1.0  0.36489  0.72926  0.03711  1.0000
  C   C22       1.0  0.4354700000000001  0.611  0.01874  1.0000
  C   C23       1.0  0.57315  0.5942399999999999  0.04782  1.0000
  C   C24       1.0  0.3625  0.5159999999999999  0.97102  1.0000
  C   C25       1.0  0.041669999999999985  0.3983399999999999  0.36571  1.0000
  C   C26       1.0  0.92942  0.32343  0.31537  1.0000
  C   C27       1.0  0.9806299999999999  0.25171  0.26036  1.0000
  C   C28       1.0  0.88015  0.18698  0.21134  1.0000
  C   C29       1.0  0.7265  0.19167999999999993  0.216  1.0000
  C   C30       1.0  0.67442  0.26031  0.27185  1.0000
  C   C31       1.0  0.77541  0.32595  0.32099  1.0000
  C   C32       1.0  0.62267  0.12272  0.16131  1.0000
  C   C33       1.0  0.36421  0.22938999999999996  0.46398  1.0000
  C   C34       1.0  0.4351  0.11106999999999999  0.48185  1.0000
  C   C35       1.0  0.57268  0.09515999999999998  0.45210999999999996  1.0000
  C   C36       1.0  0.36246  0.01516  0.52967  1.0000
  C   C37       1.0  0.9578699999999999  0.10344  0.8647799999999999  1.0000
  C   C38       1.0  0.07152  0.17785  0.81508  1.0000
  C   C39       1.0  0.023129999999999998  0.25092  0.75995  1.0000
  C   C40       1.0  0.12629999999999997  0.31546999999999986  0.71165  1.0000
  C   C41       1.0  0.27918  0.3083  0.71722  1.0000
  C   C42       1.0  0.32812  0.23828  0.77337  1.0000
  C   C43       1.0  0.22467  0.17355  0.82196  1.0000
  C   C44       1.0  0.38662  0.37586  0.66337  1.0000
  C   C45       1.0  0.63512  0.2707399999999999  0.96289  1.0000
  C   C46       1.0  0.56454  0.389  0.98126  1.0000
  C   C47       1.0  0.42686  0.40576  0.95218  1.0000
  C   C48       1.0  0.63751  0.484  0.028980000000000002  1.0000
  O   O1        1.0  0.0005200000000000017  0.55176  0.57875  1.0000
  O   O2        1.0  0.82087  0.5932  0.65359  1.0000
  O   O3        1.0  0.51881  0.9065099999999999  0.82273  1.0000
  O   O4        1.0  0.3259099999999999  0.9063199999999998  0.8965  1.0000
  O   O5        1.0  0.77152  0.77366  0.52495  1.0000
  O   O6        1.0  0.54378  0.66576  0.56287  1.0000
  O   O7        1.0  0.68696  0.41722  0.51738  1.0000
  O   O8        1.0  0.0008399999999999782  0.9435699999999999  0.07867  1.0000
  O   O9        1.0  0.17890999999999999  0.90805  0.15597  1.0000
  O   O10       1.0  0.47332  0.5936  0.31929  1.0000
  O   O11       1.0  0.66003  0.5971  0.39584  1.0000
  O   O12       1.0  0.22882  0.72668  0.027819999999999998  1.0000
  O   O13       1.0  0.4582  0.8341899999999999  0.06278  1.0000
  O   O14       1.0  0.3142  0.08871999999999997  0.02071  1.0000
  O   O15       1.0  0.99949  0.44824  0.42125  1.0000
  O   O16       1.0  0.17914  0.40680999999999995  0.34642  1.0000
  O   O17       1.0  0.48119999999999996  0.09349  0.17727  1.0000
  O   O18       1.0  0.6741  0.09368  0.1035  1.0000
  O   O19       1.0  0.22849  0.22634  0.47505  1.0000
  O   O20       1.0  0.45623  0.33424  0.43714  1.0000
  O   O21       1.0  0.31305  0.58279  0.48262  1.0000
  O   O22       1.0  0.99917  0.05644  0.92134  1.0000
  O   O23       1.0  0.8211  0.09194999999999999  0.84404  1.0000
  O   O24       1.0  0.52669  0.4064  0.68071  1.0000
  O   O25       1.0  0.33998  0.40289999999999987  0.60416  1.0000
  O   O26       1.0  0.77119  0.27332  0.9721800000000002  1.0000
  O   O27       1.0  0.54181  0.16582  0.93722  1.0000
  O   O28       1.0  0.68581  0.91128  0.9793  1.0000
