data_image0
_chemical_formula_structural       Zn8H40C56N8O24
_chemical_formula_sum              "Zn8 H40 C56 N8 O24"
_cell_length_a       4.97969
_cell_length_b       16.98433
_cell_length_c       17.17305
_cell_angle_alpha    89.99955
_cell_angle_beta     90.0
_cell_angle_gamma    90.0

_symmetry_space_group_name_H-M    'P 1'
_symmetry_Int_Tables_number       1

loop_
  _symmetry_equiv_pos_as_xyz
  'x,y,z'

loop_
  _atom_site_type_symbol
  _atom_site_label
  _atom_site_symmetry_multiplicity
  _atom_site_fract_x
  _atom_site_fract_y
  _atom_site_fract_z
  _atom_site_occupancy
  Zn  Zn1       1.0  0.8851300000000001  0.91085  0.65476  1.0000
  Zn  Zn2       1.0  0.38223  0.8359199999999999  0.5837899999999999  1.0000
  Zn  Zn3       1.0  0.8851300000000001  0.08915  0.34525  1.0000
  Zn  Zn4       1.0  0.38223  0.16408  0.41621  1.0000
  Zn  Zn5       1.0  0.8851300000000001  0.41085  0.84525  1.0000
  Zn  Zn6       1.0  0.38223  0.3359299999999999  0.91621  1.0000
  Zn  Zn7       1.0  0.8851300000000001  0.5891499999999997  0.15476  1.0000
  Zn  Zn8       1.0  0.38223  0.66408  0.08379  1.0000
  H   H1        1.0  0.34303  0.05719999999999999  0.58284  1.0000
  H   H2        1.0  0.54141  0.00479  0.64968  1.0000
  H   H3        1.0  0.44656  0.14917  0.71974  1.0000
  H   H4        1.0  0.75264  0.13121  0.86741  1.0000
  H   H5        1.0  0.62586  0.00535  0.79421  1.0000
  H   H6        1.0  0.03654  0.84732  0.48962  1.0000
  H   H7        1.0  0.8443  0.9194399999999998  0.44198  1.0000
  H   H8        1.0  0.94033  0.7889099999999998  0.34204  1.0000
  H   H9        1.0  0.24631  0.63853  0.34956  1.0000
  H   H10       1.0  0.11993  0.70342  0.4788  1.0000
  H   H11       1.0  0.34303  0.9428099999999999  0.41717  1.0000
  H   H12       1.0  0.54141  0.99522  0.35032  1.0000
  H   H13       1.0  0.44656  0.85084  0.28025999999999995  1.0000
  H   H14       1.0  0.75264  0.8688  0.13259  1.0000
  H   H15       1.0  0.62586  0.99466  0.2058  1.0000
  H   H16       1.0  0.03654  0.15268  0.51038  1.0000
  H   H17       1.0  0.8443  0.08056999999999997  0.55802  1.0000
  H   H18       1.0  0.94033  0.21108999999999994  0.65796  1.0000
  H   H19       1.0  0.24631  0.36148  0.65044  1.0000
  H   H20       1.0  0.11993  0.29658  0.52121  1.0000
  H   H21       1.0  0.34302000000000005  0.55721  0.91716  1.0000
  H   H22       1.0  0.54141  0.5048  0.85032  1.0000
  H   H23       1.0  0.44656  0.64918  0.78024  1.0000
  H   H24       1.0  0.75265  0.63121  0.63258  1.0000
  H   H25       1.0  0.62584  0.50535  0.7058  1.0000
  H   H26       1.0  0.03653  0.34732  0.01037  1.0000
  H   H27       1.0  0.84428  0.41943  0.05801  1.0000
  H   H28       1.0  0.9403100000000001  0.2889199999999999  0.15795  1.0000
  H   H29       1.0  0.24630000000000002  0.13853  0.15045  1.0000
  H   H30       1.0  0.11993  0.20340999999999995  0.0212  1.0000
  H   H31       1.0  0.34302000000000005  0.4428  0.08284  1.0000
  H   H32       1.0  0.54141  0.49520999999999993  0.14969  1.0000
  H   H33       1.0  0.44656  0.35083  0.21977  1.0000
  H   H34       1.0  0.75265  0.36879999999999996  0.36743  1.0000
  H   H35       1.0  0.62584  0.49465  0.29421  1.0000
  H   H36       1.0  0.03653  0.65269  0.9896299999999999  1.0000
  H   H37       1.0  0.84428  0.58057  0.9419899999999999  1.0000
  H   H38       1.0  0.9403100000000001  0.71109  0.84205  1.0000
  H   H39       1.0  0.24630000000000002  0.86148  0.84956  1.0000
  H   H40       1.0  0.11993  0.7966  0.9788  1.0000
  C   C1        1.0  0.32961  0.01321  0.63012  1.0000
  C   C2        1.0  0.17851  0.04990999999999999  0.69826  1.0000
  C   C3        1.0  0.27118  0.11672  0.73915  1.0000
  C   C4        1.0  0.11703000000000001  0.14446999999999993  0.80186  1.0000
  C   C5        1.0  0.8771500000000001  0.10678999999999997  0.82134  1.0000
  C   C6        1.0  0.79859  0.04123  0.77925  1.0000
  C   C7        1.0  0.19326000000000002  0.21541  0.84832  1.0000
  C   C8        1.0  0.8260200000000001  0.8687199999999998  0.48197000000000007  1.0000
  C   C9        1.0  0.67224  0.80328  0.44126999999999994  1.0000
  C   C10       1.0  0.7649  0.76681  0.37254  1.0000
  C   C11       1.0  0.61196  0.7051399999999999  0.34108  1.0000
  C   C12       1.0  0.37127  0.6832499999999998  0.37675  1.0000
  C   C13       1.0  0.29244  0.7212199999999998  0.44439  1.0000
  C   C14       1.0  0.6956800000000001  0.66191  0.26947  1.0000
  C   C15       1.0  0.32961  0.9867899999999998  0.36989  1.0000
  C   C16       1.0  0.17851  0.95009  0.30174  1.0000
  C   C17       1.0  0.27118  0.8832899999999998  0.26086  1.0000
  C   C18       1.0  0.11703000000000001  0.8555299999999998  0.19815  1.0000
  C   C19       1.0  0.8771500000000001  0.89322  0.17867  1.0000
  C   C20       1.0  0.79859  0.95878  0.22075  1.0000
  C   C21       1.0  0.19326000000000002  0.7846  0.15169  1.0000
  C   C22       1.0  0.8260200000000001  0.13129  0.51804  1.0000
  C   C23       1.0  0.67224  0.19672999999999993  0.55873  1.0000
  C   C24       1.0  0.7649  0.23318999999999995  0.6274599999999999  1.0000
  C   C25       1.0  0.61196  0.29487  0.65892  1.0000
  C   C26       1.0  0.37127  0.31675999999999993  0.62325  1.0000
  C   C27       1.0  0.29244  0.27879  0.55561  1.0000
  C   C28       1.0  0.6956800000000001  0.3380999999999999  0.73053  1.0000
  C   C29       1.0  0.3296  0.51322  0.86988  1.0000
  C   C30       1.0  0.17851  0.54992  0.8017399999999999  1.0000
  C   C31       1.0  0.27119  0.61672  0.76084  1.0000
  C   C32       1.0  0.11703000000000001  0.64447  0.69814  1.0000
  C   C33       1.0  0.87716  0.60679  0.67865  1.0000
  C   C34       1.0  0.79859  0.54123  0.72074  1.0000
  C   C35       1.0  0.19327  0.71541  0.65169  1.0000
  C   C36       1.0  0.8260200000000001  0.36871  0.01803  1.0000
  C   C37       1.0  0.67224  0.30327  0.05872000000000001  1.0000
  C   C38       1.0  0.76489  0.2668099999999999  0.12745  1.0000
  C   C39       1.0  0.61195  0.20513  0.15892  1.0000
  C   C40       1.0  0.37126000000000003  0.18325  0.12325  1.0000
  C   C41       1.0  0.29244  0.22121  0.05561  1.0000
  C   C42       1.0  0.6956800000000001  0.16191  0.23053  1.0000
  C   C43       1.0  0.3296  0.48678999999999994  0.13012  1.0000
  C   C44       1.0  0.17851  0.4500899999999999  0.19827  1.0000
  C   C45       1.0  0.27119  0.38329  0.23915999999999998  1.0000
  C   C46       1.0  0.11703000000000001  0.3555399999999999  0.30186  1.0000
  C   C47       1.0  0.87716  0.39322  0.32135  1.0000
  C   C48       1.0  0.79859  0.45876999999999996  0.27926  1.0000
  C   C49       1.0  0.19327  0.28459  0.34831  1.0000
  C   C50       1.0  0.8260200000000001  0.6313  0.9819800000000001  1.0000
  C   C51       1.0  0.67224  0.69673  0.94128  1.0000
  C   C52       1.0  0.76489  0.7332  0.87255  1.0000
  C   C53       1.0  0.61195  0.7948699999999997  0.84108  1.0000
  C   C54       1.0  0.37127  0.8167599999999999  0.8767499999999999  1.0000
  C   C55       1.0  0.29244  0.7788  0.9444000000000001  1.0000
  C   C56       1.0  0.6956800000000001  0.8381  0.76948  1.0000
  N   N1        1.0  0.95012  0.013989999999999997  0.71889  1.0000
  N   N2        1.0  0.44433  0.77998  0.47577  1.0000
  N   N3        1.0  0.95012  0.98602  0.28111  1.0000
  N   N4        1.0  0.44433  0.22001999999999997  0.52424  1.0000
  N   N5        1.0  0.95011  0.514  0.78111  1.0000
  N   N6        1.0  0.44432  0.27997  0.02423  1.0000
  N   N7        1.0  0.95011  0.48600999999999994  0.21889  1.0000
  N   N8        1.0  0.44432  0.72003  0.9757799999999999  1.0000
  O   O1        1.0  0.21238  0.94444  0.60194  1.0000
  O   O2        1.0  0.41464000000000006  0.25011999999999995  0.83193  1.0000
  O   O3        1.0  0.03943  0.23833  0.9026199999999999  1.0000
  O   O4        1.0  0.70696  0.89226  0.55133  1.0000
  O   O5        1.0  0.92102  0.6790299999999998  0.23823  1.0000
  O   O6        1.0  0.54491  0.6076  0.24284999999999998  1.0000
  O   O7        1.0  0.21238  0.05557  0.39806  1.0000
  O   O8        1.0  0.41464000000000006  0.74988  0.16808  1.0000
  O   O9        1.0  0.03943  0.76168  0.09738  1.0000
  O   O10       1.0  0.70696  0.10773999999999997  0.44867  1.0000
  O   O11       1.0  0.92102  0.3209799999999999  0.76178  1.0000
  O   O12       1.0  0.54491  0.3924  0.75715  1.0000
  O   O13       1.0  0.21238  0.44444  0.89807  1.0000
  O   O14       1.0  0.4146500000000001  0.75013  0.66808  1.0000
  O   O15       1.0  0.03943  0.73834  0.59739  1.0000
  O   O16       1.0  0.70696  0.3922699999999999  0.94867  1.0000
  O   O17       1.0  0.9210099999999999  0.17902999999999994  0.26178  1.0000
  O   O18       1.0  0.54491  0.1076  0.25715  1.0000
  O   O19       1.0  0.21238  0.55556  0.10193999999999999  1.0000
  O   O20       1.0  0.4146500000000001  0.24988  0.33192  1.0000
  O   O21       1.0  0.03943  0.26167  0.40261  1.0000
  O   O22       1.0  0.70696  0.6077399999999998  0.05133  1.0000
  O   O23       1.0  0.9210099999999999  0.82097  0.73823  1.0000
  O   O24       1.0  0.54491  0.8924099999999998  0.74285  1.0000
