data_image0
_chemical_formula_structural       Zn4H32C56N32O24
_chemical_formula_sum              "Zn4 H32 C56 N32 O24"
_cell_length_a       9.42892
_cell_length_b       14.79447
_cell_length_c       18.58796
_cell_angle_alpha    90.03956999999998
_cell_angle_beta     93.09615
_cell_angle_gamma    89.64111000000001

_space_group_name_H-M_alt    "P 1"
_space_group_IT_number       1

loop_
  _space_group_symop_operation_xyz
  'x, y, z'

loop_
  _atom_site_type_symbol
  _atom_site_label
  _atom_site_symmetry_multiplicity
  _atom_site_fract_x
  _atom_site_fract_y
  _atom_site_fract_z
  _atom_site_occupancy
  Zn  Zn1       1.0  0.18849  0.99405  0.24176999999999998  1.0000
  Zn  Zn2       1.0  0.68829  0.50633  0.242  1.0000
  Zn  Zn3       1.0  0.31171  0.49367  0.758  1.0000
  Zn  Zn4       1.0  0.81152  0.00595  0.75823  1.0000
  H   H1        1.0  0.8456400000000001  0.6201699999999999  0.04658  1.0000
  H   H2        1.0  0.62688  0.20105  0.60128  1.0000
  H   H3        1.0  0.95922  0.68168  0.24729  1.0000
  H   H4        1.0  0.10767  0.71782  0.76619  1.0000
  H   H5        1.0  0.65535  0.12055  0.95646  1.0000
  H   H6        1.0  0.84461  0.2901  0.08337  1.0000
  H   H7        1.0  0.58019  0.40248  0.09161  1.0000
  H   H8        1.0  0.15436  0.37983  0.95342  1.0000
  H   H9        1.0  0.04078  0.31832  0.75271  1.0000
  H   H10       1.0  0.5725799999999999  0.60475  0.38658999999999993  1.0000
  H   H11       1.0  0.32375  0.11445  0.45482  1.0000
  H   H12       1.0  0.15539  0.7099  0.91663  1.0000
  H   H13       1.0  0.12394  0.29454  0.59882  1.0000
  H   H14       1.0  0.60501  0.78202  0.76756  1.0000
  H   H15       1.0  0.54443  0.17997  0.75536  1.0000
  H   H16       1.0  0.3498500000000001  0.2167  0.07782  1.0000
  H   H17       1.0  0.92328  0.10301  0.61163  1.0000
  H   H18       1.0  0.41982  0.59752  0.90839  1.0000
  H   H19       1.0  0.8923400000000001  0.28218  0.23380999999999996  1.0000
  H   H20       1.0  0.34466000000000013  0.8794499999999998  0.043539999999999995  1.0000
  H   H21       1.0  0.8760700000000001  0.70546  0.4011799999999999  1.0000
  H   H22       1.0  0.65016  0.7833  0.92218  1.0000
  H   H23       1.0  0.17596  0.6128  0.5461399999999998  1.0000
  H   H24       1.0  0.6762500000000004  0.88555  0.54518  1.0000
  H   H25       1.0  0.37312000000000006  0.79895  0.3987199999999999  1.0000
  H   H26       1.0  0.9248200000000001  0.90261  0.90919  1.0000
  H   H27       1.0  0.07518  0.09739  0.09081  1.0000
  H   H28       1.0  0.07672  0.89699  0.38837  1.0000
  H   H29       1.0  0.42743000000000003  0.39525  0.6134099999999999  1.0000
  H   H30       1.0  0.45558  0.82003  0.24464  1.0000
  H   H31       1.0  0.8240400000000002  0.38719999999999993  0.45386  1.0000
  H   H32       1.0  0.395  0.21798  0.23243  1.0000
  C   C1        1.0  0.54369  0.37236  0.14024  1.0000
  C   C2        1.0  0.43144  0.01041  0.06506  1.0000
  C   C3        1.0  0.56418  0.00734  0.57009  1.0000
  C   C4        1.0  0.4934200000000001  0.75418  0.2629099999999999  1.0000
  C   C5        1.0  0.96092  0.87259  0.86031  1.0000
  C   C6        1.0  0.5990100000000004  0.9355699999999998  0.52493  1.0000
  C   C7        1.0  0.91401  0.5681099999999999  0.02546  1.0000
  C   C8        1.0  0.45631000000000005  0.62764  0.85976  1.0000
  C   C9        1.0  0.4811300000000001  0.92033  0.95937  1.0000
  C   C10       1.0  0.058230000000000004  0.8576299999999999  0.33966  1.0000
  C   C11       1.0  0.96485  0.42711  0.54404  1.0000
  C   C12       1.0  0.44722000000000006  0.27814  0.21421  1.0000
  C   C13       1.0  0.86249  0.4792999999999999  0.1355  1.0000
  C   C14       1.0  0.58214  0.84839  0.4109899999999999  1.0000
  C   C15       1.0  0.9417700000000001  0.14237  0.66034  1.0000
  C   C16       1.0  0.055580000000000004  0.77806  0.78517  1.0000
  C   C17       1.0  0.0034299999999999964  0.25246  0.73489  1.0000
  C   C18       1.0  0.4358300000000001  0.9926599999999998  0.42991  1.0000
  C   C19       1.0  0.03515  0.57289  0.45596  1.0000
  C   C20       1.0  0.44541  0.3561  0.66226  1.0000
  C   C21       1.0  0.019110000000000005  0.41847  0.03902  1.0000
  C   C22       1.0  0.56856  0.98959  0.93494  1.0000
  C   C23       1.0  0.94429  0.66758  0.9207899999999999  1.0000
  C   C24       1.0  0.93259  0.48804  0.06514  1.0000
  C   C25       1.0  0.13752  0.5207  0.8644999999999999  1.0000
  C   C26       1.0  0.3692100000000001  0.98782  0.35464999999999997  1.0000
  C   C27       1.0  0.08330000000000003  0.65059  0.41159  1.0000
  C   C28       1.0  0.93577  0.50811  0.42991999999999997  1.0000
  C   C29       1.0  0.086  0.43189  0.9745399999999999  1.0000
  C   C30       1.0  0.13084  0.48702  0.6453199999999998  1.0000
  C   C31       1.0  0.03907999999999999  0.12741  0.13968999999999998  1.0000
  C   C32       1.0  0.94443  0.22194  0.21482999999999994  1.0000
  C   C33       1.0  0.50658  0.24582  0.7370899999999999  1.0000
  C   C34       1.0  0.35977  0.018899999999999993  0.13499  1.0000
  C   C35       1.0  0.9013000000000001  0.43632  0.47468  1.0000
  C   C36       1.0  0.46449  0.07295  0.54448  1.0000
  C   C37       1.0  0.98089  0.5815299999999998  0.96098  1.0000
  C   C38       1.0  0.86916  0.51298  0.35468  1.0000
  C   C39       1.0  0.41786000000000006  0.15161  0.5890099999999999  1.0000
  C   C40       1.0  0.6307900000000002  0.01219  0.64535  1.0000
  C   C41       1.0  0.06741  0.51196  0.9348599999999999  1.0000
  C   C42       1.0  0.64023  0.9811  0.86501  1.0000
  C   C43       1.0  0.9167000000000001  0.3494099999999999  0.5883999999999998  1.0000
  C   C44       1.0  0.51888  0.07967  0.04063  1.0000
  C   C45       1.0  0.99657  0.74754  0.26511  1.0000
  C   C46       1.0  0.55704  0.16251  0.08391  1.0000
  C   C47       1.0  0.09870000000000002  0.56368  0.5253099999999999  1.0000
  C   C48       1.0  0.055720000000000006  0.33242  0.07920999999999999  1.0000
  C   C49       1.0  0.55279  0.7218599999999998  0.7857899999999998  1.0000
  C   C50       1.0  0.06423999999999999  0.4918899999999999  0.5700799999999999  1.0000
  C   C51       1.0  0.40099  0.06443  0.47506999999999994  1.0000
  C   C52       1.0  0.5868000000000001  0.06822  0.97621  1.0000
  C   C53       1.0  0.4429600000000001  0.83749  0.9160899999999998  1.0000
  C   C54       1.0  0.4132  0.93178  0.02379  1.0000
  C   C55       1.0  0.55459  0.6438999999999998  0.33773999999999993  1.0000
  C   C56       1.0  0.53551  0.92705  0.4555199999999999  1.0000
  N   N1        1.0  0.008659999999999996  0.84767  0.74686  1.0000
  N   N2        1.0  0.5237  0.7083  0.85703  1.0000
  N   N3        1.0  0.028070000000000008  0.79136  0.8567  1.0000
  N   N4        1.0  0.9479  0.2689  0.08667  1.0000
  N   N5        1.0  0.9913500000000001  0.15233  0.25314  1.0000
  N   N6        1.0  0.08007  0.88323  0.27313  1.0000
  N   N7        1.0  0.9593900000000001  0.18572  0.77437  1.0000
  N   N8        1.0  0.9199400000000002  0.11677  0.72687  1.0000
  N   N9        1.0  0.53882  0.68713  0.22371999999999997  1.0000
  N   N10       1.0  0.4611800000000001  0.31288  0.7762799999999997  1.0000
  N   N11       1.0  0.97193  0.20864  0.1433  1.0000
  N   N12       1.0  0.52228  0.21661  0.60583  1.0000
  N   N13       1.0  0.01877000000000001  0.28183  0.60409  1.0000
  N   N14       1.0  0.052099999999999994  0.7311  0.91333  1.0000
  N   N15       1.0  0.005079999999999996  0.7723  0.33701999999999993  1.0000
  N   N16       1.0  0.05212000000000001  0.09328  0.20542  1.0000
  N   N17       1.0  0.54486  0.76833  0.91393  1.0000
  N   N18       1.0  0.45514000000000004  0.23166999999999993  0.08606  1.0000
  N   N19       1.0  0.9949300000000001  0.2277  0.66298  1.0000
  N   N20       1.0  0.04062000000000002  0.81428  0.22563  1.0000
  N   N21       1.0  0.49327  0.34716  0.25318  1.0000
  N   N22       1.0  0.5781400000000001  0.61807  0.27142  1.0000
  N   N23       1.0  0.49936  0.2706  0.66509  1.0000
  N   N24       1.0  0.94789  0.90672  0.79458  1.0000
  N   N25       1.0  0.5550200000000002  0.40608  0.20613  1.0000
  N   N26       1.0  0.47772  0.7834  0.39417  1.0000
  N   N27       1.0  0.44498000000000004  0.59392  0.7938699999999999  1.0000
  N   N28       1.0  0.47630000000000006  0.2917  0.14297  1.0000
  N   N29       1.0  0.42187  0.38194  0.72858  1.0000
  N   N30       1.0  0.5006400000000001  0.7294  0.33490999999999993  1.0000
  N   N31       1.0  0.9812400000000002  0.71817  0.3959099999999999  1.0000
  N   N32       1.0  0.50673  0.65284  0.74681  1.0000
  O   O1        1.0  0.10701999999999995  0.58676  0.8242999999999998  1.0000
  O   O2        1.0  0.27137  0.95567  0.14926  1.0000
  O   O3        1.0  0.7064100000000001  0.83615  0.39651  1.0000
  O   O4        1.0  0.29359  0.16384999999999994  0.60349  1.0000
  O   O5        1.0  0.8929900000000002  0.41324  0.17569999999999997  1.0000
  O   O6        1.0  0.82052  0.68628  0.90197  1.0000
  O   O7        1.0  0.22942  0.45872  0.85085  1.0000
  O   O8        1.0  0.25604999999999994  0.03597  0.34151999999999993  1.0000
  O   O9        1.0  0.61435  0.91381  0.8254199999999999  1.0000
  O   O10       1.0  0.3856600000000001  0.08619  0.17458  1.0000
  O   O11       1.0  0.07834000000000003  0.43598  0.69063  1.0000
  O   O12       1.0  0.42234  0.9365199999999998  0.30936  1.0000
  O   O13       1.0  0.7705899999999999  0.54128  0.14915  1.0000
  O   O14       1.0  0.92166  0.5640199999999997  0.30936  1.0000
  O   O15       1.0  0.7439500000000001  0.96403  0.65848  1.0000
  O   O16       1.0  0.75694  0.46465  0.34149999999999997  1.0000
  O   O17       1.0  0.72863  0.04433  0.85074  1.0000
  O   O18       1.0  0.79255  0.34041  0.60377  1.0000
  O   O19       1.0  0.5776700000000002  0.06349  0.69064  1.0000
  O   O20       1.0  0.20744999999999997  0.65959  0.39623  1.0000
  O   O21       1.0  0.17948000000000006  0.31372  0.09803  1.0000
  O   O22       1.0  0.32117  0.82656  0.89082  1.0000
  O   O23       1.0  0.67884  0.17344  0.10918  1.0000
  O   O24       1.0  0.24307  0.53535  0.6584999999999999  1.0000
