data_image0
_chemical_formula_structural       Ca4Cu4H16C48S8O32
_chemical_formula_sum              "Ca4 Cu4 H16 C48 S8 O32"
_cell_length_a       10.03931
_cell_length_b       10.04099
_cell_length_c       21.1478
_cell_angle_alpha    92.23375999999999
_cell_angle_beta     92.19357999999998
_cell_angle_gamma    55.03061

_symmetry_space_group_name_H-M    'P 1'
_symmetry_Int_Tables_number       1

loop_
  _symmetry_equiv_pos_as_xyz
  'x,y,z'

loop_
  _atom_site_type_symbol
  _atom_site_label
  _atom_site_symmetry_multiplicity
  _atom_site_fract_x
  _atom_site_fract_y
  _atom_site_fract_z
  _atom_site_occupancy
  Ca  Ca1       1.0  0.7872199999999999  0.21075  0.74993  1.0000
  Ca  Ca2       1.0  0.21278000000000002  0.78925  0.25007  1.0000
  Ca  Ca3       1.0  0.50003  0.49998  0.0  1.0000
  Ca  Ca4       1.0  0.5  0.5  0.5  1.0000
  Cu  Cu1       1.0  0.73372  0.42538  0.8845799999999999  1.0000
  Cu  Cu2       1.0  0.57443  0.26533  0.61472  1.0000
  Cu  Cu3       1.0  0.26628999999999997  0.57462  0.11542000000000001  1.0000
  Cu  Cu4       1.0  0.42557  0.73467  0.38528  1.0000
  H   H1        1.0  0.72754  0.08123  0.0406  1.0000
  H   H2        1.0  0.6704299999999999  0.8568  0.05487  1.0000
  H   H3        1.0  0.46915000000000007  0.26209  0.74032  1.0000
  H   H4        1.0  0.26579  0.17628  0.73531  1.0000
  H   H5        1.0  0.9176599999999998  0.2709799999999999  0.45983  1.0000
  H   H6        1.0  0.14151  0.3281  0.44415000000000004  1.0000
  H   H7        1.0  0.73778  0.52846  0.75756  1.0000
  H   H8        1.0  0.8221300000000001  0.73254  0.7627099999999999  1.0000
  H   H9        1.0  0.27247000000000005  0.9187599999999998  0.9594  1.0000
  H   H10       1.0  0.32957  0.14319  0.94513  1.0000
  H   H11       1.0  0.5308499999999999  0.73792  0.25968  1.0000
  H   H12       1.0  0.7342099999999999  0.82372  0.26469  1.0000
  H   H13       1.0  0.08233999999999998  0.72902  0.54017  1.0000
  H   H14       1.0  0.8584899999999999  0.6718999999999998  0.55586  1.0000
  H   H15       1.0  0.26221999999999995  0.47154  0.24244  1.0000
  H   H16       1.0  0.17787  0.26746  0.23728999999999997  1.0000
  C   C1        1.0  0.77231  0.13515  0.90823  1.0000
  C   C2        1.0  0.4432899999999999  0.46661  0.84885  1.0000
  C   C3        1.0  0.6927099999999999  0.81629  0.9527  1.0000
  C   C4        1.0  0.66504  0.6900499999999998  0.93826  1.0000
  C   C5        1.0  0.34992999999999996  0.40256  0.82645  1.0000
  C   C6        1.0  0.74624  0.02383  0.93918  1.0000
  C   C7        1.0  0.7227299999999999  0.00872  0.00224  1.0000
  C   C8        1.0  0.024189999999999993  0.30772  0.8328599999999999  1.0000
  C   C9        1.0  0.69286  0.889  0.00999  1.0000
  C   C10       1.0  0.15964  0.32139  0.8215800000000001  1.0000
  C   C11       1.0  0.37584  0.30097  0.77473  1.0000
  C   C12       1.0  0.26718  0.25497  0.7716400000000001  1.0000
  C   C13       1.0  0.8655199999999998  0.22731  0.5926  1.0000
  C   C14       1.0  0.52936  0.55727  0.65018  1.0000
  C   C15       1.0  0.18325  0.30762  0.54623  1.0000
  C   C16       1.0  0.3096099999999999  0.33533  0.56034  1.0000
  C   C17       1.0  0.59308  0.6507899999999999  0.67259  1.0000
  C   C18       1.0  0.97638  0.25355  0.56118  1.0000
  C   C19       1.0  0.9904499999999999  0.27645  0.4979  1.0000
  C   C20       1.0  0.6894399999999999  0.97516  0.6657  1.0000
  C   C21       1.0  0.10987999999999998  0.3064  0.48933  1.0000
  C   C22       1.0  0.67486  0.8404  0.67705  1.0000
  C   C23       1.0  0.6967000000000001  0.62332  0.7237  1.0000
  C   C24       1.0  0.74261  0.73197  0.72664  1.0000
  C   C25       1.0  0.22770000000000018  0.8648399999999998  0.09177  1.0000
  C   C26       1.0  0.55671  0.5333799999999999  0.15115  1.0000
  C   C27       1.0  0.30729000000000006  0.18371  0.0473  1.0000
  C   C28       1.0  0.3349599999999998  0.30995  0.06174000000000001  1.0000
  C   C29       1.0  0.65007  0.59744  0.17355  1.0000
  C   C30       1.0  0.25376000000000004  0.97617  0.06082  1.0000
  C   C31       1.0  0.27726999999999996  0.99128  0.9977599999999999  1.0000
  C   C32       1.0  0.97582  0.69229  0.16714  1.0000
  C   C33       1.0  0.30713999999999997  0.111  0.99001  1.0000
  C   C34       1.0  0.84036  0.67861  0.17842  1.0000
  C   C35       1.0  0.6241600000000002  0.69903  0.22526999999999997  1.0000
  C   C36       1.0  0.73282  0.74504  0.22836  1.0000
  C   C37       1.0  0.13447999999999982  0.77269  0.40741  1.0000
  C   C38       1.0  0.47064  0.4427299999999999  0.34982  1.0000
  C   C39       1.0  0.81675  0.69238  0.45377000000000006  1.0000
  C   C40       1.0  0.6903999999999999  0.66468  0.43966000000000005  1.0000
  C   C41       1.0  0.40693  0.34922  0.32741  1.0000
  C   C42       1.0  0.02362000000000018  0.7464499999999997  0.43882  1.0000
  C   C43       1.0  0.009550000000000058  0.72355  0.5021  1.0000
  C   C44       1.0  0.31056  0.02485  0.3343  1.0000
  C   C45       1.0  0.89012  0.6936  0.51068  1.0000
  C   C46       1.0  0.32513999999999993  0.15961  0.32295  1.0000
  C   C47       1.0  0.3032999999999999  0.37669  0.2763  1.0000
  C   C48       1.0  0.25738999999999995  0.26803  0.27336  1.0000
  S   S1        1.0  0.19125999999999999  0.44066  0.8720099999999998  1.0000
  S   S2        1.0  0.73369  0.8907399999999998  0.88967  1.0000
  S   S3        1.0  0.5537900000000001  0.8101299999999999  0.62726  1.0000
  S   S4        1.0  0.10990999999999998  0.26731  0.60987  1.0000
  S   S5        1.0  0.8087399999999999  0.55934  0.12799  1.0000
  S   S6        1.0  0.2663100000000001  0.10925999999999997  0.11032999999999998  1.0000
  S   S7        1.0  0.44620999999999994  0.18986999999999996  0.37274  1.0000
  S   S8        1.0  0.8900900000000002  0.73269  0.39013000000000003  1.0000
  O   O1        1.0  0.73286  0.26804  0.93922  1.0000
  O   O2        1.0  0.57381  0.42424  0.81949  1.0000
  O   O3        1.0  0.9653999999999999  0.34754  0.8889099999999999  1.0000
  O   O4        1.0  0.63419  0.62601  0.9810199999999999  1.0000
  O   O5        1.0  0.6790000000000003  0.6455199999999998  0.87907  1.0000
  O   O6        1.0  0.39818  0.5553  0.89878  1.0000
  O   O7        1.0  0.82543  0.10159  0.85274  1.0000
  O   O8        1.0  0.9693599999999998  0.26532  0.78708  1.0000
  O   O9        1.0  0.73235  0.26723  0.56176  1.0000
  O   O10       1.0  0.5732600000000001  0.42602  0.67924  1.0000
  O   O11       1.0  0.64948  0.03442  0.60978  1.0000
  O   O12       1.0  0.37414  0.36527  0.51748  1.0000
  O   O13       1.0  0.3535600000000001  0.3220999999999999  0.61957  1.0000
  O   O14       1.0  0.4398  0.60302  0.60049  1.0000
  O   O15       1.0  0.8993900000000001  0.17372  0.64794  1.0000
  O   O16       1.0  0.73306  0.028879999999999996  0.7115  1.0000
  O   O17       1.0  0.26715000000000005  0.73195  0.06078000000000001  1.0000
  O   O18       1.0  0.42619  0.57575  0.18051  1.0000
  O   O19       1.0  0.034599999999999985  0.65246  0.11109  1.0000
  O   O20       1.0  0.36581  0.374  0.01898  1.0000
  O   O21       1.0  0.321  0.35448  0.12092999999999998  1.0000
  O   O22       1.0  0.60183  0.44469  0.10123  1.0000
  O   O23       1.0  0.17457999999999987  0.8984  0.14726  1.0000
  O   O24       1.0  0.03063000000000007  0.73469  0.21293  1.0000
  O   O25       1.0  0.26765  0.73277  0.43824  1.0000
  O   O26       1.0  0.42674  0.57398  0.32076  1.0000
  O   O27       1.0  0.35052  0.9655899999999998  0.39022999999999997  1.0000
  O   O28       1.0  0.6258600000000001  0.63473  0.48252000000000006  1.0000
  O   O29       1.0  0.64644  0.67791  0.38043  1.0000
  O   O30       1.0  0.56021  0.39699  0.39951000000000003  1.0000
  O   O31       1.0  0.10061000000000003  0.82628  0.35206  1.0000
  O   O32       1.0  0.26694000000000007  0.97112  0.2885  1.0000
