data_image0
_chemical_formula_structural       Zn4H32C76N8O24
_chemical_formula_sum              "Zn4 H32 C76 N8 O24"
_cell_length_a       5.04791
_cell_length_b       15.19879
_cell_length_c       27.903180000000003
_cell_angle_alpha    89.93613
_cell_angle_beta     90.06207000000002
_cell_angle_gamma    99.56407

_symmetry_space_group_name_H-M    'P 1'
_symmetry_Int_Tables_number       1

loop_
  _symmetry_equiv_pos_as_xyz
  'x,y,z'

loop_
  _atom_site_type_symbol
  _atom_site_label
  _atom_site_symmetry_multiplicity
  _atom_site_fract_x
  _atom_site_fract_y
  _atom_site_fract_z
  _atom_site_occupancy
  Zn  Zn1       1.0  0.96662  0.59118  0.9746  1.0000
  Zn  Zn2       1.0  0.5288900000000001  0.9088300000000002  0.47458  1.0000
  Zn  Zn3       1.0  0.03335000000000003  0.4088200000000001  0.025399999999999995  1.0000
  Zn  Zn4       1.0  0.47108  0.09118  0.52542  1.0000
  H   H1        1.0  0.1939300000000001  0.7519900000000003  0.42908  1.0000
  H   H2        1.0  0.16648  0.68146  0.34709  1.0000
  H   H3        1.0  0.9557399999999999  0.83055  0.31806  1.0000
  H   H4        1.0  0.9565800000000002  0.8931100000000002  0.4010899999999999  1.0000
  H   H5        1.0  0.008359999999999985  0.54492  0.22764999999999994  1.0000
  H   H6        1.0  0.0031500000000000278  0.4929500000000001  0.14218  1.0000
  H   H7        1.0  0.05918999999999999  0.74712  0.08986999999999998  1.0000
  H   H8        1.0  0.07924000000000009  0.8024600000000002  0.17537999999999995  1.0000
  H   H9        1.0  0.3055  0.74883  0.92966  1.0000
  H   H10       1.0  0.33757000000000004  0.8186300000000002  0.8474199999999997  1.0000
  H   H11       1.0  0.548  0.67043  0.8175999999999998  1.0000
  H   H12       1.0  0.54212  0.60885  0.90085  1.0000
  H   H13       1.0  0.4949100000000001  0.9550700000000002  0.7269999999999998  1.0000
  H   H14       1.0  0.4983899999999999  0.006310000000000001  0.6413699999999999  1.0000
  H   H15       1.0  0.4415300000000001  0.7519900000000003  0.5896599999999997  1.0000
  H   H16       1.0  0.42302000000000023  0.6970500000000002  0.6752999999999998  1.0000
  H   H17       1.0  0.8060400000000001  0.24802000000000005  0.5709199999999998  1.0000
  H   H18       1.0  0.8334900000000001  0.3185500000000001  0.65291  1.0000
  H   H19       1.0  0.04424  0.16946  0.6819399999999998  1.0000
  H   H20       1.0  0.043399999999999994  0.1069  0.5989099999999998  1.0000
  H   H21       1.0  0.99161  0.45509  0.7723499999999998  1.0000
  H   H22       1.0  0.9968300000000001  0.50706  0.8578199999999998  1.0000
  H   H23       1.0  0.9407800000000001  0.25289000000000006  0.91013  1.0000
  H   H24       1.0  0.9207300000000002  0.19754000000000005  0.82462  1.0000
  H   H25       1.0  0.69447  0.25118  0.07034  1.0000
  H   H26       1.0  0.66241  0.18138000000000007  0.15258  1.0000
  H   H27       1.0  0.4519800000000001  0.3295800000000001  0.1824  1.0000
  H   H28       1.0  0.4578500000000001  0.3911600000000001  0.09914999999999997  1.0000
  H   H29       1.0  0.50506  0.04494  0.273  1.0000
  H   H30       1.0  0.50158  0.9937  0.3586299999999999  1.0000
  H   H31       1.0  0.55844  0.24802000000000005  0.41034  1.0000
  H   H32       1.0  0.5769500000000001  0.3029600000000001  0.3247  1.0000
  C   C1        1.0  0.35717  0.76761  0.4034199999999999  1.0000
  C   C2        1.0  0.34378  0.7278  0.35817999999999994  1.0000
  C   C3        1.0  0.5588  0.7519900000000003  0.32685  1.0000
  C   C4        1.0  0.7849400000000001  0.8110600000000002  0.34178  1.0000
  C   C5        1.0  0.78513  0.84644  0.38783  1.0000
  C   C6        1.0  0.72101  0.65857  0.26596999999999993  1.0000
  C   C7        1.0  0.72134  0.6318400000000002  0.21502  1.0000
  C   C8        1.0  0.5440100000000001  0.6626900000000002  0.18211  1.0000
  C   C9        1.0  0.3691300000000001  0.7218100000000002  0.19648  1.0000
  C   C10       1.0  0.37318  0.75484  0.24621  1.0000
  C   C11       1.0  0.8822  0.57004  0.20101  1.0000
  C   C12       1.0  0.87684  0.5405  0.15340999999999994  1.0000
  C   C13       1.0  0.7130799999999999  0.57242  0.11937  1.0000
  C   C14       1.0  0.53829  0.63241  0.13281999999999997  1.0000
  C   C15       1.0  0.35248  0.66252  0.10115999999999999  1.0000
  C   C16       1.0  0.19485000000000008  0.7248100000000001  0.11579999999999997  1.0000
  C   C17       1.0  0.2037400000000001  0.7549700000000003  0.16331  1.0000
  C   C18       1.0  0.7354000000000002  0.5398900000000001  0.06857999999999997  1.0000
  C   C19       1.0  0.2892700000000001  0.6197900000000001  0.05306  1.0000
  C   C20       1.0  0.14292999999999997  0.73338  0.90382  1.0000
  C   C21       1.0  0.15931000000000012  0.7726200000000002  0.8583699999999999  1.0000
  C   C22       1.0  0.94529  0.7484500000000002  0.8267499999999998  1.0000
  C   C23       1.0  0.7180300000000001  0.6898500000000002  0.8415299999999998  1.0000
  C   C24       1.0  0.7148300000000001  0.6551300000000002  0.8877899999999999  1.0000
  C   C25       1.0  0.78373  0.84194  0.76575  1.0000
  C   C26       1.0  0.7824600000000002  0.8683200000000002  0.7147099999999998  1.0000
  C   C27       1.0  0.9589100000000003  0.8371100000000002  0.68184  1.0000
  C   C28       1.0  0.13393000000000013  0.7780200000000003  0.6963099999999998  1.0000
  C   C29       1.0  0.12915000000000007  0.7450600000000002  0.7460799999999997  1.0000
  C   C30       1.0  0.6210100000000001  0.9298700000000002  0.7004699999999998  1.0000
  C   C31       1.0  0.6251700000000002  0.9589500000000002  0.6527499999999998  1.0000
  C   C32       1.0  0.78794  0.92661  0.6187999999999998  1.0000
  C   C33       1.0  0.9631200000000001  0.86679  0.63245  1.0000
  C   C34       1.0  0.14806999999999995  0.83649  0.6008  1.0000
  C   C35       1.0  0.3063300000000001  0.7744000000000002  0.6155599999999998  1.0000
  C   C36       1.0  0.29841  0.74457  0.6631799999999998  1.0000
  C   C37       1.0  0.7647  0.95791  0.56775  1.0000
  C   C38       1.0  0.20968000000000003  0.8794300000000003  0.5526699999999999  1.0000
  C   C39       1.0  0.64281  0.2324  0.5965799999999999  1.0000
  C   C40       1.0  0.65619  0.2722100000000001  0.6418199999999997  1.0000
  C   C41       1.0  0.44117  0.24801000000000006  0.67315  1.0000
  C   C42       1.0  0.21504  0.18894  0.65822  1.0000
  C   C43       1.0  0.21484000000000006  0.15356000000000009  0.6121699999999998  1.0000
  C   C44       1.0  0.27896  0.34144000000000013  0.73403  1.0000
  C   C45       1.0  0.2786300000000001  0.3681700000000001  0.7849799999999998  1.0000
  C   C46       1.0  0.45597000000000004  0.3373200000000001  0.81789  1.0000
  C   C47       1.0  0.6308500000000001  0.2782000000000001  0.80352  1.0000
  C   C48       1.0  0.6268  0.24517  0.75379  1.0000
  C   C49       1.0  0.11778000000000005  0.42997  0.79899  1.0000
  C   C50       1.0  0.12313000000000004  0.45951  0.8465899999999997  1.0000
  C   C51       1.0  0.2869  0.42759000000000014  0.8806299999999998  1.0000
  C   C52       1.0  0.46168000000000003  0.36760000000000004  0.8671799999999997  1.0000
  C   C53       1.0  0.6475  0.33749  0.8988399999999998  1.0000
  C   C54       1.0  0.8051199999999998  0.27520000000000006  0.8841999999999998  1.0000
  C   C55       1.0  0.7962300000000001  0.24504  0.8366899999999999  1.0000
  C   C56       1.0  0.26457  0.46012000000000003  0.9314199999999998  1.0000
  C   C57       1.0  0.7107  0.38022000000000006  0.9469399999999998  1.0000
  C   C58       1.0  0.8570500000000001  0.26663  0.09618  1.0000
  C   C59       1.0  0.84066  0.22739000000000006  0.14163  1.0000
  C   C60       1.0  0.05468000000000002  0.25156  0.17325  1.0000
  C   C61       1.0  0.28194  0.31016  0.15847  1.0000
  C   C62       1.0  0.2851500000000001  0.34488000000000013  0.11221  1.0000
  C   C63       1.0  0.21625000000000005  0.15807000000000004  0.23424999999999996  1.0000
  C   C64       1.0  0.21751000000000006  0.13169000000000003  0.28528999999999993  1.0000
  C   C65       1.0  0.04106  0.1629  0.3181599999999999  1.0000
  C   C66       1.0  0.86604  0.22199  0.30368999999999996  1.0000
  C   C67       1.0  0.8708200000000001  0.25495000000000007  0.25392  1.0000
  C   C68       1.0  0.37896  0.07014  0.29953  1.0000
  C   C69       1.0  0.3748  0.04106000000000001  0.34725  1.0000
  C   C70       1.0  0.21203000000000002  0.0734  0.3812  1.0000
  C   C71       1.0  0.03685000000000001  0.13322  0.3675499999999999  1.0000
  C   C72       1.0  0.8519  0.16352  0.3992  1.0000
  C   C73       1.0  0.6936400000000001  0.22561000000000006  0.38443999999999995  1.0000
  C   C74       1.0  0.70156  0.25544  0.33682  1.0000
  C   C75       1.0  0.23527000000000006  0.04210000000000001  0.4322499999999999  1.0000
  C   C76       1.0  0.79029  0.12058000000000003  0.44733  1.0000
  N   N1        1.0  0.57376  0.8265  0.41787  1.0000
  N   N2        1.0  0.5463400000000002  0.7191100000000002  0.27832  1.0000
  N   N3        1.0  0.92476  0.6751500000000002  0.9182099999999997  1.0000
  N   N4        1.0  0.9584  0.7814500000000002  0.7781999999999998  1.0000
  N   N5        1.0  0.42621  0.17351  0.58213  1.0000
  N   N6        1.0  0.4536299999999999  0.2809  0.72168  1.0000
  N   N7        1.0  0.07522000000000006  0.3248600000000001  0.08178999999999999  1.0000
  N   N8        1.0  0.04157000000000004  0.21856000000000006  0.2218  1.0000
  O   O1        1.0  0.76079  0.5979  0.03549  1.0000
  O   O2        1.0  0.74583  0.45728000000000013  0.06419  1.0000
  O   O3        1.0  0.2538200000000001  0.6691800000000002  0.01768  1.0000
  O   O4        1.0  0.24743  0.53492  0.05449  1.0000
  O   O5        1.0  0.2431500000000001  0.812  0.25982  1.0000
  O   O6        1.0  0.85443  0.62907  0.29731  1.0000
  O   O7        1.0  0.7343100000000002  0.8986200000000002  0.53538  1.0000
  O   O8        1.0  0.76016  0.040640000000000016  0.56219  1.0000
  O   O9        1.0  0.24032000000000006  0.8304500000000002  0.51695  1.0000
  O   O10       1.0  0.25391  0.96432  0.55444  1.0000
  O   O11       1.0  0.25602000000000014  0.68715  0.75984  1.0000
  O   O12       1.0  0.65063  0.87144  0.7970599999999998  1.0000
  O   O13       1.0  0.23919000000000004  0.40211000000000013  0.9645099999999998  1.0000
  O   O14       1.0  0.25414  0.54273  0.9358099999999998  1.0000
  O   O15       1.0  0.74616  0.3308300000000001  0.98232  1.0000
  O   O16       1.0  0.7525400000000001  0.4650900000000001  0.9455099999999997  1.0000
  O   O17       1.0  0.75682  0.18800000000000003  0.7401799999999997  1.0000
  O   O18       1.0  0.14554000000000009  0.3709400000000001  0.70269  1.0000
  O   O19       1.0  0.26566  0.10139000000000001  0.4646199999999999  1.0000
  O   O20       1.0  0.23981000000000013  0.9593600000000002  0.4378099999999999  1.0000
  O   O21       1.0  0.75966  0.16956  0.48304999999999987  1.0000
  O   O22       1.0  0.74606  0.03568  0.4455599999999999  1.0000
  O   O23       1.0  0.7439500000000001  0.3128600000000001  0.24016  1.0000
  O   O24       1.0  0.34934000000000004  0.12857000000000005  0.20294  1.0000
