data_image0
_chemical_formula_structural       Co8H40C32N24O16
_chemical_formula_sum              "Co8 H40 C32 N24 O16"
_cell_length_a       14.92352
_cell_length_b       14.9464
_cell_length_c       14.908
_cell_angle_alpha    67.80357
_cell_angle_beta     75.8285
_cell_angle_gamma    112.19378

_space_group_name_H-M_alt    "P 1"
_space_group_IT_number       1

loop_
  _space_group_symop_operation_xyz
  'x, y, z'

loop_
  _atom_site_type_symbol
  _atom_site_label
  _atom_site_symmetry_multiplicity
  _atom_site_fract_x
  _atom_site_fract_y
  _atom_site_fract_z
  _atom_site_occupancy
  Co  Co1       1.0  0.5078600000000002  0.60929  0.05859000000000001  1.0000
  Co  Co2       1.0  0.33232000000000006  0.89091  0.60144  1.0000
  Co  Co3       1.0  0.4413300000000001  0.93353  0.1675  1.0000
  Co  Co4       1.0  0.8983700000000001  0.56642  0.9926200000000001  1.0000
  Co  Co5       1.0  0.49217999999999984  0.3907599999999999  0.9413300000000002  1.0000
  Co  Co6       1.0  0.6677200000000002  0.10908999999999998  0.39854000000000006  1.0000
  Co  Co7       1.0  0.5586100000000002  0.06645000000000005  0.8325100000000001  1.0000
  Co  Co8       1.0  0.10162  0.43361  0.00738  1.0000
  H   H1        1.0  0.5378200000000002  0.8003600000000001  0.81662  1.0000
  H   H2        1.0  0.6584300000000001  0.9183000000000001  0.7863900000000001  1.0000
  H   H3        1.0  0.2922400000000001  0.62959  0.26167  1.0000
  H   H4        1.0  0.41506000000000004  0.6666099999999999  0.27221  1.0000
  H   H5        1.0  0.6932999999999999  0.79085  0.8908000000000003  1.0000
  H   H6        1.0  0.38262000000000007  0.69952  0.76279  1.0000
  H   H7        1.0  0.2943000000000001  0.58149  0.7606500000000002  1.0000
  H   H8        1.0  0.10905000000000004  0.86999  0.8372700000000001  1.0000
  H   H9        1.0  0.061959999999999904  0.8334399999999997  0.7508700000000003  1.0000
  H   H10       1.0  0.31843000000000016  0.70899  0.59742  1.0000
  H   H11       1.0  0.6835  0.14526  0.11698  1.0000
  H   H12       1.0  0.71277  0.054490000000000004  0.2057  1.0000
  H   H13       1.0  0.2383900000000001  0.94633  0.39074  1.0000
  H   H14       1.0  0.22735  0.81289  0.43863  1.0000
  H   H15       1.0  0.60949  0.91609  0.18106  1.0000
  H   H16       1.0  0.73746  0.35480000000000006  0.96216  1.0000
  H   H17       1.0  0.7398900000000003  0.44568  0.84175  1.0000
  H   H18       1.0  0.6631  0.55389  0.20795  1.0000
  H   H19       1.0  0.749  0.687  0.08493  1.0000
  H   H20       1.0  0.90304  0.58389  0.8067100000000001  1.0000
  H   H21       1.0  0.4621800000000001  0.19963999999999998  0.18337000000000003  1.0000
  H   H22       1.0  0.34159  0.08172999999999997  0.21360000000000007  1.0000
  H   H23       1.0  0.70778  0.3704299999999999  0.73831  1.0000
  H   H24       1.0  0.5849400000000002  0.33339999999999975  0.7277700000000003  1.0000
  H   H25       1.0  0.3067300000000001  0.20917  0.10916  1.0000
  H   H26       1.0  0.61735  0.30049  0.2372  1.0000
  H   H27       1.0  0.7057  0.41846999999999995  0.23942000000000002  1.0000
  H   H28       1.0  0.8909500000000002  0.12997999999999996  0.16275  1.0000
  H   H29       1.0  0.9381100000000001  0.16663999999999995  0.24907000000000004  1.0000
  H   H30       1.0  0.6815  0.2909300000000001  0.40267000000000003  1.0000
  H   H31       1.0  0.3164900000000001  0.85473  0.88303  1.0000
  H   H32       1.0  0.2872699999999999  0.9455499999999999  0.79426  1.0000
  H   H33       1.0  0.7616300000000003  0.053690000000000036  0.60925  1.0000
  H   H34       1.0  0.7726599999999999  0.18710999999999994  0.5613700000000001  1.0000
  H   H35       1.0  0.39056  0.08397000000000003  0.81887  1.0000
  H   H36       1.0  0.26257000000000014  0.64522  0.03782  1.0000
  H   H37       1.0  0.2601000000000001  0.5543100000000002  0.15826000000000004  1.0000
  H   H38       1.0  0.33686000000000005  0.44609000000000004  0.79208  1.0000
  H   H39       1.0  0.25101999999999997  0.31298999999999993  0.9150800000000002  1.0000
  H   H40       1.0  0.09692000000000003  0.41617  0.19332  1.0000
  C   C1        1.0  0.5308599999999999  0.8307399999999999  0.9478500000000001  1.0000
  C   C2        1.0  0.4359699999999999  0.76765  0.11427000000000002  1.0000
  C   C3        1.0  0.5911100000000004  0.83226  0.8504800000000001  1.0000
  C   C4        1.0  0.37172  0.70304  0.23553  1.0000
  C   C5        1.0  0.22141  0.66952  0.79993  1.0000
  C   C6        1.0  0.11793999999999996  0.7321199999999999  0.8317000000000002  1.0000
  C   C7        1.0  0.3169600000000001  0.6678100000000001  0.74128  1.0000
  C   C8        1.0  0.061579999999999864  0.7967399999999999  0.8310700000000002  1.0000
  C   C9        1.0  0.55173  0.021039999999999982  0.27835  1.0000
  C   C10       1.0  0.38543999999999995  0.9494099999999999  0.3818000000000001  1.0000
  C   C11       1.0  0.64925  0.05806999999999998  0.18274  1.0000
  C   C12       1.0  0.26431  0.89285  0.43833  1.0000
  C   C13       1.0  0.70022  0.47875000000000006  0.96958  1.0000
  C   C14       1.0  0.66846  0.55038  0.06414  1.0000
  C   C15       1.0  0.75892  0.44193999999999994  0.9091200000000002  1.0000
  C   C16       1.0  0.6690300000000002  0.60722  0.12835  1.0000
  C   C17       1.0  0.46914000000000017  0.16927  0.05213000000000001  1.0000
  C   C18       1.0  0.5640200000000001  0.23235999999999987  0.8857000000000002  1.0000
  C   C19       1.0  0.4089  0.16777  0.14949  1.0000
  C   C20       1.0  0.6282800000000004  0.2969800000000001  0.76447  1.0000
  C   C21       1.0  0.7786000000000002  0.3305  0.20010000000000006  1.0000
  C   C22       1.0  0.88208  0.2678900000000001  0.16834  1.0000
  C   C23       1.0  0.6830299999999999  0.3321599999999999  0.25873000000000007  1.0000
  C   C24       1.0  0.93841  0.20326999999999998  0.16891000000000003  1.0000
  C   C25       1.0  0.4482600000000002  0.97894  0.72166  1.0000
  C   C26       1.0  0.61456  0.05058000000000002  0.61822  1.0000
  C   C27       1.0  0.3507700000000001  0.94194  0.8172600000000001  1.0000
  C   C28       1.0  0.73569  0.10714  0.56167  1.0000
  C   C29       1.0  0.29976000000000014  0.52124  0.030430000000000002  1.0000
  C   C30       1.0  0.33152  0.44960999999999995  0.93587  1.0000
  C   C31       1.0  0.24108  0.55807  0.09088  1.0000
  C   C32       1.0  0.3309800000000001  0.39277000000000006  0.8716600000000001  1.0000
  N   N1        1.0  0.4738200000000001  0.73449  0.047790000000000006  1.0000
  N   N2        1.0  0.5287  0.9185700000000001  0.95103  1.0000
  N   N3        1.0  0.46677  0.87659  0.059090000000000004  1.0000
  N   N4        1.0  0.21775  0.76563  0.76069  1.0000
  N   N5        1.0  0.13024999999999995  0.5814599999999999  0.8899700000000003  1.0000
  N   N6        1.0  0.06396999999999999  0.62304  0.9100100000000001  1.0000
  N   N7        1.0  0.45189  0.97824  0.28195  1.0000
  N   N8        1.0  0.54863  0.019970000000000012  0.36961  1.0000
  N   N9        1.0  0.44065  0.9737000000000001  0.43581  1.0000
  N   N10       1.0  0.7392800000000003  0.52141  0.02678  1.0000
  N   N11       1.0  0.6102299999999999  0.47996999999999995  0.9713200000000001  1.0000
  N   N12       1.0  0.5903300000000002  0.52625  0.03301  1.0000
  N   N13       1.0  0.52621  0.26553  0.95219  1.0000
  N   N14       1.0  0.4713300000000001  0.08145  0.04896  1.0000
  N   N15       1.0  0.5332700000000002  0.12341999999999995  0.9409  1.0000
  N   N16       1.0  0.7822100000000002  0.23434999999999997  0.23928  1.0000
  N   N17       1.0  0.8697400000000001  0.41853  0.11001  1.0000
  N   N18       1.0  0.9360100000000002  0.37694  0.08996  1.0000
  N   N19       1.0  0.54812  0.021759999999999956  0.7180600000000001  1.0000
  N   N20       1.0  0.4513800000000001  0.98002  0.6304  1.0000
  N   N21       1.0  0.5593599999999999  0.026249999999999968  0.5642  1.0000
  N   N22       1.0  0.26069000000000003  0.47855999999999993  0.9732400000000001  1.0000
  N   N23       1.0  0.3897500000000001  0.52001  0.0287  1.0000
  N   N24       1.0  0.40964000000000006  0.4737199999999999  0.9670100000000003  1.0000
  O   O1        1.0  0.6294000000000001  0.7544699999999998  0.8818300000000002  1.0000
  O   O2        1.0  0.35873000000000005  0.77568  0.26842  1.0000
  O   O3        1.0  0.3637300000000002  0.74547  0.62492  1.0000
  O   O4        1.0  0.9558  0.7242799999999999  0.9167200000000001  1.0000
  O   O5        1.0  0.6185000000000002  0.98895  0.13567  1.0000
  O   O6        1.0  0.23160999999999993  0.8734899999999997  0.5438900000000001  1.0000
  O   O7        1.0  0.8751000000000002  0.51101  0.87096  1.0000
  O   O8        1.0  0.58341  0.62726  0.14129  1.0000
  O   O9        1.0  0.37061  0.24555  0.11815000000000003  1.0000
  O   O10       1.0  0.6412500000000002  0.22431999999999994  0.7315900000000001  1.0000
  O   O11       1.0  0.63626  0.25451  0.37509  1.0000
  O   O12       1.0  0.04417999999999997  0.27574999999999994  0.08325  1.0000
  O   O13       1.0  0.38155000000000017  0.011120000000000024  0.86428  1.0000
  O   O14       1.0  0.7684100000000003  0.12654000000000004  0.4561  1.0000
  O   O15       1.0  0.12491  0.48903  0.12902  1.0000
  O   O16       1.0  0.41663  0.37277  0.8586500000000001  1.0000
