data_image0
_chemical_formula_structural       Co4H32C48N8O16
_chemical_formula_sum              "Co4 H32 C48 N8 O16"
_cell_length_a       9.90024
_cell_length_b       10.64601
_cell_length_c       12.89522
_cell_angle_alpha    89.96110000000002
_cell_angle_beta     89.86447
_cell_angle_gamma    102.78784

_symmetry_space_group_name_H-M    'P 1'
_symmetry_Int_Tables_number       1

loop_
  _symmetry_equiv_pos_as_xyz
  'x,y,z'

loop_
  _atom_site_type_symbol
  _atom_site_label
  _atom_site_symmetry_multiplicity
  _atom_site_fract_x
  _atom_site_fract_y
  _atom_site_fract_z
  _atom_site_occupancy
  Co  Co1       1.0  0.62141  0.75324  0.21670999999999999  1.0000
  Co  Co2       1.0  0.12909999999999996  0.74744  0.21755999999999995  1.0000
  Co  Co3       1.0  0.37737999999999994  0.24633999999999998  0.7159699999999998  1.0000
  Co  Co4       1.0  0.8705099999999999  0.2524  0.7187199999999998  1.0000
  H   H1        1.0  0.8635499999999999  0.21796999999999997  0.4832899999999999  1.0000
  H   H2        1.0  0.85193  0.5263  0.67461  1.0000
  H   H3        1.0  0.5676399999999999  0.3637  0.53862  1.0000
  H   H4        1.0  0.6126999999999999  0.9989599999999998  0.9797799999999999  1.0000
  H   H5        1.0  0.18767999999999993  0.9960899999999999  0.051  1.0000
  H   H6        1.0  0.18123999999999998  0.12822  0.8894799999999998  1.0000
  H   H7        1.0  0.12208  0.71677  0.45388999999999996  1.0000
  H   H8        1.0  0.1084  0.17205  0.41314  1.0000
  H   H9        1.0  0.8598899999999999  0.35108  0.32314  1.0000
  H   H10       1.0  0.12606999999999996  0.027859999999999996  0.26224  1.0000
  H   H11       1.0  0.83333  0.66948  0.52278  1.0000
  H   H12       1.0  0.13700999999999997  0.4994499999999999  0.45852  1.0000
  H   H13       1.0  0.16015  0.36269  0.612  1.0000
  H   H14       1.0  0.11312  0.84851  0.61366  1.0000
  H   H15       1.0  0.59161  0.1342  0.82341  1.0000
  H   H16       1.0  0.5617899999999999  0.50564  0.38252999999999987  1.0000
  H   H17       1.0  0.13810999999999998  0.78327  0.9819399999999998  1.0000
  H   H18       1.0  0.1485  0.4750599999999999  0.17414999999999994  1.0000
  H   H19       1.0  0.43119999999999997  0.6362799999999998  0.0387  1.0000
  H   H20       1.0  0.38626999999999995  0.00213  0.47993999999999987  1.0000
  H   H21       1.0  0.8111399999999999  0.00419  0.54959  1.0000
  H   H22       1.0  0.8171599999999999  0.8717399999999998  0.3881699999999999  1.0000
  H   H23       1.0  0.8769799999999998  0.28288  0.9542899999999997  1.0000
  H   H24       1.0  0.8890199999999999  0.82732  0.9135499999999998  1.0000
  H   H25       1.0  0.14242  0.64971  0.8222  1.0000
  H   H26       1.0  0.87271  0.9719  0.76267  1.0000
  H   H27       1.0  0.16733999999999996  0.33151  0.022649999999999997  1.0000
  H   H28       1.0  0.86061  0.49868999999999997  0.9570499999999997  1.0000
  H   H29       1.0  0.83834  0.63575  0.11051999999999997  1.0000
  H   H30       1.0  0.88414  0.15048  0.11406  1.0000
  H   H31       1.0  0.40674999999999994  0.866  0.3241  1.0000
  H   H32       1.0  0.43658  0.49464  0.8824299999999998  1.0000
  C   C1        1.0  0.85922  0.31889  0.48829  1.0000
  C   C2        1.0  0.8521  0.4916899999999999  0.5953  1.0000
  C   C3        1.0  0.4744  0.39582  0.51768  1.0000
  C   C4        1.0  0.8426099999999999  0.6030599999999999  0.31567  1.0000
  C   C5        1.0  0.33804999999999996  0.59769  0.3160699999999999  1.0000
  C   C6        1.0  0.40166  0.9881199999999999  0.02741  1.0000
  C   C7        1.0  0.34831  0.5131299999999999  0.4083299999999999  1.0000
  C   C8        1.0  0.8486899999999999  0.52188  0.41042  1.0000
  C   C9        1.0  0.51644  0.027609999999999996  0.9625599999999999  1.0000
  C   C10       1.0  0.2792299999999999  0.026889999999999997  0.002749999999999999  1.0000
  C   C11       1.0  0.27534999999999993  0.10001  0.9138799999999998  1.0000
  C   C12       1.0  0.11720999999999998  0.81762  0.44873  1.0000
  C   C13       1.0  0.11049999999999997  0.0714  0.4257199999999999  1.0000
  C   C14       1.0  0.85676  0.39299  0.39980999999999994  1.0000
  C   C15       1.0  0.11915999999999997  0.9918199999999998  0.34146  1.0000
  C   C16       1.0  0.84344  0.57078  0.5108099999999999  1.0000
  C   C17       1.0  0.23425999999999997  0.47169999999999995  0.47399999999999987  1.0000
  C   C18       1.0  0.24622  0.39438999999999996  0.5588  1.0000
  C   C19       1.0  0.11215  0.8915  0.53714  1.0000
  C   C20       1.0  0.106  0.02113  0.52653  1.0000
  C   C21       1.0  0.50516  0.10279999999999997  0.8762699999999998  1.0000
  C   C22       1.0  0.47069  0.4733899999999999  0.43113999999999997  1.0000
  C   C23       1.0  0.09151999999999999  0.10174  0.62071  1.0000
  C   C24       1.0  0.40936  0.904  0.11984  1.0000
  C   C25       1.0  0.14255  0.68239  0.98729  1.0000
  C   C26       1.0  0.14893999999999996  0.50952  0.09473999999999999  1.0000
  C   C27       1.0  0.52419  0.60378  0.017559999999999996  1.0000
  C   C28       1.0  0.15739999999999998  0.39727  0.8156699999999999  1.0000
  C   C29       1.0  0.65965  0.40081999999999995  0.8157399999999999  1.0000
  C   C30       1.0  0.5974499999999999  0.01256  0.52677  1.0000
  C   C31       1.0  0.64941  0.48572  0.90784  1.0000
  C   C32       1.0  0.15278  0.47911  0.9100299999999998  1.0000
  C   C33       1.0  0.48242999999999997  0.9731999999999997  0.4625499999999999  1.0000
  C   C34       1.0  0.7196599999999999  0.97355  0.50157  1.0000
  C   C35       1.0  0.7232199999999999  0.90014  0.41295  1.0000
  C   C36       1.0  0.88139  0.18193999999999996  0.94912  1.0000
  C   C37       1.0  0.8872599999999999  0.92802  0.92604  1.0000
  C   C38       1.0  0.14525  0.60809  0.89905  1.0000
  C   C39       1.0  0.8792399999999999  0.00784  0.8418199999999998  1.0000
  C   C40       1.0  0.15766  0.43028  0.01046  1.0000
  C   C41       1.0  0.76359  0.52683  0.9730299999999997  1.0000
  C   C42       1.0  0.7520799999999997  0.60432  0.05776999999999999  1.0000
  C   C43       1.0  0.8856  0.10775  0.03752  1.0000
  C   C44       1.0  0.89159  0.97812  0.026829999999999993  1.0000
  C   C45       1.0  0.49333  0.8974999999999999  0.3765099999999999  1.0000
  C   C46       1.0  0.52751  0.52624  0.9309499999999999  1.0000
  C   C47       1.0  0.9074999999999999  0.89766  0.12073  1.0000
  C   C48       1.0  0.59088  0.09645  0.61947  1.0000
  N   N1        1.0  0.85916  0.367  0.58527  1.0000
  N   N2        1.0  0.36457999999999996  0.35658999999999996  0.58148  1.0000
  N   N3        1.0  0.38642999999999994  0.13819999999999996  0.8512299999999998  1.0000
  N   N4        1.0  0.11943999999999996  0.8654799999999999  0.3515  1.0000
  N   N5        1.0  0.14217  0.63427  0.08436999999999997  1.0000
  N   N6        1.0  0.63406  0.64259  0.08102999999999999  1.0000
  N   N7        1.0  0.6118799999999999  0.8618299999999999  0.35098  1.0000
  N   N8        1.0  0.87943  0.13423  0.8519099999999998  1.0000
  O   O1        1.0  0.7321999999999999  0.64353  0.30654999999999993  1.0000
  O   O2        1.0  0.9799  0.14242999999999997  0.6241  1.0000
  O   O3        1.0  0.18631  0.11783  0.6880799999999999  1.0000
  O   O4        1.0  0.22293  0.63199  0.3073  1.0000
  O   O5        1.0  0.52258  0.8686099999999999  0.13197  1.0000
  O   O6        1.0  0.94478  0.6183599999999999  0.25365999999999994  1.0000
  O   O7        1.0  0.43974  0.6246  0.25373  1.0000
  O   O8        1.0  0.3036  0.87818  0.17947  1.0000
  O   O9        1.0  0.26744  0.35692999999999997  0.8043499999999998  1.0000
  O   O10       1.0  0.019599999999999996  0.85742  0.12210999999999998  1.0000
  O   O11       1.0  0.8143899999999998  0.88158  0.18985999999999997  1.0000
  O   O12       1.0  0.77341  0.36344  0.8092999999999999  1.0000
  O   O13       1.0  0.4776  0.13107999999999997  0.63368  1.0000
  O   O14       1.0  0.05333999999999997  0.38142  0.7557299999999998  1.0000
  O   O15       1.0  0.56019  0.3762  0.75176  1.0000
  O   O16       1.0  0.69789  0.12272999999999998  0.67733  1.0000
