data_image0
_chemical_formula_structural       Cu4H40C32N24
_chemical_formula_sum              "Cu4 H40 C32 N24"
_cell_length_a       5.97344
_cell_length_b       19.47148
_cell_length_c       24.35383
_cell_angle_alpha    89.95074
_cell_angle_beta     90.03989000000001
_cell_angle_gamma    89.93811

_space_group_name_H-M_alt    "P 1"
_space_group_IT_number       1

loop_
  _space_group_symop_operation_xyz
  'x, y, z'

loop_
  _atom_site_type_symbol
  _atom_site_label
  _atom_site_symmetry_multiplicity
  _atom_site_fract_x
  _atom_site_fract_y
  _atom_site_fract_z
  _atom_site_occupancy
  Cu  Cu1       1.0  0.7491900000000002  0.27814  0.9867099999999998  1.0000
  Cu  Cu2       1.0  0.7483000000000002  0.7202599999999998  0.4862499999999999  1.0000
  Cu  Cu3       1.0  0.24770000000000006  0.7818999999999998  0.51367  1.0000
  Cu  Cu4       1.0  0.25088  0.21853  0.012839999999999997  1.0000
  H   H1        1.0  0.8282800000000002  0.56224  0.5407  1.0000
  H   H2        1.0  0.44706  0.65465  0.5794699999999999  1.0000
  H   H3        1.0  0.21264  0.37071  0.82447  1.0000
  H   H4        1.0  0.6947600000000003  0.43133999999999995  0.9319099999999999  1.0000
  H   H5        1.0  0.00598  0.52408  0.84102  1.0000
  H   H6        1.0  0.7260800000000002  0.49787  0.8404499999999998  1.0000
  H   H7        1.0  0.81686  0.42194999999999994  0.7549099999999999  1.0000
  H   H8        1.0  0.17544000000000007  0.53725  0.75495  1.0000
  H   H9        1.0  0.18822  0.5222499999999999  0.65588  1.0000
  H   H10       1.0  0.0035900000000000003  0.44463  0.6619799999999998  1.0000
  H   H11       1.0  0.67406  0.43750999999999995  0.03951  1.0000
  H   H12       1.0  0.055930000000000014  0.34551999999999994  0.08032999999999998  1.0000
  H   H13       1.0  0.28741000000000005  0.62982  0.32405999999999996  1.0000
  H   H14       1.0  0.80547  0.5695899999999999  0.4317299999999999  1.0000
  H   H15       1.0  0.4946700000000001  0.47665  0.34127999999999986  1.0000
  H   H16       1.0  0.7744100000000002  0.5026399999999999  0.34071999999999997  1.0000
  H   H17       1.0  0.68352  0.57811  0.2544  1.0000
  H   H18       1.0  0.32625000000000004  0.46244999999999997  0.25493  1.0000
  H   H19       1.0  0.31156  0.4781399999999999  0.15603999999999998  1.0000
  H   H20       1.0  0.4982800000000001  0.55526  0.16202999999999998  1.0000
  H   H21       1.0  0.17352  0.06118999999999999  0.95975  1.0000
  H   H22       1.0  0.55433  0.1528  0.9195  1.0000
  H   H23       1.0  0.7879  0.87175  0.67542  1.0000
  H   H24       1.0  0.30694  0.93167  0.56804  1.0000
  H   H25       1.0  0.99652  0.024759999999999997  0.65888  1.0000
  H   H26       1.0  0.27536  0.99788  0.65907  1.0000
  H   H27       1.0  0.18439000000000003  0.92229  0.7451699999999998  1.0000
  H   H28       1.0  0.8266800000000001  0.038169999999999996  0.74532  1.0000
  H   H29       1.0  0.8094  0.020590000000000004  0.8440099999999998  1.0000
  H   H30       1.0  0.9971800000000001  0.9436299999999997  0.8375399999999997  1.0000
  H   H31       1.0  0.3272900000000001  0.93905  0.45876  1.0000
  H   H32       1.0  0.94799  0.84724  0.42083999999999994  1.0000
  H   H33       1.0  0.7122  0.1281  0.17499  1.0000
  H   H34       1.0  0.19041  0.06808  0.06794  1.0000
  H   H35       1.0  0.5055600000000001  0.97533  0.15904999999999997  1.0000
  H   H36       1.0  0.22512000000000001  0.00145  0.16005  1.0000
  H   H37       1.0  0.31836000000000003  0.07827999999999999  0.24500999999999995  1.0000
  H   H38       1.0  0.67518  0.96233  0.24538999999999994  1.0000
  H   H39       1.0  0.68892  0.9782699999999998  0.34427999999999986  1.0000
  H   H40       1.0  0.50512  0.056139999999999995  0.33783  1.0000
  C   C1        1.0  0.97139  0.59634  0.5419099999999999  1.0000
  C   C2        1.0  0.2822200000000001  0.64226  0.5623699999999999  1.0000
  C   C3        1.0  0.10618  0.37244  0.8606899999999997  1.0000
  C   C4        1.0  0.8350300000000002  0.40363  0.91491  1.0000
  C   C5        1.0  0.8965400000000002  0.48054  0.8313699999999999  1.0000
  C   C6        1.0  0.92469  0.46112999999999993  0.7727299999999999  1.0000
  C   C7        1.0  0.06913000000000001  0.49705  0.73798  1.0000
  C   C8        1.0  0.0945  0.48619999999999997  0.6821199999999997  1.0000
  C   C9        1.0  0.53067  0.40362  0.04167  1.0000
  C   C10       1.0  0.21981000000000006  0.35792  0.06261999999999998  1.0000
  C   C11       1.0  0.393  0.62806  0.36035  1.0000
  C   C12       1.0  0.6645100000000002  0.5969799999999998  0.4146999999999999  1.0000
  C   C13       1.0  0.6042100000000001  0.52002  0.33133  1.0000
  C   C14       1.0  0.57706  0.53879  0.2725  1.0000
  C   C15       1.0  0.43209000000000003  0.50267  0.23797  1.0000
  C   C16       1.0  0.40617  0.514  0.18212  1.0000
  C   C17       1.0  0.030050000000000007  0.09498999999999999  0.95779  1.0000
  C   C18       1.0  0.7189000000000002  0.14044  0.9369  1.0000
  C   C19       1.0  0.89305  0.8735599999999998  0.63931  1.0000
  C   C20       1.0  0.16527  0.9044699999999999  0.58496  1.0000
  C   C21       1.0  0.10495  0.9809199999999999  0.6685099999999998  1.0000
  C   C22       1.0  0.07684000000000002  0.9615399999999997  0.72716  1.0000
  C   C23       1.0  0.9313400000000001  0.9971299999999997  0.7619499999999999  1.0000
  C   C24       1.0  0.90595  0.98551  0.81764  1.0000
  C   C25       1.0  0.4713900000000001  0.9053799999999999  0.45786  1.0000
  C   C26       1.0  0.78254  0.8595599999999999  0.4376699999999999  1.0000
  C   C27       1.0  0.60519  0.12637  0.13922999999999996  1.0000
  C   C28       1.0  0.33232000000000006  0.09526999999999998  0.08508999999999999  1.0000
  C   C29       1.0  0.39577000000000007  0.01881  0.16881  1.0000
  C   C30       1.0  0.4248300000000001  0.0386  0.22729  1.0000
  C   C31       1.0  0.56901  0.0026899999999999997  0.26213999999999993  1.0000
  C   C32       1.0  0.59603  0.014429999999999998  0.31788  1.0000
  N   N1        1.0  0.96711  0.65948  0.51886  1.0000
  N   N2        1.0  0.16633  0.58275  0.5687  1.0000
  N   N3        1.0  0.0988  0.32708  0.9010899999999997  1.0000
  N   N4        1.0  0.94554  0.42219  0.8681199999999998  1.0000
  N   N5        1.0  0.17118  0.68871  0.5320699999999999  1.0000
  N   N6        1.0  0.9275100000000001  0.34725999999999996  0.9357299999999997  1.0000
  N   N7        1.0  0.53349  0.34036  0.01869  1.0000
  N   N8        1.0  0.33645  0.41734999999999994  0.06873  1.0000
  N   N9        1.0  0.39873000000000003  0.67314  0.40099  1.0000
  N   N10       1.0  0.5542000000000001  0.5784599999999999  0.3678099999999999  1.0000
  N   N11       1.0  0.32946000000000003  0.31134  0.03221  1.0000
  N   N12       1.0  0.57042  0.653  0.43554999999999994  1.0000
  N   N13       1.0  0.03259000000000001  0.15802999999999998  0.9806599999999998  1.0000
  N   N14       1.0  0.8357500000000002  0.08102  0.93085  1.0000
  N   N15       1.0  0.8994700000000001  0.82837  0.59849  1.0000
  N   N16       1.0  0.05461  0.92305  0.6316899999999999  1.0000
  N   N17       1.0  0.8289100000000003  0.18698999999999993  0.96697  1.0000
  N   N18       1.0  0.07105000000000002  0.8486299999999999  0.564  1.0000
  N   N19       1.0  0.46767000000000003  0.84243  0.48106  1.0000
  N   N20       1.0  0.66624  0.9190399999999997  0.43109  1.0000
  N   N21       1.0  0.5969000000000001  0.1716  0.09843  1.0000
  N   N22       1.0  0.4427  0.07693999999999998  0.13191  1.0000
  N   N23       1.0  0.6718300000000003  0.81316  0.46783  1.0000
  N   N24       1.0  0.42518  0.15127999999999997  0.0641  1.0000
