data_image0
_chemical_formula_structural       Ni2Mo8H40C30N30O16
_chemical_formula_sum              "Ni2 Mo8 H40 C30 N30 O16"
_cell_length_a       10.05344
_cell_length_b       11.945039999999999
_cell_length_c       12.917150000000001
_cell_angle_alpha    79.24594999999998
_cell_angle_beta     72.35163000000001
_cell_angle_gamma    82.3509

_symmetry_space_group_name_H-M    'P 1'
_symmetry_Int_Tables_number       1

loop_
  _symmetry_equiv_pos_as_xyz
  'x,y,z'

loop_
  _atom_site_type_symbol
  _atom_site_label
  _atom_site_symmetry_multiplicity
  _atom_site_fract_x
  _atom_site_fract_y
  _atom_site_fract_z
  _atom_site_occupancy
  Ni  Ni1       1.0  0.003300000000000013  0.9950200000000002  0.9973699999999999  1.0000
  Ni  Ni2       1.0  0.0013500000000000285  0.50511  0.50774  1.0000
  Mo  Mo1       1.0  0.95003  0.21396999999999997  0.54132  1.0000
  Mo  Mo2       1.0  0.1245600000000001  0.99441  0.4915299999999999  1.0000
  Mo  Mo3       1.0  0.9290099999999999  0.9751300000000002  0.7218899999999998  1.0000
  Mo  Mo4       1.0  0.07898  0.021589999999999995  0.26801  1.0000
  Mo  Mo5       1.0  0.034230000000000024  0.79552  0.46433999999999986  1.0000
  Mo  Mo6       1.0  0.9140999999999999  0.18917999999999996  0.32216  1.0000
  Mo  Mo7       1.0  0.09944999999999997  0.81514  0.64863  1.0000
  Mo  Mo8       1.0  0.87389  0.02055000000000003  0.4969399999999999  1.0000
  H   H1        1.0  0.7144199999999999  0.18132  0.13737  1.0000
  H   H2        1.0  0.25398000000000004  0.65945  0.30961  1.0000
  H   H3        1.0  0.41571  0.87969  0.34104  1.0000
  H   H4        1.0  0.7367699999999999  0.3493000000000001  0.7040499999999997  1.0000
  H   H5        1.0  0.33262000000000014  0.98672  0.023069999999999993  1.0000
  H   H6        1.0  0.44997999999999994  0.6872999999999999  0.42448  1.0000
  H   H7        1.0  0.6623800000000002  0.8114199999999998  0.75923  1.0000
  H   H8        1.0  0.06030000000000007  0.51319  0.7365699999999997  1.0000
  H   H9        1.0  0.14893000000000006  0.4686199999999999  0.92745  1.0000
  H   H10       1.0  0.4626  0.18101  0.11816999999999997  1.0000
  H   H11       1.0  0.5568100000000001  0.6110599999999998  0.9463199999999999  1.0000
  H   H12       1.0  0.3939000000000001  0.61798  0.6104299999999999  1.0000
  H   H13       1.0  0.08998  0.41996  0.07247  1.0000
  H   H14       1.0  0.86103  0.67712  0.6853299999999999  1.0000
  H   H15       1.0  0.29895000000000005  0.34523999999999994  0.08435  1.0000
  H   H16       1.0  0.27957999999999994  0.7663999999999999  0.8983  1.0000
  H   H17       1.0  0.6719199999999996  0.99849  0.97623  1.0000
  H   H18       1.0  0.8437800000000002  0.22169  0.8608899999999998  1.0000
  H   H19       1.0  0.80593  0.91531  0.26197  1.0000
  H   H20       1.0  0.20201999999999998  0.07230000000000002  0.73584  1.0000
  H   H21       1.0  0.6953999999999999  0.70247  0.50761  1.0000
  H   H22       1.0  0.5559500000000002  0.87593  0.3992999999999999  1.0000
  H   H23       1.0  0.85272  0.52125  0.08048999999999999  1.0000
  H   H24       1.0  0.29314  0.29708  0.5119699999999999  1.0000
  H   H25       1.0  0.9291  0.7802600000000001  0.9148099999999998  1.0000
  H   H26       1.0  0.15259  0.32252  0.33647  1.0000
  H   H27       1.0  0.46831999999999996  0.30385  0.7454299999999999  1.0000
  H   H28       1.0  0.10054000000000002  0.20465  0.06815  1.0000
  H   H29       1.0  0.5165  0.6866300000000001  0.28053999999999996  1.0000
  H   H30       1.0  0.32319  0.18994  0.24003999999999998  1.0000
  H   H31       1.0  0.71574  0.6772099999999999  0.91846  1.0000
  H   H32       1.0  0.94084  0.4958  0.27852999999999994  1.0000
  H   H33       1.0  0.44616000000000006  0.13159000000000004  0.60207  1.0000
  H   H34       1.0  0.13345999999999997  0.77453  0.15683  1.0000
  H   H35       1.0  0.46056  0.39683  0.076  1.0000
  H   H36       1.0  0.9104599999999999  0.56717  0.9354899999999998  1.0000
  H   H37       1.0  0.5284100000000002  0.8242299999999999  0.8839899999999999  1.0000
  H   H38       1.0  0.54264  0.3234099999999999  0.60125  1.0000
  H   H39       1.0  0.58697  0.12465999999999999  0.66012  1.0000
  H   H40       1.0  0.5955  0.2924399999999999  0.44498  1.0000
  C   C1        1.0  0.41325999999999996  0.23342  0.18318  1.0000
  C   C2        1.0  0.7459800000000001  0.9246199999999999  0.20325999999999997  1.0000
  C   C3        1.0  0.19701  0.40439  0.30774  1.0000
  C   C4        1.0  0.52478  0.84659  0.3351  1.0000
  C   C5        1.0  0.63938  0.65556  0.8815699999999997  1.0000
  C   C6        1.0  0.08677999999999998  0.74607  0.10161  1.0000
  C   C7        1.0  0.33200999999999997  0.018769999999999988  0.939  1.0000
  C   C8        1.0  0.7349500000000002  0.65677  0.43779  1.0000
  C   C9        1.0  0.25419  0.57388  0.29279  1.0000
  C   C10       1.0  0.33712  0.73317  0.8232799999999998  1.0000
  C   C11       1.0  0.7425800000000001  0.43309999999999993  0.7223699999999997  1.0000
  C   C12       1.0  0.47628000000000004  0.15458000000000002  0.6697499999999998  1.0000
  C   C13       1.0  0.057399999999999965  0.44475000000000003  0.99714  1.0000
  C   C14       1.0  0.5881  0.27104  0.36931999999999987  1.0000
  C   C15       1.0  0.26079000000000013  0.06319000000000004  0.7953999999999998  1.0000
  C   C16       1.0  0.65407  0.2136  0.21232  1.0000
  C   C17       1.0  0.5798700000000001  0.76648  0.8240499999999997  1.0000
  C   C18       1.0  0.035809999999999995  0.23489  0.013489999999999997  1.0000
  C   C19       1.0  0.67289  0.96816  0.06054  1.0000
  C   C20       1.0  0.9015  0.24708000000000005  0.9100999999999999  1.0000
  C   C21       1.0  0.85631  0.55168  0.32036  1.0000
  C   C22       1.0  0.39933  0.6598300000000001  0.6763799999999998  1.0000
  C   C23       1.0  0.53371  0.71593  0.35058  1.0000
  C   C24       1.0  0.9442199999999998  0.54375  0.010279999999999997  1.0000
  C   C25       1.0  0.37008  0.35363  0.1318  1.0000
  C   C26       1.0  0.4585900000000001  0.28377  0.66879  1.0000
  C   C27       1.0  0.9780500000000002  0.7527499999999999  0.9806199999999998  1.0000
  C   C28       1.0  0.14083000000000004  0.45318000000000014  0.6966199999999998  1.0000
  C   C29       1.0  0.25753  0.34467  0.58064  1.0000
  C   C30       1.0  0.811  0.59769  0.7103499999999998  1.0000
  N   N1        1.0  0.9167800000000003  0.35554  0.9126899999999998  1.0000
  N   N2        1.0  0.85468  0.58954  0.4144599999999999  1.0000
  N   N3        1.0  0.97257  0.17025000000000004  0.9715199999999998  1.0000
  N   N4        1.0  0.28440000000000004  0.6825200000000001  0.7619999999999999  1.0000
  N   N5        1.0  0.99921  0.64358  0.02642  1.0000
  N   N6        1.0  0.06868  0.63709  0.10380999999999999  1.0000
  N   N7        1.0  0.21966000000000005  0.014680000000000012  0.90077  1.0000
  N   N8        1.0  0.32214000000000004  0.33894  0.6599899999999999  1.0000
  N   N9        1.0  0.70468  0.23433  0.29147  1.0000
  N   N10       1.0  0.56364  0.92456  0.13825999999999997  1.0000
  N   N11       1.0  0.0023400000000000786  0.34554  0.9792399999999998  1.0000
  N   N12       1.0  0.33979999999999994  0.5361  0.20315999999999998  1.0000
  N   N13       1.0  0.74661  0.59153  0.2835  1.0000
  N   N14       1.0  0.6124900000000001  0.89762  0.22897  1.0000
  N   N15       1.0  0.39242000000000005  0.09361000000000001  0.7719399999999998  1.0000
  N   N16       1.0  0.83746  0.50814  0.65671  1.0000
  N   N17       1.0  0.51395  0.23622000000000004  0.24326  1.0000
  N   N18       1.0  0.70722  0.57609  0.80419  1.0000
  N   N19       1.0  0.14177000000000006  0.4166300000000001  0.6021099999999999  1.0000
  N   N20       1.0  0.3006400000000001  0.42789999999999995  0.21395  1.0000
  N   N21       1.0  0.16430000000000003  0.49582  0.35961  1.0000
  N   N22       1.0  0.43987000000000015  0.06662000000000004  0.8632999999999997  1.0000
  N   N23       1.0  0.47611  0.7408400000000002  0.7757699999999997  1.0000
  N   N24       1.0  0.51782  0.69374  0.68083  1.0000
  N   N25       1.0  0.6691399999999997  0.65893  0.3599599999999999  1.0000
  N   N26       1.0  0.78713  0.97057  0.09697999999999998  1.0000
  N   N27       1.0  0.24774000000000002  0.40841000000000005  0.7351699999999999  1.0000
  N   N28       1.0  0.032949999999999986  0.81973  0.026469999999999997  1.0000
  N   N29       1.0  0.47033  0.27283  0.34344  1.0000
  N   N30       1.0  0.66  0.4713  0.81292  1.0000
  O   O1        1.0  0.09587999999999999  0.19978999999999997  0.23461  1.0000
  O   O2        1.0  0.1391700000000001  0.16585000000000003  0.4894999999999999  1.0000
  O   O3        1.0  0.84916  0.8459599999999999  0.50527  1.0000
  O   O4        1.0  0.22721  0.01703  0.33226  1.0000
  O   O5        1.0  0.09334999999999999  0.8421100000000001  0.31284  1.0000
  O   O6        1.0  0.86582  0.02415  0.34322  1.0000
  O   O7        1.0  0.91998  0.79997  0.7495899999999999  1.0000
  O   O8        1.0  0.9200399999999999  0.9825299999999999  0.85988  1.0000
  O   O9        1.0  0.7796699999999995  0.98879  0.65994  1.0000
  O   O10       1.0  0.93408  0.36109  0.47923999999999994  1.0000
  O   O11       1.0  0.14144999999999996  0.97804  0.64648  1.0000
  O   O12       1.0  0.06662  0.64928  0.53381  1.0000
  O   O13       1.0  0.91354  0.1604  0.6881399999999998  1.0000
  O   O14       1.0  0.09304  0.00563  0.13094  1.0000
  O   O15       1.0  0.22012  0.82798  0.4893899999999999  1.0000
  O   O16       1.0  0.7726899999999999  0.18282999999999996  0.52093  1.0000
