data_image0
_chemical_formula_structural       Cu10H36C52I10N8
_chemical_formula_sum              "Cu10 H36 C52 I10 N8"
_cell_length_a       9.9978
_cell_length_b       14.59486
_cell_length_c       15.22813
_cell_angle_alpha    118.25496
_cell_angle_beta     95.63528000000001
_cell_angle_gamma    103.65196

_space_group_name_H-M_alt    "P 1"
_space_group_IT_number       1

loop_
  _space_group_symop_operation_xyz
  'x, y, z'

loop_
  _atom_site_type_symbol
  _atom_site_label
  _atom_site_symmetry_multiplicity
  _atom_site_fract_x
  _atom_site_fract_y
  _atom_site_fract_z
  _atom_site_occupancy
  Cu  Cu1       1.0  0.9446  0.57466  0.53396  1.0000
  Cu  Cu2       1.0  0.92367  0.6162799999999999  0.74308  1.0000
  Cu  Cu3       1.0  0.73893  0.72229  0.778  1.0000
  Cu  Cu4       1.0  0.6738  0.5137  0.7537400000000002  1.0000
  Cu  Cu5       1.0  0.84067  0.68329  0.9104900000000002  1.0000
  Cu  Cu6       1.0  0.055399999999999956  0.42534  0.46604000000000007  1.0000
  Cu  Cu7       1.0  0.07633000000000002  0.38372  0.25692000000000004  1.0000
  Cu  Cu8       1.0  0.26107  0.27771  0.22200000000000006  1.0000
  Cu  Cu9       1.0  0.3262  0.4862999999999999  0.24626000000000006  1.0000
  Cu  Cu10      1.0  0.15932999999999994  0.3167099999999999  0.08951000000000003  1.0000
  H   H1        1.0  0.10581  0.8082499999999999  0.6845900000000001  1.0000
  H   H2        1.0  0.30582999999999994  0.94539  0.6816500000000001  1.0000
  H   H3        1.0  0.18455999999999995  0.7446299999999999  0.3498300000000001  1.0000
  H   H4        1.0  0.98968  0.61725  0.3660000000000001  1.0000
  H   H5        1.0  0.25601  0.9437199999999998  0.39996  1.0000
  H   H6        1.0  0.42260999999999993  0.74436  0.51634  1.0000
  H   H7        1.0  0.50541  0.6625399999999998  0.61019  1.0000
  H   H8        1.0  0.7990899999999997  0.9607399999999998  0.83589  1.0000
  H   H9        1.0  0.72069  0.05859999999999995  0.75477  1.0000
  H   H10       1.0  0.09112999999999997  0.08880999999999993  0.92987  1.0000
  H   H11       1.0  0.056039999999999986  0.9804699999999998  0.7403  1.0000
  H   H12       1.0  0.08423999999999995  0.27941  0.73709  1.0000
  H   H13       1.0  0.11349  0.37483999999999995  0.9271900000000001  1.0000
  H   H14       1.0  0.87125  0.93058  0.59762  1.0000
  H   H15       1.0  0.18494000000000005  0.27299000000000007  0.5188100000000001  1.0000
  H   H16       1.0  0.40773000000000004  0.4287500000000001  0.5991600000000001  1.0000
  H   H17       1.0  0.57636  0.3092099999999998  0.76674  1.0000
  H   H18       1.0  0.35424000000000005  0.14978000000000005  0.69779  1.0000
  H   H19       1.0  0.8941899999999999  0.19175000000000006  0.31541000000000013  1.0000
  H   H20       1.0  0.69417  0.05461000000000008  0.31835000000000013  1.0000
  H   H21       1.0  0.8154399999999999  0.25537000000000004  0.6501700000000001  1.0000
  H   H22       1.0  0.01031999999999997  0.3827499999999999  0.6340000000000001  1.0000
  H   H23       1.0  0.74399  0.05628  0.6000400000000001  1.0000
  H   H24       1.0  0.57739  0.25564  0.48366000000000003  1.0000
  H   H25       1.0  0.49459  0.3374599999999999  0.38981000000000005  1.0000
  H   H26       1.0  0.20090999999999998  0.03926000000000002  0.16411  1.0000
  H   H27       1.0  0.27931  0.9414  0.24523000000000006  1.0000
  H   H28       1.0  0.90887  0.9111899999999999  0.07013  1.0000
  H   H29       1.0  0.9439599999999999  0.019529999999999995  0.25970000000000004  1.0000
  H   H30       1.0  0.9157600000000001  0.7205899999999998  0.26291  1.0000
  H   H31       1.0  0.8865099999999999  0.62516  0.07281000000000001  1.0000
  H   H32       1.0  0.12875  0.06941999999999998  0.40238  1.0000
  H   H33       1.0  0.8150599999999998  0.7270099999999998  0.48119  1.0000
  H   H34       1.0  0.59227  0.57125  0.40084  1.0000
  H   H35       1.0  0.42364  0.69079  0.23326000000000002  1.0000
  H   H36       1.0  0.64576  0.85022  0.30221  1.0000
  C   C1        1.0  0.12612999999999988  0.7986299999999997  0.61214  1.0000
  C   C2        1.0  0.23760000000000006  0.8741600000000002  0.6098800000000002  1.0000
  C   C3        1.0  0.2637699999999998  0.8557499999999996  0.51502  1.0000
  C   C4        1.0  0.16909999999999992  0.7642099999999997  0.42571  1.0000
  C   C5        1.0  0.06029999999999998  0.6921699999999998  0.4340900000000001  1.0000
  C   C6        1.0  0.3874699999999999  0.9276299999999998  0.5077900000000001  1.0000
  C   C7        1.0  0.3645399999999999  0.9663799999999998  0.44132000000000005  1.0000
  C   C8        1.0  0.5264899999999999  0.9600399999999998  0.5669600000000001  1.0000
  C   C9        1.0  0.56475  0.91005  0.6264800000000001  1.0000
  C   C10       1.0  0.5038700000000002  0.7972200000000002  0.5881100000000001  1.0000
  C   C11       1.0  0.55134  0.7501  0.6400200000000003  1.0000
  C   C12       1.0  0.7147700000000001  0.9163800000000001  0.7654900000000002  1.0000
  C   C13       1.0  0.6709  0.97025  0.7190400000000001  1.0000
  C   C14       1.0  0.08947000000000006  0.12774000000000016  0.8840200000000003  1.0000
  C   C15       1.0  0.0701  0.06792999999999999  0.77816  1.0000
  C   C16       1.0  0.06993999999999999  0.12116999999999999  0.72186  1.0000
  C   C17       1.0  0.0867  0.234  0.7766000000000001  1.0000
  C   C18       1.0  0.10308000000000003  0.28789  0.8825000000000001  1.0000
  C   C19       1.0  0.04286000000000001  0.05893000000000001  0.6086  1.0000
  C   C20       1.0  0.93042  0.9592299999999998  0.5541300000000001  1.0000
  C   C21       1.0  0.11675000000000002  0.10002000000000005  0.5532500000000001  1.0000
  C   C22       1.0  0.24783999999999998  0.19688  0.60203  1.0000
  C   C23       1.0  0.26724999999999993  0.27690999999999993  0.57394  1.0000
  C   C24       1.0  0.39281  0.3648399999999999  0.61862  1.0000
  C   C25       1.0  0.4856299999999999  0.2981899999999999  0.71255  1.0000
  C   C26       1.0  0.36147  0.20966  0.67371  1.0000
  C   C27       1.0  0.8738699999999999  0.20137  0.38786000000000004  1.0000
  C   C28       1.0  0.7624000000000001  0.12584000000000006  0.39012000000000013  1.0000
  C   C29       1.0  0.73623  0.14425000000000002  0.4849800000000001  1.0000
  C   C30       1.0  0.8309  0.23579000000000008  0.5742900000000002  1.0000
  C   C31       1.0  0.9397  0.30783  0.56591  1.0000
  C   C32       1.0  0.61253  0.07237  0.49221  1.0000
  C   C33       1.0  0.63546  0.03362000000000005  0.5586800000000001  1.0000
  C   C34       1.0  0.47351  0.039960000000000065  0.4330500000000001  1.0000
  C   C35       1.0  0.43525  0.08995000000000003  0.3735200000000001  1.0000
  C   C36       1.0  0.49612999999999996  0.20277999999999993  0.41189  1.0000
  C   C37       1.0  0.44866000000000017  0.2499  0.35998  1.0000
  C   C38       1.0  0.28523  0.08361000000000003  0.23451000000000005  1.0000
  C   C39       1.0  0.3291  0.029750000000000026  0.28096000000000004  1.0000
  C   C40       1.0  0.91053  0.87226  0.11598  1.0000
  C   C41       1.0  0.9299  0.93207  0.22184  1.0000
  C   C42       1.0  0.9300599999999999  0.8788299999999998  0.27814000000000005  1.0000
  C   C43       1.0  0.9133  0.7659999999999999  0.22340000000000004  1.0000
  C   C44       1.0  0.89692  0.71211  0.11751000000000003  1.0000
  C   C45       1.0  0.95714  0.9410699999999997  0.3914  1.0000
  C   C46       1.0  0.06958000000000004  0.04077000000000007  0.4458700000000001  1.0000
  C   C47       1.0  0.8832499999999999  0.89998  0.44675  1.0000
  C   C48       1.0  0.75216  0.80312  0.39797  1.0000
  C   C49       1.0  0.73275  0.72309  0.4260600000000001  1.0000
  C   C50       1.0  0.60719  0.6351599999999998  0.38138  1.0000
  C   C51       1.0  0.5143699999999999  0.7018099999999998  0.28745  1.0000
  C   C52       1.0  0.63853  0.7903399999999998  0.32629  1.0000
  I   I1        1.0  0.6995  0.5319  0.58013  1.0000
  I   I2        1.0  0.15268999999999988  0.5902899999999998  0.67242  1.0000
  I   I3        1.0  0.011990000000000051  0.84061  0.87459  1.0000
  I   I4        1.0  0.8966299999999999  0.49040000000000006  0.8438000000000001  1.0000
  I   I5        1.0  0.5550799999999999  0.6643299999999999  0.8730200000000002  1.0000
  I   I6        1.0  0.30050000000000004  0.46810000000000007  0.41988000000000003  1.0000
  I   I7        1.0  0.84731  0.40971  0.32758000000000004  1.0000
  I   I8        1.0  0.9880099999999999  0.15937999999999997  0.12541000000000002  1.0000
  I   I9        1.0  0.10337  0.5096  0.1562  1.0000
  I   I10       1.0  0.44492  0.33567  0.12698  1.0000
  N   N1        1.0  0.04004000000000003  0.70646  0.52567  1.0000
  N   N2        1.0  0.65868  0.8069699999999997  0.7258200000000001  1.0000
  N   N3        1.0  0.10573999999999999  0.23621999999999996  0.93622  1.0000
  N   N4        1.0  0.5024200000000001  0.37605000000000005  0.6862900000000001  1.0000
  N   N5        1.0  0.95996  0.29353999999999997  0.4743300000000001  1.0000
  N   N6        1.0  0.34132  0.19303000000000003  0.27418000000000003  1.0000
  N   N7        1.0  0.8942600000000002  0.76378  0.06378  1.0000
  N   N8        1.0  0.49758  0.6239500000000001  0.3137100000000001  1.0000
