data_image0
_chemical_formula_structural       Zn8H24C56N4O28
_chemical_formula_sum              "Zn8 H24 C56 N4 O28"
_cell_length_a       10.09996
_cell_length_b       15.17585
_cell_length_c       14.397320000000002
_cell_angle_alpha    89.98826
_cell_angle_beta     90.1119
_cell_angle_gamma    126.83266

_symmetry_space_group_name_H-M    'P 1'
_symmetry_Int_Tables_number       1

loop_
  _symmetry_equiv_pos_as_xyz
  'x,y,z'

loop_
  _atom_site_type_symbol
  _atom_site_label
  _atom_site_symmetry_multiplicity
  _atom_site_fract_x
  _atom_site_fract_y
  _atom_site_fract_z
  _atom_site_occupancy
  Zn  Zn1       1.0  0.34861  0.00043000000000000026  0.9653100000000002  1.0000
  Zn  Zn2       1.0  0.9665999999999999  0.89207  0.873  1.0000
  Zn  Zn3       1.0  0.65145  0.50015  0.4656  1.0000
  Zn  Zn4       1.0  0.03474000000000006  0.6121  0.37263  1.0000
  Zn  Zn5       1.0  0.65168  0.9997999999999999  0.03471  1.0000
  Zn  Zn6       1.0  0.03344  0.10795  0.127  1.0000
  Zn  Zn7       1.0  0.34864999999999996  0.49991999999999986  0.53439  1.0000
  Zn  Zn8       1.0  0.96546  0.3879799999999999  0.62738  1.0000
  H   H1        1.0  0.08796999999999985  0.66301  0.7334100000000001  1.0000
  H   H2        1.0  0.5507399999999998  0.7163999999999998  0.77856  1.0000
  H   H3        1.0  0.8312699999999996  0.9748699999999998  0.7577800000000002  1.0000
  H   H4        1.0  0.07852999999999997  0.88075  0.5231  1.0000
  H   H5        1.0  0.03165999999999987  0.8131299999999999  0.68446  1.0000
  H   H6        1.0  0.8617200000000002  0.04534999999999999  0.60129  1.0000
  H   H7        1.0  0.9086700000000001  0.83445  0.23347000000000007  1.0000
  H   H8        1.0  0.4489199999999998  0.7839499999999998  0.28025000000000005  1.0000
  H   H9        1.0  0.17126  0.52788  0.25799  1.0000
  H   H10       1.0  0.92129  0.61898  0.02163  1.0000
  H   H11       1.0  0.96987  0.68865  0.18267  1.0000
  H   H12       1.0  0.13913  0.45561  0.10205  1.0000
  H   H13       1.0  0.91217  0.3371  0.26664000000000004  1.0000
  H   H14       1.0  0.44945  0.28376  0.22153000000000006  1.0000
  H   H15       1.0  0.16882999999999998  0.025209999999999996  0.24225  1.0000
  H   H16       1.0  0.9213199999999999  0.11918999999999998  0.4769  1.0000
  H   H17       1.0  0.96824  0.18683999999999998  0.31555  1.0000
  H   H18       1.0  0.13842999999999978  0.9547599999999999  0.39874  1.0000
  H   H19       1.0  0.09163000000000003  0.16567  0.76646  1.0000
  H   H20       1.0  0.5513799999999999  0.21612999999999993  0.71976  1.0000
  H   H21       1.0  0.82912  0.4722999999999999  0.74195  1.0000
  H   H22       1.0  0.07868000000000004  0.38094  0.9783500000000003  1.0000
  H   H23       1.0  0.03035999999999996  0.31143999999999994  0.81725  1.0000
  H   H24       1.0  0.86092  0.54437  0.89795  1.0000
  C   C1        1.0  0.50212  0.80703  0.8678800000000002  1.0000
  C   C2        1.0  0.31556  0.68162  0.7452800000000003  1.0000
  C   C3        1.0  0.3902  0.83206  0.89258  1.0000
  C   C4        1.0  0.67175  0.86586  0.9079  1.0000
  C   C5        1.0  0.20377000000000006  0.70254  0.7711300000000002  1.0000
  C   C6        1.0  0.46266999999999986  0.7327199999999998  0.79624  1.0000
  C   C7        1.0  0.2346299999999999  0.7735599999999998  0.8442500000000002  1.0000
  C   C8        1.0  0.0986299999999998  0.7823299999999997  0.86355  1.0000
  C   C9        1.0  0.27613  0.60445  0.66782  1.0000
  C   C10       1.0  0.98144  0.97464  0.54661  1.0000
  C   C11       1.0  0.8835799999999998  0.9543699999999998  0.70355  1.0000
  C   C12       1.0  0.02412000000000016  0.9050599999999999  0.57214  1.0000
  C   C13       1.0  0.9992199999999999  0.8666299999999999  0.6627900000000002  1.0000
  C   C14       1.0  0.90249  0.99457  0.61429  1.0000
  C   C15       1.0  0.49853999999999987  0.6943699999999999  0.37021  1.0000
  C   C16       1.0  0.6827099999999998  0.8173699999999998  0.24624  1.0000
  C   C17       1.0  0.6104799999999999  0.6694199999999999  0.39536  1.0000
  C   C18       1.0  0.32861000000000007  0.63537  0.40929  1.0000
  C   C19       1.0  0.7943399999999998  0.7963699999999999  0.2721  1.0000
  C   C20       1.0  0.53704  0.76763  0.29795  1.0000
  C   C21       1.0  0.76462  0.7268  0.34619  1.0000
  C   C22       1.0  0.8995299999999998  0.7170499999999999  0.36449  1.0000
  C   C23       1.0  0.7209399999999999  0.8928099999999999  0.16765000000000005  1.0000
  C   C24       1.0  0.019139999999999973  0.52586  0.04643000000000001  1.0000
  C   C25       1.0  0.11839000000000001  0.54785  0.20353  1.0000
  C   C26       1.0  0.97659  0.59564  0.07118000000000002  1.0000
  C   C27       1.0  0.002249999999999911  0.6350099999999999  0.16156000000000004  1.0000
  C   C28       1.0  0.09890999999999997  0.50679  0.11449  1.0000
  C   C29       1.0  0.49800000000000005  0.19311  0.13218  1.0000
  C   C30       1.0  0.68461  0.31849  0.25476  1.0000
  C   C31       1.0  0.60994  0.16811  0.10745  1.0000
  C   C32       1.0  0.32836  0.13429  0.09218  1.0000
  C   C33       1.0  0.7963799999999999  0.29756999999999995  0.22892000000000004  1.0000
  C   C34       1.0  0.5374799999999998  0.26741999999999994  0.20382  1.0000
  C   C35       1.0  0.7655099999999999  0.22657  0.15579000000000007  1.0000
  C   C36       1.0  0.9015400000000001  0.21783999999999998  0.13648  1.0000
  C   C37       1.0  0.72409  0.39563  0.3322200000000001  1.0000
  C   C38       1.0  0.018579999999999996  0.025379999999999996  0.45341  1.0000
  C   C39       1.0  0.11648  0.04568999999999999  0.29648  1.0000
  C   C40       1.0  0.97581  0.09493  0.42786  1.0000
  C   C41       1.0  0.0007200000000000005  0.13336  0.33722000000000013  1.0000
  C   C42       1.0  0.0976  0.0055  0.38574  1.0000
  C   C43       1.0  0.5018  0.30574999999999997  0.6297600000000002  1.0000
  C   C44       1.0  0.31759999999999994  0.18271999999999997  0.75372  1.0000
  C   C45       1.0  0.38988  0.33072  0.60463  1.0000
  C   C46       1.0  0.67171  0.36475  0.59068  1.0000
  C   C47       1.0  0.206  0.20374  0.72787  1.0000
  C   C48       1.0  0.4632899999999999  0.23248  0.7020300000000002  1.0000
  C   C49       1.0  0.23576999999999995  0.27333999999999997  0.6537900000000001  1.0000
  C   C50       1.0  0.10091999999999998  0.28316  0.63553  1.0000
  C   C51       1.0  0.27937  0.10729999999999999  0.83232  1.0000
  C   C52       1.0  0.9808700000000001  0.4741  0.95357  1.0000
  C   C53       1.0  0.88184  0.45225  0.7964400000000003  1.0000
  C   C54       1.0  0.023449999999999898  0.4043299999999999  0.92881  1.0000
  C   C55       1.0  0.9979199999999999  0.36504  0.8384000000000001  1.0000
  C   C56       1.0  0.90119  0.49321999999999994  0.8855  1.0000
  N   N1        1.0  0.93488  0.89375  0.72899  1.0000
  N   N2        1.0  0.06701000000000006  0.60859  0.22835000000000005  1.0000
  N   N3        1.0  0.06510999999999999  0.10627  0.27103  1.0000
  N   N4        1.0  0.93324  0.39151999999999987  0.77162  1.0000
  O   O1        1.0  0.9586599999999996  0.7173899999999998  0.8282000000000003  1.0000
  O   O2        1.0  0.38836000000000004  0.59376  0.64415  1.0000
  O   O3        1.0  0.4286  0.90422  0.9587600000000002  1.0000
  O   O4        1.0  0.73555  0.81372  0.9060600000000002  1.0000
  O   O5        1.0  0.1268899999999997  0.8637099999999998  0.91692  1.0000
  O   O6        1.0  0.1329700000000001  0.55339  0.62984  1.0000
  O   O7        1.0  0.7536599999999998  0.9657999999999999  0.9351500000000003  1.0000
  O   O8        1.0  0.03614999999999997  0.77816  0.3246100000000001  1.0000
  O   O9        1.0  0.6086399999999998  0.9031799999999999  0.14335  1.0000
  O   O10       1.0  0.57358  0.59814  0.46216  1.0000
  O   O11       1.0  0.26490000000000014  0.68752  0.40703  1.0000
  O   O12       1.0  0.8750399999999998  0.6394199999999999  0.42135  1.0000
  O   O13       1.0  0.8636999999999999  0.94292  0.12954  1.0000
  O   O14       1.0  0.2469899999999999  0.53529  0.4355800000000001  1.0000
  O   O15       1.0  0.04151999999999998  0.2828  0.17184000000000005  1.0000
  O   O16       1.0  0.6118699999999999  0.4063199999999999  0.3559100000000001  1.0000
  O   O17       1.0  0.57163  0.09600999999999998  0.04122  1.0000
  O   O18       1.0  0.26455999999999996  0.18643999999999997  0.09412  1.0000
  O   O19       1.0  0.8733300000000002  0.13648  0.08310000000000002  1.0000
  O   O20       1.0  0.86726  0.4467  0.37017  1.0000
  O   O21       1.0  0.24644000000000002  0.03438  0.06488  1.0000
  O   O22       1.0  0.96437  0.22210999999999995  0.67547  1.0000
  O   O23       1.0  0.39176  0.09703  0.85666  1.0000
  O   O24       1.0  0.42665  0.40199  0.53785  1.0000
  O   O25       1.0  0.73542  0.31261  0.59296  1.0000
  O   O26       1.0  0.12526999999999994  0.36072999999999994  0.5786500000000002  1.0000
  O   O27       1.0  0.1366  0.05712999999999999  0.8704300000000003  1.0000
  O   O28       1.0  0.7532499999999998  0.4648099999999999  0.56437  1.0000
