data_image0
_chemical_formula_structural       Ba4H34C64O38
_chemical_formula_sum              "Ba4 H34 C64 O38"
_cell_length_a       10.21893
_cell_length_b       13.38368
_cell_length_c       15.373459999999998
_cell_angle_alpha    101.29446000000002
_cell_angle_beta     107.59405
_cell_angle_gamma    98.54153999999998

_space_group_name_H-M_alt    "P 1"
_space_group_IT_number       1

loop_
  _space_group_symop_operation_xyz
  'x, y, z'

loop_
  _atom_site_type_symbol
  _atom_site_label
  _atom_site_symmetry_multiplicity
  _atom_site_fract_x
  _atom_site_fract_y
  _atom_site_fract_z
  _atom_site_occupancy
  Ba  Ba1       1.0  0.5318699999999998  0.8176299999999997  0.4858599999999999  1.0000
  Ba  Ba2       1.0  0.08766000000000003  0.9287900000000001  0.38724  1.0000
  Ba  Ba3       1.0  0.46812  0.18236000000000002  0.51414  1.0000
  Ba  Ba4       1.0  0.91233  0.07121000000000002  0.61276  1.0000
  H   H1        1.0  0.7652999999999999  0.7736799999999999  0.9125399999999998  1.0000
  H   H2        1.0  0.7958799999999996  0.45705  0.9112399999999999  1.0000
  H   H3        1.0  0.14996999999999996  0.01608  0.02967  1.0000
  H   H4        1.0  0.011279999999999912  0.79041  0.7578699999999998  1.0000
  H   H5        1.0  0.67615  0.54656  0.64784  1.0000
  H   H6        1.0  0.53667  0.60312  0.9272  1.0000
  H   H7        1.0  0.40856  0.89545  0.01929  1.0000
  H   H8        1.0  0.7955299999999998  0.011289999999999998  0.25597  1.0000
  H   H9        1.0  0.44938  0.7046400000000002  0.18354999999999994  1.0000
  H   H10       1.0  0.66814  0.95312  0.08108  1.0000
  H   H11       1.0  0.36450000000000005  0.63473  0.00887  1.0000
  H   H12       1.0  0.04559  0.14308  0.84647  1.0000
  H   H13       1.0  0.8368799999999998  0.8232500000000001  0.46316  1.0000
  H   H14       1.0  0.87931  0.8134  0.57006  1.0000
  H   H15       1.0  0.6894199999999998  0.89345  0.7313599999999998  1.0000
  H   H16       1.0  0.72316  0.24366  0.73413  1.0000
  H   H17       1.0  0.0952199999999999  0.48340999999999995  0.8196199999999998  1.0000
  H   H18       1.0  0.23469  0.22632  0.08746  1.0000
  H   H19       1.0  0.20411  0.54295  0.08876  1.0000
  H   H20       1.0  0.85002  0.98391  0.97033  1.0000
  H   H21       1.0  0.9887099999999999  0.20958  0.24213  1.0000
  H   H22       1.0  0.32383999999999996  0.45344  0.35215999999999986  1.0000
  H   H23       1.0  0.46333  0.39688  0.07279999999999999  1.0000
  H   H24       1.0  0.5914300000000001  0.10455000000000002  0.98071  1.0000
  H   H25       1.0  0.20446  0.9886999999999999  0.74403  1.0000
  H   H26       1.0  0.5506099999999999  0.29535  0.8164499999999999  1.0000
  H   H27       1.0  0.33185  0.04687000000000001  0.91892  1.0000
  H   H28       1.0  0.63549  0.36526000000000003  0.99113  1.0000
  H   H29       1.0  0.9544000000000002  0.8569100000000002  0.15353  1.0000
  H   H30       1.0  0.1631099999999999  0.17675  0.5368399999999999  1.0000
  H   H31       1.0  0.12068  0.1866  0.42994  1.0000
  H   H32       1.0  0.31056999999999996  0.10655  0.26864  1.0000
  H   H33       1.0  0.27683  0.7563400000000002  0.26587  1.0000
  H   H34       1.0  0.90477  0.51659  0.18037999999999996  1.0000
  C   C1        1.0  0.7807899999999999  0.6169400000000002  0.9200599999999998  1.0000
  C   C2        1.0  0.15641999999999998  0.7609300000000002  0.97557  1.0000
  C   C3        1.0  0.7549199999999998  0.69453  0.8726499999999999  1.0000
  C   C4        1.0  0.09790000000000003  0.7328700000000001  0.8791  1.0000
  C   C5        1.0  0.7161299999999998  0.66867  0.7738599999999998  1.0000
  C   C6        1.0  0.77276  0.5153799999999998  0.8719599999999997  1.0000
  C   C7        1.0  0.13255999999999987  0.93703  0.9867799999999998  1.0000
  C   C8        1.0  0.73446  0.49034  0.77319  1.0000
  C   C9        1.0  0.05575999999999991  0.81085  0.8345999999999998  1.0000
  C   C10       1.0  0.07236000000000004  0.91225  0.88799  1.0000
  C   C11       1.0  0.17647000000000002  0.8598800000000001  0.0311  1.0000
  C   C12       1.0  0.9186199999999999  0.7046  0.20732999999999993  1.0000
  C   C13       1.0  0.7056  0.56657  0.72422  1.0000
  C   C14       1.0  0.46088999999999997  0.9507900000000001  0.25608  1.0000
  C   C15       1.0  0.07669000000000004  0.6252100000000002  0.81698  1.0000
  C   C16       1.0  0.57245  0.63403  0.003309999999999999  1.0000
  C   C17       1.0  0.3714199999999999  0.95186  0.31775999999999993  1.0000
  C   C18       1.0  0.71546  0.65541  0.05673  1.0000
  C   C19       1.0  0.71717  0.3814500000000001  0.71943  1.0000
  C   C20       1.0  0.66655  0.7095300000000001  0.20159  1.0000
  C   C21       1.0  0.7640600000000001  0.6910900000000002  0.15554  1.0000
  C   C22       1.0  0.70786  0.75304  0.30659  1.0000
  C   C23       1.0  0.39060999999999996  0.91945  0.15797  1.0000
  C   C24       1.0  0.68533  0.74828  0.7205  1.0000
  C   C25       1.0  0.4644899999999999  0.92051  0.09486999999999997  1.0000
  C   C26       1.0  0.03547999999999992  0.99349  0.8372899999999998  1.0000
  C   C27       1.0  0.6942199999999997  0.014809999999999974  0.39406999999999986  1.0000
  C   C28       1.0  0.60895  0.98336  0.29064  1.0000
  C   C29       1.0  0.6819899999999999  0.9846000000000001  0.22693  1.0000
  C   C30       1.0  0.52311  0.68937  0.14739  1.0000
  C   C31       1.0  0.6106099999999999  0.9533700000000003  0.13006  1.0000
  C   C32       1.0  0.47639999999999993  0.6513000000000001  0.04972999999999999  1.0000
  C   C33       1.0  0.21919999999999998  0.38306  0.07994  1.0000
  C   C34       1.0  0.8435699999999999  0.23906000000000002  0.02443  1.0000
  C   C35       1.0  0.24507  0.30547  0.12735  1.0000
  C   C36       1.0  0.90209  0.26713  0.12089999999999997  1.0000
  C   C37       1.0  0.28386  0.33132  0.22614  1.0000
  C   C38       1.0  0.22722999999999996  0.4846200000000001  0.12804  1.0000
  C   C39       1.0  0.86743  0.06297  0.013219999999999999  1.0000
  C   C40       1.0  0.26553  0.50966  0.22680999999999996  1.0000
  C   C41       1.0  0.9442299999999999  0.18915  0.16539999999999994  1.0000
  C   C42       1.0  0.9276299999999998  0.08774  0.11200999999999997  1.0000
  C   C43       1.0  0.82352  0.14011999999999997  0.9688999999999999  1.0000
  C   C44       1.0  0.08137000000000008  0.2954  0.79267  1.0000
  C   C45       1.0  0.29439  0.43343  0.27578  1.0000
  C   C46       1.0  0.5390999999999999  0.04919999999999993  0.7439199999999998  1.0000
  C   C47       1.0  0.9233  0.3747900000000001  0.18301999999999993  1.0000
  C   C48       1.0  0.42753999999999986  0.3659700000000001  0.9966899999999997  1.0000
  C   C49       1.0  0.62857  0.048140000000000044  0.68224  1.0000
  C   C50       1.0  0.28453  0.34459  0.94327  1.0000
  C   C51       1.0  0.28282000000000007  0.6185500000000002  0.28057  1.0000
  C   C52       1.0  0.33343999999999996  0.29046999999999995  0.7984099999999998  1.0000
  C   C53       1.0  0.2359299999999999  0.3089100000000001  0.8444599999999998  1.0000
  C   C54       1.0  0.2921299999999998  0.24695999999999996  0.6934099999999997  1.0000
  C   C55       1.0  0.60938  0.08054999999999998  0.84203  1.0000
  C   C56       1.0  0.31465999999999994  0.25172  0.27949999999999997  1.0000
  C   C57       1.0  0.5355  0.07949  0.90513  1.0000
  C   C58       1.0  0.96451  0.00651  0.16271  1.0000
  C   C59       1.0  0.3057699999999999  0.98519  0.6059299999999999  1.0000
  C   C60       1.0  0.39104  0.016629999999999992  0.70936  1.0000
  C   C61       1.0  0.318  0.015399999999999981  0.77307  1.0000
  C   C62       1.0  0.47688  0.31063  0.85261  1.0000
  C   C63       1.0  0.3893799999999999  0.04662999999999992  0.8699399999999998  1.0000
  C   C64       1.0  0.5235899999999998  0.3486999999999999  0.9502699999999997  1.0000
  O   O1        1.0  0.07126000000000002  0.09004999999999999  0.89042  1.0000
  O   O2        1.0  0.97972  0.96908  0.74943  1.0000
  O   O3        1.0  0.8318099999999999  0.85311  0.52861  1.0000
  O   O4        1.0  0.6423  0.72709  0.63263  1.0000
  O   O5        1.0  0.7073599999999999  0.84419  0.7746599999999998  1.0000
  O   O6        1.0  0.74592  0.31726  0.7747999999999998  1.0000
  O   O7        1.0  0.67512  0.35332  0.6317199999999998  1.0000
  O   O8        1.0  0.81996  0.64092  0.01785  1.0000
  O   O9        1.0  0.8387299999999999  0.79125  0.35729  1.0000
  O   O10       1.0  0.60962  0.7519999999999999  0.3409499999999999  1.0000
  O   O11       1.0  0.9617899999999998  0.63197  0.23939999999999997  1.0000
  O   O12       1.0  0.00015999999999995589  0.79286  0.21613999999999994  1.0000
  O   O13       1.0  0.24513  0.88878  0.1289  1.0000
  O   O14       1.0  0.11827000000000003  0.55637  0.86564  1.0000
  O   O15       1.0  0.02575999999999992  0.60607  0.7308099999999997  1.0000
  O   O16       1.0  0.3307999999999999  0.86953  0.3412499999999999  1.0000
  O   O17       1.0  0.62878  0.01664999999999996  0.4543899999999999  1.0000
  O   O18       1.0  0.82775  0.037949999999999984  0.41891999999999996  1.0000
  O   O19       1.0  0.33040999999999987  0.03571999999999998  0.3409399999999999  1.0000
  O   O20       1.0  0.92873  0.9099400000000001  0.10957999999999997  1.0000
  O   O21       1.0  0.020270000000000007  0.030910000000000007  0.25057  1.0000
  O   O22       1.0  0.16818999999999998  0.14689  0.47139  1.0000
  O   O23       1.0  0.35769000000000006  0.27291  0.36737  1.0000
  O   O24       1.0  0.29262999999999995  0.15581  0.22533999999999996  1.0000
  O   O25       1.0  0.25407  0.68273  0.2252  1.0000
  O   O26       1.0  0.32486999999999994  0.64668  0.3682799999999999  1.0000
  O   O27       1.0  0.1800299999999999  0.3590700000000001  0.98215  1.0000
  O   O28       1.0  0.16125999999999993  0.20874000000000006  0.64271  1.0000
  O   O29       1.0  0.39036999999999983  0.24799999999999994  0.6590499999999998  1.0000
  O   O30       1.0  0.038199999999999915  0.36803  0.7605999999999998  1.0000
  O   O31       1.0  0.9998299999999999  0.20713999999999996  0.7838599999999999  1.0000
  O   O32       1.0  0.75486  0.11121999999999997  0.8711  1.0000
  O   O33       1.0  0.88172  0.4436300000000001  0.13436  1.0000
  O   O34       1.0  0.97423  0.39393  0.26919  1.0000
  O   O35       1.0  0.6691899999999998  0.13047  0.65875  1.0000
  O   O36       1.0  0.37120999999999993  0.98335  0.54561  1.0000
  O   O37       1.0  0.17224  0.96205  0.58108  1.0000
  O   O38       1.0  0.66959  0.96427  0.65906  1.0000
