data_image0
_chemical_formula_structural       Ag6H48C66N12O6
_chemical_formula_sum              "Ag6 H48 C66 N12 O6"
_cell_length_a       8.64071
_cell_length_b       18.34249
_cell_length_c       18.17936
_cell_angle_alpha    117.51348000000002
_cell_angle_beta     99.14854000000001
_cell_angle_gamma    100.28334

_space_group_name_H-M_alt    "P 1"
_space_group_IT_number       1

loop_
  _space_group_symop_operation_xyz
  'x, y, z'

loop_
  _atom_site_type_symbol
  _atom_site_label
  _atom_site_symmetry_multiplicity
  _atom_site_fract_x
  _atom_site_fract_y
  _atom_site_fract_z
  _atom_site_occupancy
  Ag  Ag1       1.0  0.6321800000000002  0.96022  0.4617300000000001  1.0000
  Ag  Ag2       1.0  0.17449000000000003  0.54069  0.4986  1.0000
  Ag  Ag3       1.0  0.6756200000000001  0.50358  0.04328  1.0000
  Ag  Ag4       1.0  0.36722  0.039700000000000006  0.53829  1.0000
  Ag  Ag5       1.0  0.8250800000000001  0.45922  0.50107  1.0000
  Ag  Ag6       1.0  0.3241100000000001  0.49638000000000004  0.9566900000000003  1.0000
  H   H1        1.0  0.90951  0.9694999999999999  0.60435  1.0000
  H   H2        1.0  0.1528300000000002  0.08229000000000011  0.7219300000000002  1.0000
  H   H3        1.0  0.23065000000000002  0.22946999999999995  0.73677  1.0000
  H   H4        1.0  0.82532  0.13425  0.51404  1.0000
  H   H5        1.0  0.09794000000000001  0.17259999999999995  0.47569  1.0000
  H   H6        1.0  0.011570000000000023  0.18425  0.34335  1.0000
  H   H7        1.0  0.90413  0.30608  0.35625  1.0000
  H   H8        1.0  0.9685500000000001  0.40404  0.62078  1.0000
  H   H9        1.0  0.2855000000000001  0.39679  0.35952  1.0000
  H   H10       1.0  0.40146999999999994  0.2787099999999999  0.35  1.0000
  H   H11       1.0  0.47379  0.26485999999999993  0.48281  1.0000
  H   H12       1.0  0.3228  0.49063  0.62026  1.0000
  H   H13       1.0  0.61953  0.5309799999999999  0.69437  1.0000
  H   H14       1.0  0.66208  0.66102  0.83909  1.0000
  H   H15       1.0  0.53763  0.6432499999999999  0.94723  1.0000
  H   H16       1.0  0.3561400000000001  0.37853  0.7814900000000002  1.0000
  H   H17       1.0  0.9201500000000001  0.64338  0.03244  1.0000
  H   H18       1.0  0.03928000000000003  0.65175  0.91932  1.0000
  H   H19       1.0  0.98231  0.51619  0.77502  1.0000
  H   H20       1.0  0.7117300000000002  0.37949  0.87504  1.0000
  H   H21       1.0  0.93214  0.30633  0.8382  1.0000
  H   H22       1.0  0.83866  0.15788999999999997  0.81752  1.0000
  H   H23       1.0  0.6072200000000002  0.04757999999999997  0.6903  1.0000
  H   H24       1.0  0.56826  0.21899  0.60198  1.0000
  H   H25       1.0  0.0905  0.030499999999999992  0.39557  1.0000
  H   H26       1.0  0.8470000000000001  0.9177499999999998  0.27808  1.0000
  H   H27       1.0  0.7688800000000002  0.77067  0.26336  1.0000
  H   H28       1.0  0.1742499999999999  0.8658799999999998  0.4861  1.0000
  H   H29       1.0  0.9016300000000003  0.82732  0.52418  1.0000
  H   H30       1.0  0.9888200000000001  0.81589  0.65654  1.0000
  H   H31       1.0  0.09638999999999995  0.6940799999999999  0.64367  1.0000
  H   H32       1.0  0.029789999999999973  0.59555  0.3789  1.0000
  H   H33       1.0  0.7144700000000003  0.6031  0.64023  1.0000
  H   H34       1.0  0.59872  0.72131  0.64995  1.0000
  H   H35       1.0  0.52573  0.7351099999999997  0.51717  1.0000
  H   H36       1.0  0.67651  0.50932  0.37947  1.0000
  H   H37       1.0  0.38023  0.46907  0.3056  1.0000
  H   H38       1.0  0.33823  0.33890999999999993  0.16102  1.0000
  H   H39       1.0  0.46242000000000016  0.35675  0.05282  1.0000
  H   H40       1.0  0.6426900000000002  0.62157  0.21827  1.0000
  H   H41       1.0  0.07996  0.35642999999999997  0.96754  1.0000
  H   H42       1.0  0.96078  0.34793  0.08058  1.0000
  H   H43       1.0  0.01701  0.48346  0.22479  1.0000
  H   H44       1.0  0.28743000000000013  0.62044  0.12496000000000002  1.0000
  H   H45       1.0  0.06709999999999999  0.69357  0.1617  1.0000
  H   H46       1.0  0.16053000000000006  0.84205  0.18253  1.0000
  H   H47       1.0  0.3919100000000001  0.9523  0.30969000000000013  1.0000
  H   H48       1.0  0.43066000000000004  0.78089  0.39804  1.0000
  C   C1        1.0  0.9471100000000001  0.03314000000000002  0.61251  1.0000
  C   C2        1.0  0.08282  0.09653  0.67741  1.0000
  C   C3        1.0  0.12756000000000006  0.17765  0.68552  1.0000
  C   C4        1.0  0.034560000000000056  0.19223000000000007  0.6250200000000001  1.0000
  C   C5        1.0  0.90194  0.12463999999999995  0.56041  1.0000
  C   C6        1.0  0.05876000000000002  0.27921  0.6361  1.0000
  C   C7        1.0  0.02871999999999999  0.2853399999999999  0.55775  1.0000
  C   C8        1.0  0.045179999999999956  0.2229099999999999  0.47804  1.0000
  C   C9        1.0  0.9994300000000002  0.23050000000000004  0.4052500000000001  1.0000
  C   C10       1.0  0.9422900000000001  0.29863  0.41159  1.0000
  C   C11       1.0  0.9786800000000001  0.35479000000000005  0.56009  1.0000
  C   C12       1.0  0.31988  0.38937  0.41524  1.0000
  C   C13       1.0  0.38488999999999995  0.32390999999999986  0.4111  1.0000
  C   C14       1.0  0.42622  0.31626  0.48403  1.0000
  C   C15       1.0  0.40796000000000004  0.37863  0.56294  1.0000
  C   C16       1.0  0.34494000000000014  0.44354  0.56205  1.0000
  C   C17       1.0  0.42811  0.36767  0.63875  1.0000
  C   C18       1.0  0.47198999999999997  0.44499  0.72406  1.0000
  C   C19       1.0  0.5657  0.52631  0.74266  1.0000
  C   C20       1.0  0.5903  0.59796  0.82309  1.0000
  C   C21       1.0  0.5250100000000002  0.5888199999999998  0.88454  1.0000
  C   C22       1.0  0.42118000000000005  0.44008  0.7916  1.0000
  C   C23       1.0  0.9016500000000002  0.5865200000000002  0.9705500000000002  1.0000
  C   C24       1.0  0.9674000000000001  0.5900099999999999  0.90674  1.0000
  C   C25       1.0  0.93739  0.5157399999999998  0.82741  1.0000
  C   C26       1.0  0.8455400000000002  0.43666  0.81481  1.0000
  C   C27       1.0  0.7873000000000004  0.43814  0.88292  1.0000
  C   C28       1.0  0.7892800000000002  0.35883  0.72908  1.0000
  C   C29       1.0  0.7500300000000001  0.27419  0.7229700000000002  1.0000
  C   C30       1.0  0.8298300000000001  0.2567799999999999  0.78448  1.0000
  C   C31       1.0  0.77838  0.17442  0.77255  1.0000
  C   C32       1.0  0.6508300000000002  0.11206000000000003  0.70141  1.0000
  C   C33       1.0  0.62888  0.20679999999999996  0.65042  1.0000
  C   C34       1.0  0.05257999999999999  0.96695  0.38757  1.0000
  C   C35       1.0  0.91684  0.90357  0.3227  1.0000
  C   C36       1.0  0.8720400000000003  0.82246  0.31458  1.0000
  C   C37       1.0  0.96517  0.8078099999999998  0.37498  1.0000
  C   C38       1.0  0.09766999999999997  0.87543  0.43966  1.0000
  C   C39       1.0  0.94112  0.7207399999999999  0.36367  1.0000
  C   C40       1.0  0.9708100000000001  0.71455  0.442  1.0000
  C   C41       1.0  0.95445  0.77702  0.52176  1.0000
  C   C42       1.0  0.0004200000000000273  0.7695  0.59457  1.0000
  C   C43       1.0  0.05756000000000001  0.70136  0.58828  1.0000
  C   C44       1.0  0.02039000000000003  0.64499  0.43967  1.0000
  C   C45       1.0  0.6798899999999998  0.6105099999999998  0.58452  1.0000
  C   C46       1.0  0.61493  0.67602  0.58877  1.0000
  C   C47       1.0  0.57331  0.68369  0.51587  1.0000
  C   C48       1.0  0.5912300000000003  0.62129  0.43687  1.0000
  C   C49       1.0  0.6544200000000001  0.55641  0.4377  1.0000
  C   C50       1.0  0.57101  0.63239  0.36114  1.0000
  C   C51       1.0  0.52732  0.55507  0.27579  1.0000
  C   C52       1.0  0.43397  0.4737  0.25727  1.0000
  C   C53       1.0  0.40958  0.40202  0.17691  1.0000
  C   C54       1.0  0.47479  0.4112  0.11543000000000002  1.0000
  C   C55       1.0  0.5780600000000002  0.5599899999999999  0.20824000000000006  1.0000
  C   C56       1.0  0.09799999999999998  0.4133099999999999  0.02934  1.0000
  C   C57       1.0  0.032339999999999994  0.40973  0.09314  1.0000
  C   C58       1.0  0.06201999999999999  0.484  0.17245  1.0000
  C   C59       1.0  0.15370000000000003  0.56312  0.18507000000000004  1.0000
  C   C60       1.0  0.21202  0.56171  0.117  1.0000
  C   C61       1.0  0.21027  0.64099  0.27083  1.0000
  C   C62       1.0  0.24915000000000012  0.72566  0.2769600000000001  1.0000
  C   C63       1.0  0.1693300000000001  0.7431  0.21548  1.0000
  C   C64       1.0  0.22075999999999996  0.8254899999999998  0.22748  1.0000
  C   C65       1.0  0.34827  0.88786  0.29865000000000014  1.0000
  C   C66       1.0  0.37014  0.7930799999999997  0.34957  1.0000
  N   N1        1.0  0.8554  0.04677000000000004  0.55359  1.0000
  N   N2        1.0  0.9329000000000001  0.36138  0.48959  1.0000
  N   N3        1.0  0.29989  0.44954999999999995  0.49103  1.0000
  N   N4        1.0  0.44143  0.50992  0.86882  1.0000
  N   N5        1.0  0.8111000000000002  0.51048  0.95871  1.0000
  N   N6        1.0  0.57553  0.12791  0.64044  1.0000
  N   N7        1.0  0.1440899999999999  0.9533199999999998  0.44654  1.0000
  N   N8        1.0  0.06630999999999997  0.63846  0.51019  1.0000
  N   N9        1.0  0.69973  0.55039  0.50869  1.0000
  N   N10       1.0  0.5580500000000003  0.49010999999999993  0.13108  1.0000
  N   N11       1.0  0.18837  0.48939  0.04118  1.0000
  N   N12       1.0  0.4235300000000002  0.8719999999999999  0.3596200000000001  1.0000
  O   O1        1.0  0.10155999999999998  0.34322  0.71117  1.0000
  O   O2        1.0  0.40629  0.29348  0.62891  1.0000
  O   O3        1.0  0.76804  0.36467999999999995  0.66242  1.0000
  O   O4        1.0  0.89894  0.65693  0.28856  1.0000
  O   O5        1.0  0.59323  0.70668  0.37125  1.0000
  O   O6        1.0  0.23222000000000007  0.6351400000000001  0.3375  1.0000
