data_image0
_chemical_formula_structural       Ce4H48C48N12O36
_chemical_formula_sum              "Ce4 H48 C48 N12 O36"
_cell_length_a       7.9776
_cell_length_b       11.14542
_cell_length_c       22.528439999999996
_cell_angle_alpha    89.94088
_cell_angle_beta     89.96698999999998
_cell_angle_gamma    99.0448

_space_group_name_H-M_alt    "P 1"
_space_group_IT_number       1

loop_
  _space_group_symop_operation_xyz
  'x, y, z'

loop_
  _atom_site_type_symbol
  _atom_site_label
  _atom_site_symmetry_multiplicity
  _atom_site_fract_x
  _atom_site_fract_y
  _atom_site_fract_z
  _atom_site_occupancy
  Ce  Ce1       1.0  0.37030000000000013  0.72134  0.7257800000000001  1.0000
  Ce  Ce2       1.0  0.13191000000000005  0.28041  0.22652000000000003  1.0000
  Ce  Ce3       1.0  0.62967  0.27866  0.27422  1.0000
  Ce  Ce4       1.0  0.86809  0.7195899999999998  0.77349  1.0000
  H   H1        1.0  0.24779  0.20457  0.69365  1.0000
  H   H2        1.0  0.2642  0.10563999999999998  0.6324  1.0000
  H   H3        1.0  0.98168  0.97825  0.67451  1.0000
  H   H4        1.0  0.03146  0.057249999999999995  0.74135  1.0000
  H   H5        1.0  0.7671000000000002  0.22238  0.46506  1.0000
  H   H6        1.0  0.9022400000000003  0.10841  0.46836  1.0000
  H   H7        1.0  0.029069999999999988  0.38093999999999995  0.45102  1.0000
  H   H8        1.0  0.15183  0.26224  0.44118000000000007  1.0000
  H   H9        1.0  0.89349  0.48169  0.68575  1.0000
  H   H10       1.0  0.80187  0.51129  0.6161200000000001  1.0000
  H   H11       1.0  0.54486  0.35402  0.6419900000000001  1.0000
  H   H12       1.0  0.63116  0.34503  0.7146300000000001  1.0000
  H   H13       1.0  0.25203999999999993  0.7953199999999999  0.19378000000000004  1.0000
  H   H14       1.0  0.236  0.8945499999999998  0.13261  1.0000
  H   H15       1.0  0.51814  0.02191  0.1748  1.0000
  H   H16       1.0  0.46834000000000015  0.9423699999999999  0.24157  1.0000
  H   H17       1.0  0.7328300000000002  0.7777399999999999  0.96519  1.0000
  H   H18       1.0  0.59778  0.8917599999999999  0.96844  1.0000
  H   H19       1.0  0.4712800000000001  0.61947  0.95067  1.0000
  H   H20       1.0  0.34825  0.73819  0.9412400000000001  1.0000
  H   H21       1.0  0.6054500000000003  0.51731  0.18596000000000001  1.0000
  H   H22       1.0  0.69837  0.48815  0.11644  1.0000
  H   H23       1.0  0.95437  0.64635  0.14238  1.0000
  H   H24       1.0  0.8665400000000002  0.65628  0.21456000000000003  1.0000
  H   H25       1.0  0.7522100000000002  0.79543  0.30635  1.0000
  H   H26       1.0  0.7358  0.8943599999999999  0.3676  1.0000
  H   H27       1.0  0.01831  0.021749999999999995  0.32549000000000006  1.0000
  H   H28       1.0  0.9685400000000002  0.9427499999999999  0.25865  1.0000
  H   H29       1.0  0.23289999999999997  0.77762  0.53494  1.0000
  H   H30       1.0  0.09775000000000003  0.89159  0.5316400000000001  1.0000
  H   H31       1.0  0.9709299999999998  0.6190599999999999  0.54898  1.0000
  H   H32       1.0  0.8481600000000002  0.7377599999999999  0.5588300000000002  1.0000
  H   H33       1.0  0.10651000000000002  0.51831  0.31425  1.0000
  H   H34       1.0  0.19812  0.48871  0.38388  1.0000
  H   H35       1.0  0.45514  0.64598  0.35801000000000005  1.0000
  H   H36       1.0  0.36884  0.65497  0.28538  1.0000
  H   H37       1.0  0.74795  0.20468  0.80622  1.0000
  H   H38       1.0  0.764  0.10545  0.86739  1.0000
  H   H39       1.0  0.48185  0.9780899999999999  0.8252  1.0000
  H   H40       1.0  0.53166  0.05763  0.7584300000000002  1.0000
  H   H41       1.0  0.26717000000000013  0.22227  0.03481  1.0000
  H   H42       1.0  0.40221  0.10824  0.03156  1.0000
  H   H43       1.0  0.52871  0.38053  0.049330000000000006  1.0000
  H   H44       1.0  0.65175  0.26181  0.05876  1.0000
  H   H45       1.0  0.39453999999999995  0.48269  0.81404  1.0000
  H   H46       1.0  0.30163  0.51185  0.88356  1.0000
  H   H47       1.0  0.04562999999999998  0.35364  0.8576200000000002  1.0000
  H   H48       1.0  0.13345  0.34372  0.7854400000000001  1.0000
  C   C1        1.0  0.03925  0.16968  0.56894  1.0000
  C   C2        1.0  0.8519300000000002  0.32598  0.56258  1.0000
  C   C3        1.0  0.96293  0.27251  0.6596500000000001  1.0000
  C   C4        1.0  0.17682  0.13611  0.66442  1.0000
  C   C5        1.0  0.08750000000000001  0.0282  0.70042  1.0000
  C   C6        1.0  0.20083  0.93609  0.7158  1.0000
  C   C7        1.0  0.8952900000000001  0.20482  0.47491000000000005  1.0000
  C   C8        1.0  0.024520000000000014  0.28628  0.43622  1.0000
  C   C9        1.0  0.9757700000000002  0.28341  0.37096  1.0000
  C   C10       1.0  0.8048799999999999  0.44399999999999995  0.65111  1.0000
  C   C11       1.0  0.6262500000000002  0.40396  0.6758  1.0000
  C   C12       1.0  0.54373  0.50995  0.6953100000000001  1.0000
  C   C13       1.0  0.46049  0.83028  0.06902  1.0000
  C   C14       1.0  0.64701  0.6735699999999999  0.06264  1.0000
  C   C15       1.0  0.53677  0.72722  0.15972  1.0000
  C   C16       1.0  0.32326  0.86395  0.16462  1.0000
  C   C17       1.0  0.41232  0.9717  0.20068  1.0000
  C   C18       1.0  0.29863  0.06341  0.21626  1.0000
  C   C19       1.0  0.60458  0.7953  0.97495  1.0000
  C   C20       1.0  0.47556  0.71427  0.9361200000000002  1.0000
  C   C21       1.0  0.52428  0.71839  0.8708100000000001  1.0000
  C   C22       1.0  0.69446  0.55536  0.15138  1.0000
  C   C23       1.0  0.8726599999999999  0.59634  0.17621000000000003  1.0000
  C   C24       1.0  0.9574200000000002  0.49185  0.1968  1.0000
  C   C25       1.0  0.9607399999999999  0.83033  0.43106  1.0000
  C   C26       1.0  0.14807  0.67403  0.43742  1.0000
  C   C27       1.0  0.037059999999999996  0.72749  0.34035  1.0000
  C   C28       1.0  0.82318  0.86389  0.33558  1.0000
  C   C29       1.0  0.9125000000000001  0.9718  0.29959  1.0000
  C   C30       1.0  0.79916  0.06391  0.28420000000000006  1.0000
  C   C31       1.0  0.10471000000000003  0.79518  0.5251  1.0000
  C   C32       1.0  0.9754700000000002  0.71373  0.56378  1.0000
  C   C33       1.0  0.02422999999999999  0.7166  0.62904  1.0000
  C   C34       1.0  0.19512  0.556  0.34889  1.0000
  C   C35       1.0  0.37374  0.59604  0.3242  1.0000
  C   C36       1.0  0.45625000000000004  0.49004999999999993  0.30469  1.0000
  C   C37       1.0  0.5395  0.16973  0.9309800000000001  1.0000
  C   C38       1.0  0.35298  0.32643  0.93736  1.0000
  C   C39       1.0  0.46322000000000013  0.27278  0.84028  1.0000
  C   C40       1.0  0.67673  0.13605  0.8353800000000001  1.0000
  C   C41       1.0  0.5876800000000002  0.0283  0.79932  1.0000
  C   C42       1.0  0.70136  0.9365899999999998  0.7837400000000001  1.0000
  C   C43       1.0  0.3954200000000001  0.20469999999999997  0.02506  1.0000
  C   C44       1.0  0.52444  0.28573  0.06388  1.0000
  C   C45       1.0  0.4757100000000001  0.28162  0.12919  1.0000
  C   C46       1.0  0.30553  0.44464  0.84862  1.0000
  C   C47       1.0  0.12733  0.40364999999999995  0.8237900000000001  1.0000
  C   C48       1.0  0.04257  0.50815  0.8032000000000001  1.0000
  N   N1        1.0  0.05674  0.19619  0.62968  1.0000
  N   N2        1.0  0.9252900000000002  0.23094  0.53861  1.0000
  N   N3        1.0  0.87623  0.3437  0.62361  1.0000
  N   N4        1.0  0.4432500000000002  0.80389  0.12982  1.0000
  N   N5        1.0  0.57413  0.76885  0.03865  1.0000
  N   N6        1.0  0.6226  0.65553  0.12369  1.0000
  N   N7        1.0  0.94326  0.80381  0.37032  1.0000
  N   N8        1.0  0.0747  0.76906  0.4613900000000001  1.0000
  N   N9        1.0  0.12376000000000002  0.6563  0.37639000000000006  1.0000
  N   N10       1.0  0.55674  0.19611999999999996  0.87018  1.0000
  N   N11       1.0  0.42586  0.23114999999999997  0.96135  1.0000
  N   N12       1.0  0.3774  0.34447  0.8763100000000001  1.0000
  O   O1        1.0  0.7702000000000002  0.38825  0.53266  1.0000
  O   O2        1.0  0.9598100000000003  0.27902  0.7141  1.0000
  O   O3        1.0  0.11678  0.09684  0.54455  1.0000
  O   O4        1.0  0.34018  0.93433  0.68951  1.0000
  O   O5        1.0  0.14904999999999996  0.8542699999999999  0.7560200000000001  1.0000
  O   O6        1.0  0.0918  0.2719  0.33313  1.0000
  O   O7        1.0  0.82494  0.29665  0.35745  1.0000
  O   O8        1.0  0.62318  0.59018  0.73176  1.0000
  O   O9        1.0  0.39732  0.52141  0.6771200000000002  1.0000
  O   O10       1.0  0.7283100000000002  0.6112299999999999  0.03264  1.0000
  O   O11       1.0  0.54049  0.72095  0.21421  1.0000
  O   O12       1.0  0.3830300000000001  0.90314  0.04457  1.0000
  O   O13       1.0  0.15880000000000005  0.06495  0.19057000000000004  1.0000
  O   O14       1.0  0.35111  0.14574  0.25628  1.0000
  O   O15       1.0  0.40936999999999996  0.7332499999999998  0.83316  1.0000
  O   O16       1.0  0.67467  0.70337  0.85723  1.0000
  O   O17       1.0  0.8759600000000002  0.4079999999999999  0.2312  1.0000
  O   O18       1.0  0.10786999999999998  0.48505999999999994  0.18135  1.0000
  O   O19       1.0  0.22979  0.61175  0.4673400000000001  1.0000
  O   O20       1.0  0.040190000000000024  0.72098  0.2859  1.0000
  O   O21       1.0  0.88321  0.9031699999999999  0.45545  1.0000
  O   O22       1.0  0.65981  0.06566  0.31049  1.0000
  O   O23       1.0  0.8509400000000003  0.14573  0.24398  1.0000
  O   O24       1.0  0.9081900000000003  0.7281  0.66687  1.0000
  O   O25       1.0  0.17506  0.70334  0.64255  1.0000
  O   O26       1.0  0.3768100000000001  0.40981999999999996  0.26824  1.0000
  O   O27       1.0  0.6026700000000003  0.47859  0.32288  1.0000
  O   O28       1.0  0.27168  0.38878  0.96736  1.0000
  O   O29       1.0  0.4595  0.27906  0.7857900000000001  1.0000
  O   O30       1.0  0.61696  0.09686  0.95544  1.0000
  O   O31       1.0  0.84119  0.93504  0.80943  1.0000
  O   O32       1.0  0.64888  0.85426  0.74372  1.0000
  O   O33       1.0  0.59062  0.26676  0.16684  1.0000
  O   O34       1.0  0.32532  0.29663  0.14277  1.0000
  O   O35       1.0  0.12403  0.592  0.7688000000000001  1.0000
  O   O36       1.0  0.89212  0.51494  0.8186500000000001  1.0000
