data_image0
_chemical_formula_structural       Zn7H28C44N18O20
_chemical_formula_sum              "Zn7 H28 C44 N18 O20"
_cell_length_a       9.9308
_cell_length_b       11.83397
_cell_length_c       15.202830000000002
_cell_angle_alpha    94.49879
_cell_angle_beta     98.58754
_cell_angle_gamma    113.61618

_symmetry_space_group_name_H-M    'P 1'
_symmetry_Int_Tables_number       1

loop_
  _symmetry_equiv_pos_as_xyz
  'x,y,z'

loop_
  _atom_site_type_symbol
  _atom_site_label
  _atom_site_symmetry_multiplicity
  _atom_site_fract_x
  _atom_site_fract_y
  _atom_site_fract_z
  _atom_site_occupancy
  Zn  Zn1       1.0  0.9890400000000001  0.06867999999999996  0.7931799999999998  1.0000
  Zn  Zn2       1.0  0.45225  0.11387999999999995  0.5666399999999998  1.0000
  Zn  Zn3       1.0  0.11340000000000004  0.8104700000000001  0.83282  1.0000
  Zn  Zn4       1.0  0.010959999999999989  0.93131  0.20682  1.0000
  Zn  Zn5       1.0  0.5477499999999998  0.88612  0.4333599999999999  1.0000
  Zn  Zn6       1.0  0.8866000000000002  0.18952  0.16718  1.0000
  Zn  Zn7       1.0  0.5  0.0  0.0  1.0000
  H   H1        1.0  0.77674  0.52678  0.93943  1.0000
  H   H2        1.0  0.24203000000000002  0.65495  0.58093  1.0000
  H   H3        1.0  0.65913  0.95479  0.8453299999999998  1.0000
  H   H4        1.0  0.07220000000000001  0.19035  0.012429999999999997  1.0000
  H   H5        1.0  0.73584  0.18159999999999998  0.7324399999999998  1.0000
  H   H6        1.0  0.81037  0.89897  0.5899  1.0000
  H   H7        1.0  0.17726000000000003  0.15085000000000004  0.6362299999999999  1.0000
  H   H8        1.0  0.35986  0.89621  0.70331  1.0000
  H   H9        1.0  0.18429999999999994  0.48533  0.8371099999999998  1.0000
  H   H10       1.0  0.5387  0.36732  0.9023399999999998  1.0000
  H   H11       1.0  0.6413499999999999  0.7598100000000001  0.9247199999999998  1.0000
  H   H12       1.0  0.70871  0.49844  0.67719  1.0000
  H   H13       1.0  0.27526999999999996  0.47036  0.5546699999999998  1.0000
  H   H14       1.0  0.6031700000000001  0.8153300000000001  0.71517  1.0000
  H   H15       1.0  0.22326  0.47321  0.06055999999999999  1.0000
  H   H16       1.0  0.75797  0.34504  0.41907  1.0000
  H   H17       1.0  0.34088  0.04521  0.15466999999999995  1.0000
  H   H18       1.0  0.9277999999999997  0.80964  0.9875699999999997  1.0000
  H   H19       1.0  0.26415999999999995  0.81839  0.26756  1.0000
  H   H20       1.0  0.18963000000000002  0.10102000000000001  0.41009  1.0000
  H   H21       1.0  0.82274  0.84914  0.36376999999999987  1.0000
  H   H22       1.0  0.64014  0.10378  0.29668  1.0000
  H   H23       1.0  0.8157  0.51466  0.16288999999999995  1.0000
  H   H24       1.0  0.4613  0.63267  0.09764999999999997  1.0000
  H   H25       1.0  0.35865  0.24018  0.07527999999999997  1.0000
  H   H26       1.0  0.29128999999999994  0.50155  0.32279999999999986  1.0000
  H   H27       1.0  0.7247300000000002  0.52963  0.44532  1.0000
  H   H28       1.0  0.39683  0.18466  0.28483  1.0000
  C   C1        1.0  0.74385  0.016620000000000034  0.90153  1.0000
  C   C2        1.0  0.95347  0.13453999999999997  0.9871499999999997  1.0000
  C   C3        1.0  0.72716  0.10782999999999997  0.6819099999999999  1.0000
  C   C4        1.0  0.76718  0.9658099999999998  0.6098599999999997  1.0000
  C   C5        1.0  0.19873  0.07836000000000003  0.66679  1.0000
  C   C6        1.0  0.29546  0.95165  0.7020599999999998  1.0000
  C   C7        1.0  0.35163  0.73274  0.873  1.0000
  C   C8        1.0  0.23638  0.27989  0.8557899999999998  1.0000
  C   C9        1.0  0.40708  0.6334  0.88003  1.0000
  C   C10       1.0  0.30255  0.50822  0.8590499999999998  1.0000
  C   C11       1.0  0.35014999999999996  0.41292  0.8685799999999999  1.0000
  C   C12       1.0  0.50337  0.44255000000000005  0.89403  1.0000
  C   C13       1.0  0.60741  0.56722  0.9107899999999998  1.0000
  C   C14       1.0  0.5600499999999998  0.6633399999999999  0.9067299999999998  1.0000
  C   C15       1.0  0.82473  0.7402900000000001  0.75773  1.0000
  C   C16       1.0  0.4383799999999999  0.33621999999999996  0.5780499999999997  1.0000
  C   C17       1.0  0.6726500000000002  0.6652400000000003  0.70135  1.0000
  C   C18       1.0  0.63061  0.54104  0.66462  1.0000
  C   C19       1.0  0.48696999999999996  0.47134999999999994  0.6128099999999997  1.0000
  C   C20       1.0  0.3861  0.52644  0.5957599999999997  1.0000
  C   C21       1.0  0.42975  0.65091  0.63183  1.0000
  C   C22       1.0  0.5714  0.7196  0.68552  1.0000
  C   C23       1.0  0.25615000000000004  0.9833700000000001  0.09845999999999998  1.0000
  C   C24       1.0  0.04653000000000008  0.8654500000000002  0.012849999999999997  1.0000
  C   C25       1.0  0.2728500000000001  0.8921700000000001  0.3180899999999999  1.0000
  C   C26       1.0  0.23282  0.03418  0.39014  1.0000
  C   C27       1.0  0.80127  0.92163  0.3331999999999999  1.0000
  C   C28       1.0  0.70454  0.04833999999999998  0.29792999999999986  1.0000
  C   C29       1.0  0.6483699999999999  0.26725  0.127  1.0000
  C   C30       1.0  0.76362  0.72011  0.14421  1.0000
  C   C31       1.0  0.5929199999999999  0.36659  0.11996999999999997  1.0000
  C   C32       1.0  0.6974500000000001  0.4917700000000001  0.14094  1.0000
  C   C33       1.0  0.64985  0.58707  0.13141999999999995  1.0000
  C   C34       1.0  0.49663  0.55745  0.10597  1.0000
  C   C35       1.0  0.39259  0.43277  0.08920999999999997  1.0000
  C   C36       1.0  0.43995999999999996  0.33665  0.09326  1.0000
  C   C37       1.0  0.17527  0.2597  0.24227  1.0000
  C   C38       1.0  0.56162  0.66377  0.4219499999999999  1.0000
  C   C39       1.0  0.32735  0.33475  0.2986499999999999  1.0000
  C   C40       1.0  0.36939  0.45895  0.3353699999999999  1.0000
  C   C41       1.0  0.51303  0.52864  0.38718  1.0000
  C   C42       1.0  0.6138999999999999  0.47354999999999997  0.40422999999999987  1.0000
  C   C43       1.0  0.57025  0.34908  0.36817  1.0000
  C   C44       1.0  0.4286  0.28039  0.31448  1.0000
  N   N1        1.0  0.7121899999999999  0.04741999999999995  0.9799799999999997  1.0000
  N   N2        1.0  0.89256  0.06958999999999997  0.90303  1.0000
  N   N3        1.0  0.8481500000000001  0.12304000000000001  0.03539  1.0000
  N   N4        1.0  0.8180499999999999  0.04759999999999995  0.6874299999999998  1.0000
  N   N5        1.0  0.6246  0.06577  0.60547  1.0000
  N   N6        1.0  0.6508500000000002  0.97449  0.55916  1.0000
  N   N7        1.0  0.12756  0.017449999999999993  0.72777  1.0000
  N   N8        1.0  0.19021999999999997  0.93681  0.75084  1.0000
  N   N9        1.0  0.30485  0.03975999999999995  0.6484399999999998  1.0000
  N   N10       1.0  0.2878100000000001  0.95257  0.020019999999999996  1.0000
  N   N11       1.0  0.10744  0.9304  0.09697  1.0000
  N   N12       1.0  0.15185000000000004  0.87696  0.9646099999999997  1.0000
  N   N13       1.0  0.18194999999999997  0.95239  0.31257  1.0000
  N   N14       1.0  0.3754  0.9342200000000002  0.39451999999999987  1.0000
  N   N15       1.0  0.34915  0.02549999999999998  0.44084  1.0000
  N   N16       1.0  0.87244  0.98254  0.27223  1.0000
  N   N17       1.0  0.80978  0.06317999999999999  0.24915999999999994  1.0000
  N   N18       1.0  0.6951500000000002  0.96023  0.35155999999999993  1.0000
  O   O1        1.0  0.4415700000000001  0.8475000000000001  0.9023199999999998  1.0000
  O   O2        1.0  0.21455000000000002  0.6967700000000001  0.83534  1.0000
  O   O3        1.0  0.10796000000000001  0.25549  0.80439  1.0000
  O   O4        1.0  0.26657999999999993  0.2001199999999999  0.8938799999999998  1.0000
  O   O5        1.0  0.75962  0.6014  0.9337499999999997  1.0000
  O   O6        1.0  0.8587000000000001  0.8499700000000001  0.7958399999999998  1.0000
  O   O7        1.0  0.91657  0.68768  0.7649899999999997  1.0000
  O   O8        1.0  0.54203  0.29471  0.5954  1.0000
  O   O9        1.0  0.30648  0.26886  0.53806  1.0000
  O   O10       1.0  0.33779  0.71251  0.6176299999999998  1.0000
  O   O11       1.0  0.55843  0.15249  0.09767  1.0000
  O   O12       1.0  0.78545  0.30322  0.16466  1.0000
  O   O13       1.0  0.89204  0.7445000000000002  0.19561  1.0000
  O   O14       1.0  0.73342  0.79987  0.10611  1.0000
  O   O15       1.0  0.24038  0.39860000000000007  0.06625  1.0000
  O   O16       1.0  0.1413  0.15002  0.20416  1.0000
  O   O17       1.0  0.08342999999999998  0.31231  0.23500999999999994  1.0000
  O   O18       1.0  0.45797  0.70528  0.4045999999999999  1.0000
  O   O19       1.0  0.69352  0.73113  0.4619399999999999  1.0000
  O   O20       1.0  0.66221  0.28748  0.38237  1.0000
