data_image0
_chemical_formula_structural       Cd3H54C78N12Cl6
_chemical_formula_sum              "Cd3 H54 C78 N12 Cl6"
_cell_length_a       13.43389
_cell_length_b       16.27271
_cell_length_c       16.27276
_cell_angle_alpha    112.83358999999999
_cell_angle_beta     105.95802
_cell_angle_gamma    105.95854

_space_group_name_H-M_alt    "P 1"
_space_group_IT_number       1

loop_
  _space_group_symop_operation_xyz
  'x, y, z'

loop_
  _atom_site_type_symbol
  _atom_site_label
  _atom_site_symmetry_multiplicity
  _atom_site_fract_x
  _atom_site_fract_y
  _atom_site_fract_z
  _atom_site_occupancy
  Cd  Cd1       1.0  0.5  0.5  0.0  1.0000
  Cd  Cd2       1.0  0.49999999999999994  0.0  0.5  1.0000
  Cd  Cd3       1.0  2.220446049250313e-16  0.5  0.5  1.0000
  H   H1        1.0  0.39103  0.56224  0.84425  1.0000
  H   H2        1.0  0.37038  0.5474900000000003  0.68067  1.0000
  H   H3        1.0  0.6394899999999999  0.44890000000000013  0.70371  1.0000
  H   H4        1.0  0.6462499999999999  0.4660700000000001  0.8653400000000002  1.0000
  H   H5        1.0  0.54681  0.15634  0.71831  1.0000
  H   H6        1.0  0.6905299999999999  0.32012  0.86674  1.0000
  H   H7        1.0  0.93501  0.29511  0.74337  1.0000
  H   H8        1.0  0.7794400000000001  0.13334000000000004  0.5995600000000001  1.0000
  H   H9        1.0  0.82886  0.28199  0.43784  1.0000
  H   H10       1.0  0.82303  0.13345  0.4533  1.0000
  H   H11       1.0  0.19076000000000007  0.25513000000000013  0.55148  1.0000
  H   H12       1.0  0.18032999999999996  0.3990699999999999  0.53334  1.0000
  H   H13       1.0  0.4531800000000001  0.28169000000000005  0.84366  1.0000
  H   H14       1.0  0.30946  0.13325  0.67988  1.0000
  H   H15       1.0  0.06498  0.25662000000000007  0.70489  1.0000
  H   H16       1.0  0.22056  0.40044  0.86666  1.0000
  H   H17       1.0  0.17113000000000014  0.5621500000000003  0.7180100000000003  1.0000
  H   H18       1.0  0.17697  0.5467000000000002  0.86655  1.0000
  H   H19       1.0  0.80924  0.4485200000000001  0.7448600000000001  1.0000
  H   H20       1.0  0.81967  0.46665000000000006  0.60093  1.0000
  H   H21       1.0  0.60897  0.15575  0.43776  1.0000
  H   H22       1.0  0.6296199999999998  0.3193300000000001  0.4525  1.0000
  H   H23       1.0  0.3605099999999999  0.29629000000000005  0.55109  1.0000
  H   H24       1.0  0.35374  0.13465999999999995  0.53392  1.0000
  H   H25       1.0  0.60897  0.4377600000000001  0.15575  1.0000
  H   H26       1.0  0.6296199999999998  0.4525000000000001  0.31933  1.0000
  H   H27       1.0  0.36051000000000005  0.5510900000000002  0.29629000000000005  1.0000
  H   H28       1.0  0.35375000000000006  0.5339200000000002  0.13466  1.0000
  H   H29       1.0  0.45319000000000004  0.8436600000000002  0.28169  1.0000
  H   H30       1.0  0.3094700000000001  0.6798800000000003  0.13325  1.0000
  H   H31       1.0  0.06499000000000003  0.7048900000000002  0.25662  1.0000
  H   H32       1.0  0.22055999999999998  0.8666599999999999  0.40044  1.0000
  H   H33       1.0  0.17114000000000004  0.7180100000000003  0.56215  1.0000
  H   H34       1.0  0.17697000000000004  0.8665500000000003  0.5467  1.0000
  H   H35       1.0  0.80924  0.7448600000000002  0.44852  1.0000
  H   H36       1.0  0.8196700000000001  0.6009300000000002  0.46665  1.0000
  H   H37       1.0  0.5468199999999999  0.71831  0.15634  1.0000
  H   H38       1.0  0.69054  0.86675  0.32012  1.0000
  H   H39       1.0  0.93501  0.7433700000000002  0.29511  1.0000
  H   H40       1.0  0.7794400000000001  0.5995600000000002  0.13334  1.0000
  H   H41       1.0  0.82887  0.43785000000000013  0.28199  1.0000
  H   H42       1.0  0.82303  0.4533000000000001  0.13345  1.0000
  H   H43       1.0  0.19076000000000007  0.5514800000000002  0.25513  1.0000
  H   H44       1.0  0.18033000000000002  0.5333400000000003  0.3990600000000001  1.0000
  H   H45       1.0  0.3910300000000001  0.8442500000000002  0.56224  1.0000
  H   H46       1.0  0.37038  0.68067  0.54749  1.0000
  H   H47       1.0  0.6394900000000001  0.7037100000000002  0.4489  1.0000
  H   H48       1.0  0.64626  0.86534  0.4660800000000001  1.0000
  H   H49       1.0  0.49852  0.63616  0.63616  1.0000
  H   H50       1.0  0.8625300000000001  0.36352000000000007  0.9994300000000002  1.0000
  H   H51       1.0  0.86253  0.9994299999999999  0.36352  1.0000
  H   H52       1.0  0.13747  0.0005699999999999938  0.63647  1.0000
  H   H53       1.0  0.13747000000000006  0.6364800000000003  0.00057  1.0000
  H   H54       1.0  0.50148  0.36383000000000015  0.36383000000000004  1.0000
  C   C1        1.0  0.44417  0.53741  0.8098  1.0000
  C   C2        1.0  0.4336  0.52923  0.71912  1.0000
  C   C3        1.0  0.50406  0.4967700000000001  0.67792  1.0000
  C   C4        1.0  0.5822200000000002  0.4737200000000002  0.7315700000000003  1.0000
  C   C5        1.0  0.5873700000000001  0.4839000000000001  0.8218  1.0000
  C   C6        1.0  0.49878000000000006  0.49336000000000013  0.58437  1.0000
  C   C7        1.0  0.63426  0.19037  0.72752  1.0000
  C   C8        1.0  0.7148799999999998  0.28112000000000004  0.80982  1.0000
  C   C9        1.0  0.8263900000000001  0.32187000000000027  0.8182600000000002  1.0000
  C   C10       1.0  0.85028  0.2677200000000001  0.7411  1.0000
  C   C11       1.0  0.76473  0.17739999999999995  0.66125  1.0000
  C   C12       1.0  0.91472  0.41546000000000016  0.9086700000000002  1.0000
  C   C13       1.0  0.90682  0.27239  0.46266  1.0000
  C   C14       1.0  0.9044299999999998  0.19003000000000006  0.47109  1.0000
  C   C15       1.0  0.007289999999999981  0.18124999999999997  0.50334  1.0000
  C   C16       1.0  0.10860000000000003  0.2579400000000001  0.52632  1.0000
  C   C17       1.0  0.10358999999999999  0.33783  0.51583  1.0000
  C   C18       1.0  0.005239999999999986  0.09101  0.50665  1.0000
  C   C19       1.0  0.36573  0.27248  0.80963  1.0000
  C   C20       1.0  0.28512000000000004  0.19017000000000012  0.71887  1.0000
  C   C21       1.0  0.17360999999999993  0.18173999999999998  0.67813  1.0000
  C   C22       1.0  0.14972000000000002  0.2588900000000002  0.73227  1.0000
  C   C23       1.0  0.23527000000000006  0.3387400000000001  0.8226  1.0000
  C   C24       1.0  0.08526999999999998  0.09133000000000001  0.58453  1.0000
  C   C25       1.0  0.09317000000000009  0.5373400000000003  0.7276  1.0000
  C   C26       1.0  0.09557000000000017  0.5289100000000003  0.8099700000000002  1.0000
  C   C27       1.0  0.9927100000000001  0.49666000000000016  0.8187400000000001  1.0000
  C   C28       1.0  0.8913999999999999  0.47368  0.74206  1.0000
  C   C29       1.0  0.89641  0.48416000000000003  0.66216  1.0000
  C   C30       1.0  0.99476  0.4933500000000002  0.9089900000000001  1.0000
  C   C31       1.0  0.55583  0.19019999999999998  0.46258  1.0000
  C   C32       1.0  0.5664000000000001  0.28088000000000013  0.47077  1.0000
  C   C33       1.0  0.4959400000000001  0.32207000000000013  0.50323  1.0000
  C   C34       1.0  0.41778  0.26842000000000005  0.52627  1.0000
  C   C35       1.0  0.41263  0.17819  0.51609  1.0000
  C   C36       1.0  0.50122  0.41563  0.50664  1.0000
  C   C37       1.0  0.55583  0.4625800000000001  0.1902  1.0000
  C   C38       1.0  0.5664  0.47077  0.28088  1.0000
  C   C39       1.0  0.49594  0.50323  0.32207  1.0000
  C   C40       1.0  0.41778  0.52628  0.26842  1.0000
  C   C41       1.0  0.41263  0.5161  0.17819000000000002  1.0000
  C   C42       1.0  0.50122  0.50664  0.4156300000000001  1.0000
  C   C43       1.0  0.3657400000000001  0.8096300000000002  0.27248  1.0000
  C   C44       1.0  0.2851200000000001  0.7188700000000002  0.19017  1.0000
  C   C45       1.0  0.17361  0.67813  0.18174  1.0000
  C   C46       1.0  0.14972  0.73227  0.25889  1.0000
  C   C47       1.0  0.23527000000000006  0.8226000000000002  0.33874000000000004  1.0000
  C   C48       1.0  0.08528000000000005  0.5845300000000002  0.09133  1.0000
  C   C49       1.0  0.09318000000000007  0.7276000000000002  0.53734  1.0000
  C   C50       1.0  0.0955700000000001  0.8099700000000002  0.52891  1.0000
  C   C51       1.0  0.99271  0.8187400000000002  0.49666  1.0000
  C   C52       1.0  0.8913999999999999  0.74206  0.47368  1.0000
  C   C53       1.0  0.8964100000000002  0.6621600000000002  0.4841600000000001  1.0000
  C   C54       1.0  0.99476  0.9089900000000002  0.4933500000000001  1.0000
  C   C55       1.0  0.6342700000000001  0.7275200000000002  0.19037  1.0000
  C   C56       1.0  0.7148799999999998  0.8098300000000003  0.28113  1.0000
  C   C57       1.0  0.82639  0.8182600000000002  0.32187  1.0000
  C   C58       1.0  0.85028  0.7411  0.26772  1.0000
  C   C59       1.0  0.76473  0.6612600000000001  0.1774  1.0000
  C   C60       1.0  0.9147300000000002  0.9086700000000003  0.4154700000000001  1.0000
  C   C61       1.0  0.9068300000000001  0.46266000000000007  0.27239  1.0000
  C   C62       1.0  0.90443  0.4710900000000001  0.19003  1.0000
  C   C63       1.0  0.007290000000000014  0.50334  0.18125  1.0000
  C   C64       1.0  0.10860000000000011  0.5263200000000002  0.25793  1.0000
  C   C65       1.0  0.10359000000000007  0.5158400000000002  0.33783  1.0000
  C   C66       1.0  0.005240000000000101  0.5066500000000003  0.09101  1.0000
  C   C67       1.0  0.44417  0.8098  0.53742  1.0000
  C   C68       1.0  0.43360000000000004  0.7191200000000002  0.52923  1.0000
  C   C69       1.0  0.5040600000000001  0.6779200000000002  0.49677000000000004  1.0000
  C   C70       1.0  0.5822200000000001  0.7315700000000003  0.47372  1.0000
  C   C71       1.0  0.5873700000000001  0.8218100000000003  0.4839  1.0000
  C   C72       1.0  0.49878000000000006  0.58437  0.49336  1.0000
  C   C73       1.0  0.4966800000000002  0.5750900000000002  0.5750900000000001  1.0000
  C   C74       1.0  0.92178  0.4247  0.99971  1.0000
  C   C75       1.0  0.9217800000000002  0.9997100000000001  0.42470000000000013  1.0000
  C   C76       1.0  0.07821999999999998  0.0002800000000000318  0.5753  1.0000
  C   C77       1.0  0.07822  0.5753  0.00028  1.0000
  C   C78       1.0  0.5033200000000001  0.4249000000000002  0.4249000000000001  1.0000
  N   N1        1.0  0.5195000000000001  0.5152600000000004  0.8608700000000001  1.0000
  N   N2        1.0  0.6581  0.13867999999999994  0.65409  1.0000
  N   N3        1.0  0.004340000000000012  0.34541  0.48437  1.0000
  N   N4        1.0  0.3419  0.3459100000000001  0.86131  1.0000
  N   N5        1.0  0.99566  0.5156300000000003  0.65459  1.0000
  N   N6        1.0  0.4805  0.13913  0.48474  1.0000
  N   N7        1.0  0.4804999999999999  0.48474  0.13913  1.0000
  N   N8        1.0  0.3419000000000001  0.8613100000000002  0.3459100000000001  1.0000
  N   N9        1.0  0.99566  0.65459  0.51563  1.0000
  N   N10       1.0  0.6581  0.65409  0.13869  1.0000
  N   N11       1.0  0.004340000000000045  0.48437000000000013  0.34541  1.0000
  N   N12       1.0  0.5195000000000001  0.8608700000000002  0.51526  1.0000
  Cl  Cl1       1.0  0.63937  0.41401000000000016  0.9997000000000001  1.0000
  Cl  Cl2       1.0  0.63936  0.9997000000000001  0.41401000000000004  1.0000
  Cl  Cl3       1.0  0.22514  0.5856  0.5856  1.0000
  Cl  Cl4       1.0  0.36064  0.58599  0.0003  1.0000
  Cl  Cl5       1.0  0.77486  0.4143900000000001  0.41439  1.0000
  Cl  Cl6       1.0  0.36062999999999995  0.0003000000000000057  0.58599  1.0000
