data_image0
_chemical_formula_structural       Cu4H40C68N4O16
_chemical_formula_sum              "Cu4 H40 C68 N4 O16"
_cell_length_a       15.67898
_cell_length_b       16.25904
_cell_length_c       23.52915
_cell_angle_alpha    90.0
_cell_angle_beta     90.0
_cell_angle_gamma    118.62202999999998

_space_group_name_H-M_alt    "P 1"
_space_group_IT_number       1

loop_
  _space_group_symop_operation_xyz
  'x, y, z'

loop_
  _atom_site_type_symbol
  _atom_site_label
  _atom_site_symmetry_multiplicity
  _atom_site_fract_x
  _atom_site_fract_y
  _atom_site_fract_z
  _atom_site_occupancy
  Cu  Cu1       1.0  0.5294100000000003  0.44289  0.5  1.0000
  Cu  Cu2       1.0  0.47059000000000006  0.55711  0.5  1.0000
  Cu  Cu3       1.0  0.9134799999999998  0.44324999999999987  0.0  1.0000
  Cu  Cu4       1.0  0.08652  0.55675  0.0  1.0000
  H   H1        1.0  0.6492300000000002  0.75413  0.62914  1.0000
  H   H2        1.0  0.7694800000000003  0.84479  0.70451  1.0000
  H   H3        1.0  0.8780600000000001  0.6464899999999998  0.69946  1.0000
  H   H4        1.0  0.7571200000000001  0.5560999999999999  0.6246  1.0000
  H   H5        1.0  0.9581500000000002  0.91347  0.65832  1.0000
  H   H6        1.0  0.35077  0.24586999999999995  0.62914  1.0000
  H   H7        1.0  0.23052  0.15520999999999996  0.70451  1.0000
  H   H8        1.0  0.12194000000000006  0.35351  0.69946  1.0000
  H   H9        1.0  0.24287999999999998  0.44389999999999996  0.6246  1.0000
  H   H10       1.0  0.041849999999999984  0.08652999999999997  0.65832  1.0000
  H   H11       1.0  0.10412999999999994  0.7536699999999998  0.8708599999999997  1.0000
  H   H12       1.0  0.07430999999999989  0.8444199999999997  0.7950599999999998  1.0000
  H   H13       1.0  0.76873  0.6470199999999998  0.8002  1.0000
  H   H14       1.0  0.7996600000000001  0.55655  0.87546  1.0000
  H   H15       1.0  0.95498  0.9135599999999998  0.84125  1.0000
  H   H16       1.0  0.89587  0.24633  0.8708599999999997  1.0000
  H   H17       1.0  0.9256900000000002  0.15558  0.7950599999999998  1.0000
  H   H18       1.0  0.23126999999999995  0.3529799999999999  0.8002  1.0000
  H   H19       1.0  0.20034000000000005  0.44345  0.87546  1.0000
  H   H20       1.0  0.04501  0.08644  0.84125  1.0000
  H   H21       1.0  0.35077  0.24586999999999995  0.37086  1.0000
  H   H22       1.0  0.23052  0.15520999999999996  0.29549  1.0000
  H   H23       1.0  0.12194000000000006  0.35351  0.30054  1.0000
  H   H24       1.0  0.24287999999999998  0.44389999999999996  0.37539999999999996  1.0000
  H   H25       1.0  0.041849999999999984  0.08652999999999997  0.34168999999999994  1.0000
  H   H26       1.0  0.6492300000000002  0.75413  0.37086  1.0000
  H   H27       1.0  0.7694800000000003  0.84479  0.29549  1.0000
  H   H28       1.0  0.8780600000000001  0.6464899999999998  0.30054  1.0000
  H   H29       1.0  0.7571200000000001  0.5560999999999999  0.37539999999999996  1.0000
  H   H30       1.0  0.9581500000000002  0.91347  0.34168999999999994  1.0000
  H   H31       1.0  0.89587  0.24633  0.12914  1.0000
  H   H32       1.0  0.9256900000000002  0.15558  0.20493999999999998  1.0000
  H   H33       1.0  0.23126999999999995  0.3529799999999999  0.1998  1.0000
  H   H34       1.0  0.20034000000000005  0.44345  0.12454  1.0000
  H   H35       1.0  0.04501  0.08644  0.15875  1.0000
  H   H36       1.0  0.10412999999999994  0.7536699999999998  0.12914  1.0000
  H   H37       1.0  0.07430999999999989  0.8444199999999997  0.20493999999999998  1.0000
  H   H38       1.0  0.76873  0.6470199999999998  0.1998  1.0000
  H   H39       1.0  0.7996600000000001  0.55655  0.12454  1.0000
  H   H40       1.0  0.95498  0.9135599999999998  0.15875  1.0000
  C   C1        1.0  0.62331  0.59479  0.57733  1.0000
  C   C2        1.0  0.6953600000000001  0.6493299999999999  0.62201  1.0000
  C   C3        1.0  0.6999800000000003  0.73142  0.64455  1.0000
  C   C4        1.0  0.7671100000000001  0.7820199999999998  0.6866499999999999  1.0000
  C   C5        1.0  0.83174  0.75148  0.7068799999999997  1.0000
  C   C6        1.0  0.82764  0.66961  0.68408  1.0000
  C   C7        1.0  0.7599900000000003  0.6191  0.64236  1.0000
  C   C8        1.0  0.97635  0.9512799999999998  0.69841  1.0000
  C   C9        1.0  0.37669000000000014  0.40521  0.57733  1.0000
  C   C10       1.0  0.30464  0.35068  0.62201  1.0000
  C   C11       1.0  0.30001999999999995  0.26857999999999993  0.64455  1.0000
  C   C12       1.0  0.23289000000000007  0.21799  0.6866499999999999  1.0000
  C   C13       1.0  0.16826  0.24852  0.7068799999999997  1.0000
  C   C14       1.0  0.17236000000000004  0.33038999999999996  0.68408  1.0000
  C   C15       1.0  0.24001  0.3809099999999999  0.64236  1.0000
  C   C16       1.0  0.023650000000000008  0.04872  0.69841  1.0000
  C   C17       1.0  0.9715900000000001  0.59505  0.92273  1.0000
  C   C18       1.0  0.95391  0.6494299999999997  0.8779  1.0000
  C   C19       1.0  0.030990000000000035  0.73129  0.85527  1.0000
  C   C20       1.0  0.014319999999999998  0.78175  0.81299  1.0000
  C   C21       1.0  0.9194100000000002  0.75138  0.7927399999999999  1.0000
  C   C22       1.0  0.8420200000000002  0.66978  0.81564  1.0000
  C   C23       1.0  0.8593100000000001  0.61938  0.85753  1.0000
  C   C24       1.0  0.97467  0.9513  0.8011299999999999  1.0000
  C   C25       1.0  0.02841  0.40495  0.92273  1.0000
  C   C26       1.0  0.04609  0.35057  0.8779  1.0000
  C   C27       1.0  0.9690100000000003  0.26872  0.85527  1.0000
  C   C28       1.0  0.98568  0.21825  0.81299  1.0000
  C   C29       1.0  0.08059  0.24861999999999995  0.7927399999999999  1.0000
  C   C30       1.0  0.15798000000000006  0.33022  0.81564  1.0000
  C   C31       1.0  0.14069  0.38062  0.85753  1.0000
  C   C32       1.0  0.02532  0.04870999999999999  0.8011299999999999  1.0000
  C   C33       1.0  0.37669000000000014  0.40521  0.42267  1.0000
  C   C34       1.0  0.30464  0.35068  0.37799  1.0000
  C   C35       1.0  0.30001999999999995  0.26857999999999993  0.35545  1.0000
  C   C36       1.0  0.23289000000000007  0.21799  0.31335  1.0000
  C   C37       1.0  0.16826  0.24852  0.29312  1.0000
  C   C38       1.0  0.17236000000000004  0.33038999999999996  0.31592  1.0000
  C   C39       1.0  0.24001  0.3809099999999999  0.35764  1.0000
  C   C40       1.0  0.023650000000000008  0.04872  0.30159  1.0000
  C   C41       1.0  0.62331  0.59479  0.42267  1.0000
  C   C42       1.0  0.6953600000000001  0.6493299999999999  0.37799  1.0000
  C   C43       1.0  0.6999800000000003  0.73142  0.35545  1.0000
  C   C44       1.0  0.7671100000000001  0.7820199999999998  0.31335  1.0000
  C   C45       1.0  0.83174  0.75148  0.29312  1.0000
  C   C46       1.0  0.82764  0.66961  0.31592  1.0000
  C   C47       1.0  0.7599900000000003  0.6191  0.35764  1.0000
  C   C48       1.0  0.97635  0.9512799999999998  0.30159  1.0000
  C   C49       1.0  0.02841  0.40495  0.07727  1.0000
  C   C50       1.0  0.04609  0.35057  0.12209999999999999  1.0000
  C   C51       1.0  0.9690100000000003  0.26872  0.14472999999999997  1.0000
  C   C52       1.0  0.98568  0.21825  0.18701  1.0000
  C   C53       1.0  0.08059  0.24861999999999995  0.20726  1.0000
  C   C54       1.0  0.15798000000000006  0.33022  0.18435999999999997  1.0000
  C   C55       1.0  0.14069  0.38062  0.14248  1.0000
  C   C56       1.0  0.02532  0.04870999999999999  0.19887  1.0000
  C   C57       1.0  0.9715900000000001  0.59505  0.07727  1.0000
  C   C58       1.0  0.95391  0.6494299999999997  0.12209999999999999  1.0000
  C   C59       1.0  0.030990000000000035  0.73129  0.14472999999999997  1.0000
  C   C60       1.0  0.014319999999999998  0.78175  0.18701  1.0000
  C   C61       1.0  0.9194100000000002  0.75138  0.20726  1.0000
  C   C62       1.0  0.8420200000000002  0.66978  0.18435999999999997  1.0000
  C   C63       1.0  0.8593100000000001  0.61938  0.14248  1.0000
  C   C64       1.0  0.97467  0.9513  0.19887  1.0000
  C   C65       1.0  0.9502700000000001  0.9010299999999999  0.74977  1.0000
  C   C66       1.0  0.04973  0.09897  0.74977  1.0000
  C   C67       1.0  0.04973  0.09897  0.25023  1.0000
  C   C68       1.0  0.9502700000000001  0.9010299999999999  0.25023  1.0000
  N   N1        1.0  0.9006000000000001  0.8016499999999998  0.7497799999999999  1.0000
  N   N2        1.0  0.09939999999999999  0.19834999999999997  0.7497799999999999  1.0000
  N   N3        1.0  0.09939999999999999  0.19834999999999997  0.25022  1.0000
  N   N4        1.0  0.9006000000000001  0.8016499999999998  0.25022  1.0000
  O   O1        1.0  0.62284  0.51991  0.55959  1.0000
  O   O2        1.0  0.5672900000000001  0.62664  0.55966  1.0000
  O   O3        1.0  0.37716  0.4801  0.55959  1.0000
  O   O4        1.0  0.4327100000000001  0.37336  0.55966  1.0000
  O   O5        1.0  0.8973699999999999  0.52028  0.9404  1.0000
  O   O6        1.0  0.05925000000000002  0.62671  0.94037  1.0000
  O   O7        1.0  0.10263  0.47971999999999987  0.9404  1.0000
  O   O8        1.0  0.94075  0.37329  0.94037  1.0000
  O   O9        1.0  0.37716  0.4801  0.4404099999999999  1.0000
  O   O10       1.0  0.4327100000000001  0.37336  0.44034  1.0000
  O   O11       1.0  0.62284  0.51991  0.4404099999999999  1.0000
  O   O12       1.0  0.5672900000000001  0.62664  0.44034  1.0000
  O   O13       1.0  0.10263  0.47971999999999987  0.05961  1.0000
  O   O14       1.0  0.94075  0.37329  0.05963  1.0000
  O   O15       1.0  0.8973699999999999  0.52028  0.05961  1.0000
  O   O16       1.0  0.05925000000000002  0.62671  0.05963  1.0000
