data_image0
_chemical_formula_structural       Cu8Mo2H56C56S8N12
_chemical_formula_sum              "Cu8 Mo2 H56 C56 S8 N12"
_cell_length_a       9.78253
_cell_length_b       11.5163
_cell_length_c       18.46543
_cell_angle_alpha    90.00038
_cell_angle_beta     99.83676
_cell_angle_gamma    90.01888999999998

_space_group_name_H-M_alt    "P 1"
_space_group_IT_number       1

loop_
  _space_group_symop_operation_xyz
  'x, y, z'

loop_
  _atom_site_type_symbol
  _atom_site_label
  _atom_site_symmetry_multiplicity
  _atom_site_fract_x
  _atom_site_fract_y
  _atom_site_fract_z
  _atom_site_occupancy
  Cu  Cu1       1.0  0.9725499999999999  0.62932  0.89437  1.0000
  Cu  Cu2       1.0  0.28203  0.64614  0.78019  1.0000
  Cu  Cu3       1.0  0.027339999999999996  0.62912  0.60577  1.0000
  Cu  Cu4       1.0  0.71758  0.6462  0.72012  1.0000
  Cu  Cu5       1.0  0.027449999999999995  0.37068  0.10563000000000002  1.0000
  Cu  Cu6       1.0  0.7179699999999999  0.35385  0.21981  1.0000
  Cu  Cu7       1.0  0.97266  0.37088  0.39423  1.0000
  Cu  Cu8       1.0  0.28243  0.3538  0.27988  1.0000
  Mo  Mo1       1.0  0.99985  0.62345  0.75004  1.0000
  Mo  Mo2       1.0  0.00016000000000000798  0.37655  0.24995  1.0000
  H   H1        1.0  0.5658100000000001  0.5733799999999999  0.8442100000000001  1.0000
  H   H2        1.0  0.6979199999999999  0.43301999999999996  0.9335300000000001  1.0000
  H   H3        1.0  0.3047  0.29300999999999994  0.96724  1.0000
  H   H4        1.0  0.18934000000000006  0.43868  0.87652  1.0000
  H   H5        1.0  0.52494  0.24132  0.05353  1.0000
  H   H6        1.0  0.6830699999999998  0.3029  0.04062  1.0000
  H   H7        1.0  0.68595  0.17462  0.93  1.0000
  H   H8        1.0  0.52791  0.11226  0.94274  1.0000
  H   H9        1.0  0.63664  0.03839  0.06658  1.0000
  H   H10       1.0  0.7898099999999999  0.11265  0.062049999999999994  1.0000
  H   H11       1.0  0.9299299999999999  0.9408899999999998  0.08853  1.0000
  H   H12       1.0  0.02599  0.76503  0.037  1.0000
  H   H13       1.0  0.72033  0.77407  0.8501  1.0000
  H   H14       1.0  0.61368  0.9483599999999998  0.89384  1.0000
  H   H15       1.0  0.4339199999999999  0.57329  0.65582  1.0000
  H   H16       1.0  0.30191  0.43291  0.56643  1.0000
  H   H17       1.0  0.69519  0.29315  0.53281  1.0000
  H   H18       1.0  0.8104699999999999  0.43883  0.62359  1.0000
  H   H19       1.0  0.4749999999999999  0.24129  0.44650000000000006  1.0000
  H   H20       1.0  0.31683999999999996  0.30278  0.45936  1.0000
  H   H21       1.0  0.31394  0.17447999999999994  0.56999  1.0000
  H   H22       1.0  0.472  0.11224  0.55727  1.0000
  H   H23       1.0  0.3633199999999999  0.03824  0.43345  1.0000
  H   H24       1.0  0.21008999999999997  0.11240999999999997  0.43793  1.0000
  H   H25       1.0  0.06992999999999998  0.9406  0.41155  1.0000
  H   H26       1.0  0.9739699999999999  0.7646999999999999  0.46314  1.0000
  H   H27       1.0  0.27977  0.7739800000000001  0.64996  1.0000
  H   H28       1.0  0.38635  0.9483299999999999  0.60615  1.0000
  H   H29       1.0  0.43419  0.42662  0.15579  1.0000
  H   H30       1.0  0.30208  0.56698  0.06647  1.0000
  H   H31       1.0  0.69531  0.70699  0.03276  1.0000
  H   H32       1.0  0.81066  0.56132  0.12348  1.0000
  H   H33       1.0  0.47506  0.7586799999999999  0.94647  1.0000
  H   H34       1.0  0.31694  0.6970999999999999  0.95938  1.0000
  H   H35       1.0  0.31406  0.82538  0.07  1.0000
  H   H36       1.0  0.4721  0.88774  0.057260000000000005  1.0000
  H   H37       1.0  0.3633700000000001  0.96161  0.9334200000000001  1.0000
  H   H38       1.0  0.21018999999999993  0.88735  0.9379499999999998  1.0000
  H   H39       1.0  0.07007999999999998  0.059109999999999996  0.91147  1.0000
  H   H40       1.0  0.97402  0.23497  0.9629999999999999  1.0000
  H   H41       1.0  0.27968  0.22593  0.1499  1.0000
  H   H42       1.0  0.38633  0.05164  0.10615  1.0000
  H   H43       1.0  0.56608  0.42670999999999987  0.34418  1.0000
  H   H44       1.0  0.6981  0.56709  0.43357000000000007  1.0000
  H   H45       1.0  0.30480999999999997  0.70685  0.46718000000000004  1.0000
  H   H46       1.0  0.18952999999999998  0.56117  0.37641  1.0000
  H   H47       1.0  0.52501  0.7587099999999999  0.5535  1.0000
  H   H48       1.0  0.6831599999999999  0.6972199999999998  0.54063  1.0000
  H   H49       1.0  0.68606  0.8255199999999999  0.43001  1.0000
  H   H50       1.0  0.5280099999999999  0.88776  0.44272000000000006  1.0000
  H   H51       1.0  0.63669  0.96176  0.56655  1.0000
  H   H52       1.0  0.7899100000000001  0.88759  0.5620700000000001  1.0000
  H   H53       1.0  0.9300799999999999  0.059399999999999994  0.5884500000000001  1.0000
  H   H54       1.0  0.02602999999999999  0.23529999999999995  0.53686  1.0000
  H   H55       1.0  0.7202299999999999  0.22602  0.35004  1.0000
  H   H56       1.0  0.6136499999999999  0.05167  0.39384  1.0000
  C   C1        1.0  0.4395299999999999  0.7231499999999998  0.75797  1.0000
  C   C2        1.0  0.5129  0.50933  0.8731100000000002  1.0000
  C   C3        1.0  0.58497  0.43047  0.92251  1.0000
  C   C4        1.0  0.51204  0.35014999999999996  0.9582  1.0000
  C   C5        1.0  0.36683999999999994  0.35311  0.94106  1.0000
  C   C6        1.0  0.30214  0.43448999999999993  0.8908800000000001  1.0000
  C   C7        1.0  0.5872599999999999  0.26330999999999993  0.01123  1.0000
  C   C8        1.0  0.62366  0.15198  0.97225  1.0000
  C   C9        1.0  0.70377  0.06675  0.027580000000000004  1.0000
  C   C10       1.0  0.76203  0.96086  0.99604  1.0000
  C   C11       1.0  0.88007  0.90617  0.03568  1.0000
  C   C12       1.0  0.93441  0.8083  0.00715  1.0000
  C   C13       1.0  0.76491  0.81318  0.90285  1.0000
  C   C14       1.0  0.7049099999999999  0.9116  0.92824  1.0000
  C   C15       1.0  0.55996  0.72321  0.74213  1.0000
  C   C16       1.0  0.48688999999999993  0.50925  0.62696  1.0000
  C   C17       1.0  0.41485999999999995  0.43039999999999995  0.5775  1.0000
  C   C18       1.0  0.48782999999999993  0.35013999999999995  0.54183  1.0000
  C   C19       1.0  0.6330299999999999  0.35318999999999995  0.559  1.0000
  C   C20       1.0  0.6976800000000001  0.43455  0.60924  1.0000
  C   C21       1.0  0.4126499999999999  0.26327  0.4887699999999999  1.0000
  C   C22       1.0  0.37625  0.1519  0.52774  1.0000
  C   C23       1.0  0.29615  0.0666  0.47242  1.0000
  C   C24       1.0  0.23792  0.96071  0.504  1.0000
  C   C25       1.0  0.11983  0.9059599999999999  0.4644  1.0000
  C   C26       1.0  0.06555000000000001  0.80806  0.49295  1.0000
  C   C27       1.0  0.23511999999999997  0.8130499999999999  0.59721  1.0000
  C   C28       1.0  0.29507999999999995  0.9115  0.5718  1.0000
  C   C29       1.0  0.56048  0.27685  0.24203000000000002  1.0000
  C   C30       1.0  0.48711  0.49066999999999994  0.12689  1.0000
  C   C31       1.0  0.41504  0.56953  0.07749  1.0000
  C   C32       1.0  0.48797  0.64985  0.04179000000000001  1.0000
  C   C33       1.0  0.63316  0.64689  0.05894  1.0000
  C   C34       1.0  0.6978699999999999  0.56551  0.10912  1.0000
  C   C35       1.0  0.41274  0.7366899999999998  0.98876  1.0000
  C   C36       1.0  0.37635  0.8480199999999999  0.027750000000000004  1.0000
  C   C37       1.0  0.29624  0.93325  0.97242  1.0000
  C   C38       1.0  0.23797999999999997  0.03914  0.00396  1.0000
  C   C39       1.0  0.11993000000000005  0.09383  0.9643200000000001  1.0000
  C   C40       1.0  0.06558999999999994  0.19169999999999998  0.9928399999999998  1.0000
  C   C41       1.0  0.2351  0.18681999999999999  0.09714000000000002  1.0000
  C   C42       1.0  0.29508999999999996  0.0884  0.07176  1.0000
  C   C43       1.0  0.44004  0.27679  0.25787  1.0000
  C   C44       1.0  0.51312  0.49075  0.37304  1.0000
  C   C45       1.0  0.58515  0.5696  0.4225  1.0000
  C   C46       1.0  0.51217  0.64986  0.45817  1.0000
  C   C47       1.0  0.36698  0.64681  0.441  1.0000
  C   C48       1.0  0.30233  0.56545  0.39076  1.0000
  C   C49       1.0  0.5873499999999998  0.73673  0.51123  1.0000
  C   C50       1.0  0.62376  0.8481  0.47224999999999995  1.0000
  C   C51       1.0  0.7038499999999999  0.9333899999999998  0.52757  1.0000
  C   C52       1.0  0.76209  0.03929  0.496  1.0000
  C   C53       1.0  0.88018  0.09403999999999998  0.5356  1.0000
  C   C54       1.0  0.93446  0.19193  0.50705  1.0000
  C   C55       1.0  0.76488  0.18695  0.40279  1.0000
  C   C56       1.0  0.70492  0.0885  0.42819  1.0000
  S   S1        1.0  0.12171999999999998  0.73926  0.83534  1.0000
  S   S2        1.0  0.8484299999999999  0.51952  0.80359  1.0000
  S   S3        1.0  0.8779999999999999  0.7390599999999999  0.66469  1.0000
  S   S4        1.0  0.15122  0.5194  0.69658  1.0000
  S   S5        1.0  0.87829  0.26074  0.16466  1.0000
  S   S6        1.0  0.15157  0.48048  0.19641  1.0000
  S   S7        1.0  0.122  0.26094  0.33531  1.0000
  S   S8        1.0  0.84879  0.4806  0.30342  1.0000
  N   N1        1.0  0.023209999999999995  0.52759  0.9791  1.0000
  N   N2        1.0  0.37322  0.51229  0.85744  1.0000
  N   N3        1.0  0.8785599999999999  0.7616199999999997  0.94147  1.0000
  N   N4        1.0  0.97667  0.52761  0.52084  1.0000
  N   N5        1.0  0.62656  0.51222  0.64273  1.0000
  N   N6        1.0  0.12147000000000001  0.76141  0.55862  1.0000
  N   N7        1.0  0.97679  0.4724099999999999  0.0209  1.0000
  N   N8        1.0  0.62679  0.48770999999999987  0.14256000000000002  1.0000
  N   N9        1.0  0.12143999999999999  0.23838  0.058530000000000006  1.0000
  N   N10       1.0  0.023340000000000017  0.4723899999999999  0.47915  1.0000
  N   N11       1.0  0.37345  0.48778  0.35727  1.0000
  N   N12       1.0  0.8785399999999999  0.23858999999999997  0.44138  1.0000
