data_image0
_chemical_formula_structural       Cd2H44C42N16O4
_chemical_formula_sum              "Cd2 H44 C42 N16 O4"
_cell_length_a       11.80301
_cell_length_b       9.369669999999998
_cell_length_c       12.086860000000001
_cell_angle_alpha    77.24814
_cell_angle_beta     92.01784
_cell_angle_gamma    67.50824

_space_group_name_H-M_alt    "P 1"
_space_group_IT_number       1

loop_
  _space_group_symop_operation_xyz
  'x, y, z'

loop_
  _atom_site_type_symbol
  _atom_site_label
  _atom_site_symmetry_multiplicity
  _atom_site_fract_x
  _atom_site_fract_y
  _atom_site_fract_z
  _atom_site_occupancy
  Cd  Cd1       1.0  0.32998  0.72384  0.8098999999999998  1.0000
  Cd  Cd2       1.0  0.67001  0.27617  0.1901  1.0000
  H   H1        1.0  0.21744  0.59386  0.6112199999999999  1.0000
  H   H2        1.0  0.26388  0.026140000000000028  0.5400099999999999  1.0000
  H   H3        1.0  0.07174  0.05464000000000001  0.38019  1.0000
  H   H4        1.0  0.96522  0.8691799999999998  0.36472  1.0000
  H   H5        1.0  0.019009999999999982  0.67625  0.45787  1.0000
  H   H6        1.0  0.27976999999999996  0.5434100000000001  0.42781999999999987  1.0000
  H   H7        1.0  0.17544000000000007  0.45120999999999983  0.41682  1.0000
  H   H8        1.0  0.17568000000000003  0.38996  0.17969  1.0000
  H   H9        1.0  0.04527  0.65928  0.14256999999999997  1.0000
  H   H10       1.0  0.019199999999999988  0.54171  0.26454  1.0000
  H   H11       1.0  0.80098  0.61114  0.26858  1.0000
  H   H12       1.0  0.08426999999999997  0.91941  0.19028999999999993  1.0000
  H   H13       1.0  0.20784000000000005  0.8493099999999999  0.29924  1.0000
  H   H14       1.0  0.15260000000000004  0.74569  0.01159  1.0000
  H   H15       1.0  0.52936  0.66461  0.07754  1.0000
  H   H16       1.0  0.4119  0.75168  0.26237  1.0000
  H   H17       1.0  0.8997700000000001  0.0060399999999999985  0.15524  1.0000
  H   H18       1.0  0.60025  0.89625  0.25700999999999996  1.0000
  H   H19       1.0  0.39178  0.24175999999999997  0.09894  1.0000
  H   H20       1.0  0.47538  0.4166599999999998  0.36906  1.0000
  H   H21       1.0  0.91909  0.79312  0.91107  1.0000
  H   H22       1.0  0.19974000000000006  0.3147599999999999  0.95642  1.0000
  H   H23       1.0  0.7825600000000001  0.40614  0.38878  1.0000
  H   H24       1.0  0.73612  0.9738699999999999  0.45999  1.0000
  H   H25       1.0  0.9282500000000002  0.9453699999999999  0.6198099999999999  1.0000
  H   H26       1.0  0.034770000000000044  0.13082999999999995  0.63528  1.0000
  H   H27       1.0  0.9809900000000001  0.32376  0.5421299999999999  1.0000
  H   H28       1.0  0.72022  0.4566  0.57218  1.0000
  H   H29       1.0  0.82456  0.5488000000000001  0.5831799999999999  1.0000
  H   H30       1.0  0.82431  0.61005  0.82031  1.0000
  H   H31       1.0  0.9547300000000001  0.3407299999999998  0.85743  1.0000
  H   H32       1.0  0.98079  0.45830000000000004  0.73546  1.0000
  H   H33       1.0  0.19902000000000003  0.38887  0.7314199999999998  1.0000
  H   H34       1.0  0.9157200000000001  0.08059999999999996  0.8097099999999999  1.0000
  H   H35       1.0  0.7921600000000001  0.1507  0.70076  1.0000
  H   H36       1.0  0.8474  0.2543200000000001  0.9884099999999998  1.0000
  H   H37       1.0  0.47063  0.3354000000000001  0.9224599999999997  1.0000
  H   H38       1.0  0.5881000000000001  0.24832999999999997  0.7376299999999999  1.0000
  H   H39       1.0  0.10022000000000002  0.99397  0.8447599999999998  1.0000
  H   H40       1.0  0.39974000000000004  0.10376000000000005  0.7429899999999999  1.0000
  H   H41       1.0  0.60822  0.7582500000000001  0.9010599999999998  1.0000
  H   H42       1.0  0.52461  0.58334  0.6309399999999998  1.0000
  H   H43       1.0  0.08090000000000001  0.20688999999999996  0.08893  1.0000
  H   H44       1.0  0.80026  0.68525  0.04358  1.0000
  C   C1        1.0  0.21081000000000005  0.7113399999999998  0.56638  1.0000
  C   C2        1.0  0.22783000000000003  0.9391399999999999  0.52815  1.0000
  C   C3        1.0  0.13347  0.95602  0.44936  1.0000
  C   C4        1.0  0.04879000000000009  0.7618399999999997  0.40263999999999994  1.0000
  C   C5        1.0  0.11466000000000007  0.6888799999999998  0.30545  1.0000
  C   C6        1.0  0.21874000000000005  0.5249099999999997  0.3669  1.0000
  C   C7        1.0  0.26815  0.37477  0.20845  1.0000
  C   C8        1.0  0.020109999999999996  0.65967  0.22922999999999996  1.0000
  C   C9        1.0  0.7946  0.73277  0.25474  1.0000
  C   C10       1.0  0.16307000000000008  0.8110099999999998  0.23758  1.0000
  C   C11       1.0  0.23897000000000004  0.7345399999999997  0.05488  1.0000
  C   C12       1.0  0.4330499999999999  0.69656  0.09036  1.0000
  C   C13       1.0  0.37762  0.73654  0.18355999999999995  1.0000
  C   C14       1.0  0.84721  0.93526  0.18466999999999995  1.0000
  C   C15       1.0  0.6944300000000002  0.87564  0.24184999999999998  1.0000
  C   C16       1.0  0.37734000000000006  0.29990000000000006  0.16808999999999996  1.0000
  C   C17       1.0  0.42447  0.38921  0.30657  1.0000
  C   C18       1.0  0.14109  0.62879  0.85119  1.0000
  C   C19       1.0  0.07137  0.56332  0.92257  1.0000
  C   C20       1.0  0.95427  0.6655  0.95143  1.0000
  C   C21       1.0  0.11222  0.39462  0.9757099999999999  1.0000
  C   C22       1.0  0.7891800000000001  0.2886699999999998  0.43362  1.0000
  C   C23       1.0  0.77216  0.06087000000000005  0.4718499999999999  1.0000
  C   C24       1.0  0.86652  0.04399000000000002  0.5506399999999999  1.0000
  C   C25       1.0  0.9512000000000003  0.23817  0.59736  1.0000
  C   C26       1.0  0.8853300000000001  0.31113  0.69455  1.0000
  C   C27       1.0  0.78125  0.4751000000000001  0.6330999999999999  1.0000
  C   C28       1.0  0.73185  0.62524  0.79155  1.0000
  C   C29       1.0  0.9798899999999999  0.34034000000000003  0.7707699999999998  1.0000
  C   C30       1.0  0.20539999999999997  0.26724000000000003  0.74526  1.0000
  C   C31       1.0  0.83692  0.18899999999999995  0.7624099999999999  1.0000
  C   C32       1.0  0.76102  0.26547  0.94512  1.0000
  C   C33       1.0  0.56695  0.3034500000000001  0.9096299999999999  1.0000
  C   C34       1.0  0.62237  0.26347000000000004  0.81644  1.0000
  C   C35       1.0  0.15279  0.06475000000000007  0.8153299999999998  1.0000
  C   C36       1.0  0.30556000000000005  0.12437000000000005  0.7581499999999999  1.0000
  C   C37       1.0  0.6226500000000003  0.7001099999999997  0.83191  1.0000
  C   C38       1.0  0.5755300000000001  0.6108  0.69343  1.0000
  C   C39       1.0  0.8589  0.37122  0.14880999999999997  1.0000
  C   C40       1.0  0.92863  0.43668999999999986  0.07743  1.0000
  C   C41       1.0  0.045720000000000004  0.33451  0.04857  1.0000
  C   C42       1.0  0.88777  0.60539  0.02429  1.0000
  N   N1        1.0  0.27533  0.7869  0.60037  1.0000
  N   N2        1.0  0.12398000000000006  0.8085899999999999  0.47394  1.0000
  N   N3        1.0  0.25453  0.75915  0.161  1.0000
  N   N4        1.0  0.8916600000000001  0.7728199999999997  0.21920999999999996  1.0000
  N   N5        1.0  0.29952  0.43254999999999993  0.29645  1.0000
  N   N6        1.0  0.4736400000000001  0.30981  0.23004  1.0000
  N   N7        1.0  0.7286100000000002  0.0005699999999999986  0.19909  1.0000
  N   N8        1.0  0.34585  0.69593  0.01109  1.0000
  N   N9        1.0  0.72466  0.21311000000000002  0.39962999999999993  1.0000
  N   N10       1.0  0.87602  0.19141999999999998  0.52606  1.0000
  N   N11       1.0  0.74546  0.24086000000000005  0.839  1.0000
  N   N12       1.0  0.10833  0.22719000000000006  0.78079  1.0000
  N   N13       1.0  0.70047  0.56746  0.70355  1.0000
  N   N14       1.0  0.52636  0.6902000000000001  0.7699599999999998  1.0000
  N   N15       1.0  0.27138  0.99944  0.8009099999999999  1.0000
  N   N16       1.0  0.65415  0.30407999999999996  0.98891  1.0000
  O   O1        1.0  0.10521000000000008  0.7854299999999997  0.81369  1.0000
  O   O2        1.0  0.2503  0.53532  0.8259199999999999  1.0000
  O   O3        1.0  0.89479  0.21458  0.18631  1.0000
  O   O4        1.0  0.7497  0.46469  0.17408  1.0000
