data_image0
_chemical_formula_structural       In4H32C60N4O40
_chemical_formula_sum              "In4 H32 C60 N4 O40"
_cell_length_a       7.32991
_cell_length_b       15.3184
_cell_length_c       22.20507
_cell_angle_alpha    89.95242
_cell_angle_beta     89.98198
_cell_angle_gamma    99.73065

_space_group_name_H-M_alt    "P 1"
_space_group_IT_number       1

loop_
  _space_group_symop_operation_xyz
  'x, y, z'

loop_
  _atom_site_type_symbol
  _atom_site_label
  _atom_site_symmetry_multiplicity
  _atom_site_fract_x
  _atom_site_fract_y
  _atom_site_fract_z
  _atom_site_occupancy
  In  In1       1.0  0.0  0.0  0.5  1.0000
  In  In2       1.0  0.49999999999999994  0.4999999999999999  0.0  1.0000
  In  In3       1.0  0.5  0.0  0.5  1.0000
  In  In4       1.0  0.0  0.4999999999999999  0.0  1.0000
  H   H1        1.0  0.3872  0.71926  0.49692  1.0000
  H   H2        1.0  0.90062  0.73047  0.59375  1.0000
  H   H3        1.0  0.49626999999999993  0.4907499999999999  0.59485  1.0000
  H   H4        1.0  0.53775  0.5918499999999998  0.69733  1.0000
  H   H5        1.0  0.5139199999999998  0.5675299999999998  0.80829  1.0000
  H   H6        1.0  0.053040000000000004  0.49326  0.81049  1.0000
  H   H7        1.0  0.79259  0.12154999999999998  0.52648  1.0000
  H   H8        1.0  0.059479999999999984  0.44613999999999987  0.5274  1.0000
  H   H9        1.0  0.11179999999999998  0.7813299999999999  0.9958699999999999  1.0000
  H   H10       1.0  0.59995  0.77091  0.09354  1.0000
  H   H11       1.0  0.006009999999999999  0.010069999999999997  0.09412  1.0000
  H   H12       1.0  0.96593  0.9100399999999997  0.1975  1.0000
  H   H13       1.0  0.98913  0.9351399999999997  0.30841  1.0000
  H   H14       1.0  0.44645  0.00538  0.31044  1.0000
  H   H15       1.0  0.7057399999999999  0.3781799999999999  0.027039999999999998  1.0000
  H   H16       1.0  0.4478000000000001  0.05228999999999999  0.03009  1.0000
  H   H17       1.0  0.61279  0.28074  0.50308  1.0000
  H   H18       1.0  0.09936999999999997  0.2695299999999999  0.40625  1.0000
  H   H19       1.0  0.5037199999999998  0.50926  0.40514999999999995  1.0000
  H   H20       1.0  0.46223999999999993  0.40815  0.30267  1.0000
  H   H21       1.0  0.48608  0.4324699999999999  0.19171  1.0000
  H   H22       1.0  0.94695  0.5067399999999997  0.18951  1.0000
  H   H23       1.0  0.20741  0.87845  0.47351999999999994  1.0000
  H   H24       1.0  0.94052  0.55386  0.4726  1.0000
  H   H25       1.0  0.88819  0.21866999999999995  0.00413  1.0000
  H   H26       1.0  0.40004  0.2291  0.90646  1.0000
  H   H27       1.0  0.9939800000000001  0.98994  0.90588  1.0000
  H   H28       1.0  0.03405999999999999  0.08995999999999997  0.8025  1.0000
  H   H29       1.0  0.010859999999999996  0.06486  0.69159  1.0000
  H   H30       1.0  0.55354  0.9946299999999998  0.68955  1.0000
  H   H31       1.0  0.29426  0.62183  0.97295  1.0000
  H   H32       1.0  0.5521900000000001  0.9477199999999998  0.9699  1.0000
  C   C1        1.0  0.7028399999999999  0.8301499999999998  0.52402  1.0000
  C   C2        1.0  0.64983  0.7355599999999998  0.54285  1.0000
  C   C3        1.0  0.47866999999999993  0.6879999999999997  0.52502  1.0000
  C   C4        1.0  0.7665999999999998  0.6950299999999998  0.57942  1.0000
  C   C5        1.0  0.42363999999999996  0.6002199999999999  0.54322  1.0000
  C   C6        1.0  0.53962  0.5587099999999998  0.57984  1.0000
  C   C7        1.0  0.70921  0.60753  0.59725  1.0000
  C   C8        1.0  0.65136  0.57159  0.7221799999999999  1.0000
  C   C9        1.0  0.81213  0.55918  0.6914599999999999  1.0000
  C   C10       1.0  0.63713  0.55691  0.7840499999999999  1.0000
  C   C11       1.0  0.95762  0.5323699999999998  0.72472  1.0000
  C   C12       1.0  0.2369199999999999  0.5547199999999999  0.52431  1.0000
  C   C13       1.0  0.7801499999999998  0.5278099999999998  0.8162399999999999  1.0000
  C   C14       1.0  0.76849  0.51357  0.88262  1.0000
  C   C15       1.0  0.9403400000000001  0.51456  0.78589  1.0000
  C   C16       1.0  0.79677  0.67075  0.02392  1.0000
  C   C17       1.0  0.84978  0.76554  0.04221  1.0000
  C   C18       1.0  0.02104999999999995  0.8127999999999997  0.02414  1.0000
  C   C19       1.0  0.73367  0.8063199999999998  0.07889  1.0000
  C   C20       1.0  0.07697  0.9004  0.04252  1.0000
  C   C21       1.0  0.96178  0.94211  0.07931  1.0000
  C   C22       1.0  0.79192  0.8936699999999997  0.09688999999999999  1.0000
  C   C23       1.0  0.85135  0.9295399999999998  0.22228  1.0000
  C   C24       1.0  0.69007  0.9411799999999998  0.19153  1.0000
  C   C25       1.0  0.86549  0.94484  0.28409  1.0000
  C   C26       1.0  0.5436599999999999  0.9668499999999998  0.22489  1.0000
  C   C27       1.0  0.26450999999999997  0.9455599999999997  0.024090000000000004  1.0000
  C   C28       1.0  0.72168  0.9731699999999998  0.31632  1.0000
  C   C29       1.0  0.7350699999999999  0.9891499999999998  0.3825299999999999  1.0000
  C   C30       1.0  0.5602099999999999  0.9847299999999998  0.28603  1.0000
  C   C31       1.0  0.29715  0.16985999999999996  0.47598  1.0000
  C   C32       1.0  0.35016  0.26444  0.45714  1.0000
  C   C33       1.0  0.52132  0.3119999999999999  0.47497999999999996  1.0000
  C   C34       1.0  0.23339  0.30497  0.42057  1.0000
  C   C35       1.0  0.57636  0.3997799999999999  0.45678  1.0000
  C   C36       1.0  0.46037000000000006  0.4412899999999999  0.4201599999999999  1.0000
  C   C37       1.0  0.2907799999999999  0.3924699999999999  0.40275  1.0000
  C   C38       1.0  0.34862999999999994  0.42840999999999996  0.27781  1.0000
  C   C39       1.0  0.18786  0.44082  0.30854  1.0000
  C   C40       1.0  0.36287  0.44309  0.21595  1.0000
  C   C41       1.0  0.04236999999999998  0.4676299999999999  0.27528  1.0000
  C   C42       1.0  0.76307  0.4452799999999999  0.47569  1.0000
  C   C43       1.0  0.21984000000000006  0.47219  0.18375999999999998  1.0000
  C   C44       1.0  0.23149999999999998  0.48642999999999986  0.11737999999999998  1.0000
  C   C45       1.0  0.05964999999999998  0.48543999999999987  0.21411  1.0000
  C   C46       1.0  0.20321999999999996  0.3292599999999999  0.9760799999999998  1.0000
  C   C47       1.0  0.15021000000000004  0.23446999999999996  0.95779  1.0000
  C   C48       1.0  0.97894  0.18719999999999995  0.9758599999999998  1.0000
  C   C49       1.0  0.26631999999999995  0.19369  0.92111  1.0000
  C   C50       1.0  0.92302  0.09961  0.95748  1.0000
  C   C51       1.0  0.038209999999999994  0.05788999999999998  0.92069  1.0000
  C   C52       1.0  0.20808  0.10632999999999997  0.90311  1.0000
  C   C53       1.0  0.14864  0.07045999999999997  0.77772  1.0000
  C   C54       1.0  0.30992  0.05881999999999998  0.80847  1.0000
  C   C55       1.0  0.1345  0.05516  0.71591  1.0000
  C   C56       1.0  0.45633  0.03315  0.77511  1.0000
  C   C57       1.0  0.73551  0.05441999999999999  0.9758999999999999  1.0000
  C   C58       1.0  0.27831  0.02684  0.68367  1.0000
  C   C59       1.0  0.26492  0.010849999999999997  0.61747  1.0000
  C   C60       1.0  0.43978  0.015269999999999997  0.71396  1.0000
  N   N1        1.0  0.13588999999999996  0.5284699999999998  0.6964  1.0000
  N   N2        1.0  0.3662799999999999  0.9713699999999997  0.19593  1.0000
  N   N3        1.0  0.86411  0.47153  0.3036  1.0000
  N   N4        1.0  0.63371  0.028629999999999992  0.80407  1.0000
  O   O1        1.0  0.77044  0.05760999999999999  0.5329  1.0000
  O   O2        1.0  0.8718099999999999  0.8662299999999998  0.53083  1.0000
  O   O3        1.0  0.57273  0.8664399999999998  0.50235  1.0000
  O   O4        1.0  0.83639  0.56855  0.63064  1.0000
  O   O5        1.0  0.19162  0.47173  0.54241  1.0000
  O   O6        1.0  0.13510999999999992  0.5950699999999998  0.49366999999999994  1.0000
  O   O7        1.0  0.62645  0.53289  0.90937  1.0000
  O   O8        1.0  0.90487  0.48404  0.90662  1.0000
  O   O9        1.0  0.21369000000000002  0.4646299999999999  0.70852  1.0000
  O   O10       1.0  0.20122999999999994  0.5918599999999998  0.66343  1.0000
  O   O11       1.0  0.7291699999999999  0.4423499999999999  0.03238  1.0000
  O   O12       1.0  0.62769  0.63481  0.030949999999999995  1.0000
  O   O13       1.0  0.92748  0.63449  0.00266  1.0000
  O   O14       1.0  0.66584  0.93309  0.13058  1.0000
  O   O15       1.0  0.31516  0.02625999999999999  0.0454  1.0000
  O   O16       1.0  0.36252999999999996  0.9066299999999999  0.99083  1.0000
  O   O17       1.0  0.8805399999999999  0.9729399999999998  0.40884  1.0000
  O   O18       1.0  0.59803  0.01769  0.40673  1.0000
  O   O19       1.0  0.29111  0.03655999999999999  0.20654  1.0000
  O   O20       1.0  0.2993499999999999  0.9074199999999998  0.16376  1.0000
  O   O21       1.0  0.22954999999999995  0.9423899999999998  0.4671  1.0000
  O   O22       1.0  0.12818  0.13377  0.46916  1.0000
  O   O23       1.0  0.42726  0.13355999999999998  0.4976499999999999  1.0000
  O   O24       1.0  0.16360999999999998  0.4314499999999999  0.36936  1.0000
  O   O25       1.0  0.8083699999999999  0.5282699999999998  0.45758999999999994  1.0000
  O   O26       1.0  0.8648800000000002  0.4049399999999999  0.50633  1.0000
  O   O27       1.0  0.37354  0.46712  0.09063  1.0000
  O   O28       1.0  0.09511999999999993  0.5159599999999998  0.09338  1.0000
  O   O29       1.0  0.7863  0.53537  0.29147  1.0000
  O   O30       1.0  0.7987700000000001  0.40815  0.33657  1.0000
  O   O31       1.0  0.27082  0.55766  0.96761  1.0000
  O   O32       1.0  0.3723  0.3651999999999999  0.9690499999999999  1.0000
  O   O33       1.0  0.07250999999999998  0.3655099999999999  0.9973299999999999  1.0000
  O   O34       1.0  0.33415  0.06691  0.86941  1.0000
  O   O35       1.0  0.68484  0.9737499999999998  0.9545999999999999  1.0000
  O   O36       1.0  0.63743  0.09338  0.00918  1.0000
  O   O37       1.0  0.11945  0.027059999999999994  0.59115  1.0000
  O   O38       1.0  0.40195999999999993  0.9823099999999998  0.59327  1.0000
  O   O39       1.0  0.70889  0.96345  0.7934599999999999  1.0000
  O   O40       1.0  0.70064  0.09258  0.83624  1.0000
