data_image0
_chemical_formula_structural       Mn4H40C56N8O16
_chemical_formula_sum              "Mn4 H40 C56 N8 O16"
_cell_length_a       8.03615
_cell_length_b       11.43807
_cell_length_c       17.8618
_cell_angle_alpha    104.58488
_cell_angle_beta     90.20569
_cell_angle_gamma    89.88541999999998

_symmetry_space_group_name_H-M    'P 1'
_symmetry_Int_Tables_number       1

loop_
  _symmetry_equiv_pos_as_xyz
  'x,y,z'

loop_
  _atom_site_type_symbol
  _atom_site_label
  _atom_site_symmetry_multiplicity
  _atom_site_fract_x
  _atom_site_fract_y
  _atom_site_fract_z
  _atom_site_occupancy
  Mn  Mn1       1.0  0.83264  0.92784  0.16828  1.0000
  Mn  Mn2       1.0  0.33572  0.07309999999999997  0.33186  1.0000
  Mn  Mn3       1.0  0.16735  0.07217000000000003  0.83172  1.0000
  Mn  Mn4       1.0  0.66428  0.92691  0.66814  1.0000
  H   H1        1.0  0.6019599999999998  0.84818  0.8861  1.0000
  H   H2        1.0  0.90223  0.009340000000000029  0.9516600000000001  1.0000
  H   H3        1.0  0.60598  0.70079  0.09016  1.0000
  H   H4        1.0  0.60013  0.4799900000000001  0.0849  1.0000
  H   H5        1.0  0.9957799999999999  0.54637  0.25538  1.0000
  H   H6        1.0  0.97629  0.76355  0.25724  1.0000
  H   H7        1.0  0.67645  0.08641  0.0643  1.0000
  H   H8        1.0  0.67844  0.29496  0.05686  1.0000
  H   H9        1.0  0.9073  0.38731  0.28492  1.0000
  H   H10       1.0  0.89225  0.17024000000000003  0.28277  1.0000
  H   H11       1.0  0.10282  0.15332  0.61266  1.0000
  H   H12       1.0  0.40107  0.9895900000000002  0.54781  1.0000
  H   H13       1.0  0.10699  0.29895  0.40869  1.0000
  H   H14       1.0  0.10131  0.52006  0.4152  1.0000
  H   H15       1.0  0.49564999999999987  0.45431  0.24510999999999997  1.0000
  H   H16       1.0  0.47623  0.23695  0.24238  1.0000
  H   H17       1.0  0.17674  0.9146000000000001  0.43587  1.0000
  H   H18       1.0  0.17745  0.70621  0.44313  1.0000
  H   H19       1.0  0.40911  0.61341  0.21628  1.0000
  H   H20       1.0  0.39583  0.83045  0.2187  1.0000
  H   H21       1.0  0.39803  0.15183  0.1139  1.0000
  H   H22       1.0  0.09777  0.9906600000000001  0.04834  1.0000
  H   H23       1.0  0.39402  0.29922  0.90984  1.0000
  H   H24       1.0  0.39987  0.52001  0.9151  1.0000
  H   H25       1.0  0.00422  0.45363  0.74461  1.0000
  H   H26       1.0  0.02371  0.23645  0.74275  1.0000
  H   H27       1.0  0.32355  0.91359  0.9357000000000001  1.0000
  H   H28       1.0  0.32155  0.70505  0.9431400000000001  1.0000
  H   H29       1.0  0.0927  0.6127  0.71507  1.0000
  H   H30       1.0  0.10774  0.8297599999999999  0.71723  1.0000
  H   H31       1.0  0.89718  0.84668  0.38734  1.0000
  H   H32       1.0  0.5989299999999997  0.010420000000000004  0.45218  1.0000
  H   H33       1.0  0.89301  0.70106  0.59131  1.0000
  H   H34       1.0  0.89868  0.47994  0.5848  1.0000
  H   H35       1.0  0.5043399999999998  0.54569  0.75489  1.0000
  H   H36       1.0  0.52376  0.7630599999999998  0.75762  1.0000
  H   H37       1.0  0.82326  0.0854  0.56413  1.0000
  H   H38       1.0  0.8225399999999998  0.2937899999999999  0.55687  1.0000
  H   H39       1.0  0.59088  0.38659000000000004  0.78371  1.0000
  H   H40       1.0  0.60416  0.16955  0.7813  1.0000
  C   C1        1.0  0.6828299999999998  0.85856  0.00496  1.0000
  C   C2        1.0  0.6964  0.8882  0.92858  1.0000
  C   C3        1.0  0.80538  0.96638  0.91119  1.0000
  C   C4        1.0  0.79789  0.9997  0.8361100000000001  1.0000
  C   C5        1.0  0.6875899999999998  0.66163  0.12665  1.0000
  C   C6        1.0  0.68786  0.53884  0.12325  1.0000
  C   C7        1.0  0.79712  0.4923100000000001  0.17049  1.0000
  C   C8        1.0  0.9044899999999998  0.5755800000000001  0.21882  1.0000
  C   C9        1.0  0.89571  0.69723  0.21987  1.0000
  C   C10       1.0  0.72813  0.15482999999999997  0.11213  1.0000
  C   C11       1.0  0.73075  0.27466  0.1084  1.0000
  C   C12       1.0  0.79664  0.36342  0.17052  1.0000
  C   C13       1.0  0.85751  0.32383  0.23403  1.0000
  C   C14       1.0  0.8491  0.20257000000000003  0.23371999999999998  1.0000
  C   C15       1.0  0.18382  0.1413  0.4938  1.0000
  C   C16       1.0  0.19722  0.11287  0.57058  1.0000
  C   C17       1.0  0.30445  0.03316999999999998  0.58798  1.0000
  C   C18       1.0  0.29659  0.99854  0.66258  1.0000
  C   C19       1.0  0.18848  0.33846  0.37268  1.0000
  C   C20       1.0  0.1888  0.4614400000000001  0.37671  1.0000
  C   C21       1.0  0.2976899999999999  0.5083000000000001  0.32988  1.0000
  C   C22       1.0  0.40464  0.42503  0.28141  1.0000
  C   C23       1.0  0.39581  0.30322  0.27976  1.0000
  C   C24       1.0  0.22886  0.8462100000000001  0.38823  1.0000
  C   C25       1.0  0.23074  0.7263100000000001  0.39187  1.0000
  C   C26       1.0  0.29729  0.63733  0.33013  1.0000
  C   C27       1.0  0.35915  0.67693  0.26702  1.0000
  C   C28       1.0  0.35148  0.79824  0.26743  1.0000
  C   C29       1.0  0.31717  0.14144999999999996  0.9950300000000001  1.0000
  C   C30       1.0  0.30359  0.11181  0.07142  1.0000
  C   C31       1.0  0.19462  0.03362  0.0888  1.0000
  C   C32       1.0  0.2021  0.00030999999999999463  0.16389  1.0000
  C   C33       1.0  0.3124  0.33837  0.87335  1.0000
  C   C34       1.0  0.31214  0.46116  0.87675  1.0000
  C   C35       1.0  0.20288  0.50769  0.82951  1.0000
  C   C36       1.0  0.0955  0.42443000000000003  0.78118  1.0000
  C   C37       1.0  0.10428  0.30278  0.78013  1.0000
  C   C38       1.0  0.27186  0.8451799999999999  0.88787  1.0000
  C   C39       1.0  0.26925  0.72535  0.8916  1.0000
  C   C40       1.0  0.20335  0.63659  0.82948  1.0000
  C   C41       1.0  0.14249  0.67618  0.76597  1.0000
  C   C42       1.0  0.15089999999999995  0.7974399999999999  0.76628  1.0000
  C   C43       1.0  0.81618  0.85871  0.50619  1.0000
  C   C44       1.0  0.80277  0.88713  0.42942  1.0000
  C   C45       1.0  0.69555  0.96683  0.41202  1.0000
  C   C46       1.0  0.7034  0.001460000000000006  0.33742  1.0000
  C   C47       1.0  0.81152  0.6615500000000001  0.62732  1.0000
  C   C48       1.0  0.8111999999999998  0.53856  0.62329  1.0000
  C   C49       1.0  0.70231  0.49169999999999997  0.67012  1.0000
  C   C50       1.0  0.59536  0.57498  0.71858  1.0000
  C   C51       1.0  0.60419  0.69679  0.72023  1.0000
  C   C52       1.0  0.77113  0.15379  0.61177  1.0000
  C   C53       1.0  0.76926  0.2737  0.60813  1.0000
  C   C54       1.0  0.70271  0.36268  0.66986  1.0000
  C   C55       1.0  0.64084  0.32308  0.73297  1.0000
  C   C56       1.0  0.64852  0.20177000000000003  0.73256  1.0000
  N   N1        1.0  0.7882099999999997  0.7413100000000001  0.17523  1.0000
  N   N2        1.0  0.78457  0.11764  0.17371  1.0000
  N   N3        1.0  0.28857  0.25885  0.32396  1.0000
  N   N4        1.0  0.28663  0.8834300000000002  0.32707  1.0000
  N   N5        1.0  0.21179  0.25869  0.82477  1.0000
  N   N6        1.0  0.21543  0.88236  0.82629  1.0000
  N   N7        1.0  0.71142  0.7411500000000001  0.67603  1.0000
  N   N8        1.0  0.71336  0.11658  0.67293  1.0000
  O   O1        1.0  0.8086  0.8882800000000001  0.05181  1.0000
  O   O2        1.0  0.54994  0.81093  0.019520000000000003  1.0000
  O   O3        1.0  0.6734699999999998  0.96538  0.79155  1.0000
  O   O4        1.0  0.91595  0.06347000000000005  0.81871  1.0000
  O   O5        1.0  0.31176  0.11409000000000004  0.44849  1.0000
  O   O6        1.0  0.04916  0.18510999999999997  0.47720999999999997  1.0000
  O   O7        1.0  0.17494  0.03461999999999998  0.70816  1.0000
  O   O8        1.0  0.41296  0.93105  0.67808  1.0000
  O   O9        1.0  0.19139  0.11171999999999993  0.94819  1.0000
  O   O10       1.0  0.45005  0.18908000000000003  0.9804800000000001  1.0000
  O   O11       1.0  0.32653  0.03462  0.20845  1.0000
  O   O12       1.0  0.08404  0.93654  0.18129  1.0000
  O   O13       1.0  0.68823  0.8859199999999999  0.55151  1.0000
  O   O14       1.0  0.95084  0.8149  0.52279  1.0000
  O   O15       1.0  0.82505  0.96539  0.29184  1.0000
  O   O16       1.0  0.58703  0.06895  0.32192  1.0000
