data_image0
_chemical_formula_structural       Ag8H48C60N8O12
_chemical_formula_sum              "Ag8 H48 C60 N8 O12"
_cell_length_a       8.86337
_cell_length_b       14.0946
_cell_length_c       14.097680000000002
_cell_angle_alpha    120.50071
_cell_angle_beta     90.08671
_cell_angle_gamma    89.98374

_space_group_name_H-M_alt    "P 1"
_space_group_IT_number       1

loop_
  _space_group_symop_operation_xyz
  'x, y, z'

loop_
  _atom_site_type_symbol
  _atom_site_label
  _atom_site_symmetry_multiplicity
  _atom_site_fract_x
  _atom_site_fract_y
  _atom_site_fract_z
  _atom_site_occupancy
  Ag  Ag1       1.0  0.89806  0.08400000000000006  0.67425  1.0000
  Ag  Ag2       1.0  0.89851  0.5924000000000001  0.9173599999999998  1.0000
  Ag  Ag3       1.0  0.89833  0.32484  0.40872  1.0000
  Ag  Ag4       1.0  0.10193  0.9160000000000003  0.32575  1.0000
  Ag  Ag5       1.0  0.10149  0.4076  0.08264  1.0000
  Ag  Ag6       1.0  0.10166  0.6751600000000001  0.5912799999999999  1.0000
  Ag  Ag7       1.0  0.31819  0.33306000000000013  0.66548  1.0000
  Ag  Ag8       1.0  0.68181  0.66694  0.33450999999999986  1.0000
  H   H1        1.0  0.36716  0.053989999999999906  0.7573799999999998  1.0000
  H   H2        1.0  0.5754  0.0014799999999999193  0.8377199999999999  1.0000
  H   H3        1.0  0.80517  0.9074000000000001  0.7240099999999999  1.0000
  H   H4        1.0  0.82648  0.8761100000000002  0.53573  1.0000
  H   H5        1.0  0.59677  0.5068600000000001  0.7521799999999998  1.0000
  H   H6        1.0  0.5951  0.4448499999999999  0.8355399999999997  1.0000
  H   H7        1.0  0.9830800000000001  0.3431699999999999  0.7676299999999998  1.0000
  H   H8        1.0  0.82135  0.3500300000000001  0.84696  1.0000
  H   H9        1.0  0.36817  0.7029299999999999  0.9459399999999998  1.0000
  H   H10       1.0  0.57707  0.8359200000000002  0.9984899999999999  1.0000
  H   H11       1.0  0.80565  0.8179900000000002  0.09416  1.0000
  H   H12       1.0  0.82648  0.66118  0.12519  1.0000
  H   H13       1.0  0.59698  0.24416000000000004  0.49242  1.0000
  H   H14       1.0  0.59466  0.39063  0.55517  1.0000
  H   H15       1.0  0.9829299999999999  0.4254000000000001  0.65773  1.0000
  H   H16       1.0  0.82121  0.49821  0.65131  1.0000
  H   H17       1.0  0.36731  0.24101000000000003  0.29458999999999996  1.0000
  H   H18       1.0  0.57574  0.15968  0.16124  1.0000
  H   H19       1.0  0.80508  0.2732  0.18140999999999996  1.0000
  H   H20       1.0  0.82655  0.46257  0.33976  1.0000
  H   H21       1.0  0.59706  0.24857000000000007  0.75363  1.0000
  H   H22       1.0  0.59511  0.16386  0.60704  1.0000
  H   H23       1.0  0.98305  0.23180000000000006  0.57393  1.0000
  H   H24       1.0  0.8213200000000002  0.15184  0.5004599999999999  1.0000
  H   H25       1.0  0.63284  0.9460100000000002  0.24261999999999995  1.0000
  H   H26       1.0  0.42459  0.9985200000000001  0.16227  1.0000
  H   H27       1.0  0.19483  0.0926  0.27599  1.0000
  H   H28       1.0  0.17352  0.12388999999999996  0.4642599999999999  1.0000
  H   H29       1.0  0.40322  0.49313999999999997  0.24780999999999995  1.0000
  H   H30       1.0  0.4049  0.5551500000000003  0.16444999999999999  1.0000
  H   H31       1.0  0.016920000000000004  0.65683  0.23235999999999998  1.0000
  H   H32       1.0  0.17865  0.6499700000000002  0.15304  1.0000
  H   H33       1.0  0.63182  0.29707  0.05405999999999998  1.0000
  H   H34       1.0  0.42293  0.16408000000000006  0.00151  1.0000
  H   H35       1.0  0.19435  0.18201000000000003  0.90584  1.0000
  H   H36       1.0  0.17352  0.33881999999999995  0.8747999999999998  1.0000
  H   H37       1.0  0.40302  0.75584  0.50758  1.0000
  H   H38       1.0  0.40534  0.60937  0.44483  1.0000
  H   H39       1.0  0.01707  0.5746000000000001  0.34225999999999995  1.0000
  H   H40       1.0  0.17879  0.50179  0.3486899999999999  1.0000
  H   H41       1.0  0.63269  0.7589899999999999  0.7054099999999998  1.0000
  H   H42       1.0  0.42426  0.84032  0.8387499999999998  1.0000
  H   H43       1.0  0.19492  0.7268  0.81858  1.0000
  H   H44       1.0  0.17345  0.5374300000000001  0.66024  1.0000
  H   H45       1.0  0.40293  0.7514300000000003  0.24635999999999994  1.0000
  H   H46       1.0  0.40488  0.83614  0.39295999999999986  1.0000
  H   H47       1.0  0.01695  0.7682000000000002  0.42607  1.0000
  H   H48       1.0  0.17868  0.8481600000000002  0.49954  1.0000
  C   C1        1.0  0.21783  0.08518  0.62261  1.0000
  C   C2        1.0  0.36458  0.04407000000000005  0.56137  1.0000
  C   C3        1.0  0.48001  0.0056200000000000225  0.6034999999999999  1.0000
  C   C4        1.0  0.46900000000000003  0.01757999999999988  0.7098799999999997  1.0000
  C   C5        1.0  0.5858699999999998  0.9877500000000001  0.7548099999999998  1.0000
  C   C6        1.0  0.7176  0.93903  0.69311  1.0000
  C   C7        1.0  0.73347  0.9254100000000004  0.5878  1.0000
  C   C8        1.0  0.38264000000000004  0.03978999999999996  0.4591799999999999  1.0000
  C   C9        1.0  0.63723  0.43732999999999994  0.7594899999999998  1.0000
  C   C10       1.0  0.85974  0.34279999999999994  0.7695799999999999  1.0000
  C   C11       1.0  0.2178  0.5377  0.91535  1.0000
  C   C12       1.0  0.36457  0.51712  0.9559899999999999  1.0000
  C   C13       1.0  0.48022999999999993  0.59805  0.99485  1.0000
  C   C14       1.0  0.46975  0.69226  0.9827199999999998  1.0000
  C   C15       1.0  0.5869  0.76714  0.012599999999999997  1.0000
  C   C16       1.0  0.71829  0.7548500000000001  0.06197  1.0000
  C   C17       1.0  0.7335900000000001  0.6633900000000001  0.07576  1.0000
  C   C18       1.0  0.38252  0.4189000000000001  0.95964  1.0000
  C   C19       1.0  0.63718  0.32196000000000013  0.56228  1.0000
  C   C20       1.0  0.85959  0.42771  0.65785  1.0000
  C   C21       1.0  0.21733  0.3771900000000001  0.46151999999999993  1.0000
  C   C22       1.0  0.36449000000000004  0.4383900000000001  0.48242  1.0000
  C   C23       1.0  0.47994  0.3956800000000001  0.40144  1.0000
  C   C24       1.0  0.46906000000000003  0.2886400000000001  0.30612999999999996  1.0000
  C   C25       1.0  0.58595  0.24309  0.23100999999999997  1.0000
  C   C26       1.0  0.71765  0.3048  0.24434999999999996  1.0000
  C   C27       1.0  0.73341  0.41076999999999997  0.3367799999999999  1.0000
  C   C28       1.0  0.38267  0.5415100000000003  0.58098  1.0000
  C   C29       1.0  0.63732  0.24035000000000012  0.6763  1.0000
  C   C30       1.0  0.8597000000000001  0.22963000000000006  0.5713999999999999  1.0000
  C   C31       1.0  0.78216  0.9148200000000002  0.37738999999999995  1.0000
  C   C32       1.0  0.63542  0.9559299999999998  0.4386299999999999  1.0000
  C   C33       1.0  0.51998  0.9943800000000002  0.39649  1.0000
  C   C34       1.0  0.53099  0.9824200000000001  0.29011999999999993  1.0000
  C   C35       1.0  0.41413  0.012249999999999974  0.24517999999999995  1.0000
  C   C36       1.0  0.28239  0.06096999999999997  0.30687999999999993  1.0000
  C   C37       1.0  0.26652  0.07459  0.41219  1.0000
  C   C38       1.0  0.61735  0.9602100000000002  0.54082  1.0000
  C   C39       1.0  0.36276  0.5626700000000001  0.24050999999999997  1.0000
  C   C40       1.0  0.14026  0.6572  0.23041999999999999  1.0000
  C   C41       1.0  0.7822  0.4623000000000001  0.08465  1.0000
  C   C42       1.0  0.63543  0.48288000000000003  0.044009999999999994  1.0000
  C   C43       1.0  0.51977  0.40195  0.005149999999999999  1.0000
  C   C44       1.0  0.53025  0.30774  0.01728  1.0000
  C   C45       1.0  0.41309  0.23285999999999996  0.9873899999999998  1.0000
  C   C46       1.0  0.28171  0.24513999999999989  0.9380199999999997  1.0000
  C   C47       1.0  0.2664000000000001  0.33661000000000013  0.92424  1.0000
  C   C48       1.0  0.61747  0.5811000000000002  0.04034999999999999  1.0000
  C   C49       1.0  0.36282  0.6780400000000002  0.4377199999999999  1.0000
  C   C50       1.0  0.14041  0.57229  0.34213999999999994  1.0000
  C   C51       1.0  0.78266  0.62281  0.53848  1.0000
  C   C52       1.0  0.6355  0.5616100000000002  0.5175699999999999  1.0000
  C   C53       1.0  0.5200600000000001  0.6043200000000002  0.5985599999999999  1.0000
  C   C54       1.0  0.53093  0.71136  0.69387  1.0000
  C   C55       1.0  0.4140400000000001  0.75691  0.7689899999999998  1.0000
  C   C56       1.0  0.28235  0.6952  0.7556399999999999  1.0000
  C   C57       1.0  0.26658  0.58923  0.6632099999999997  1.0000
  C   C58       1.0  0.61732  0.4584900000000001  0.41902  1.0000
  C   C59       1.0  0.36267  0.7596500000000004  0.32369999999999993  1.0000
  C   C60       1.0  0.14029999999999995  0.7703700000000002  0.4286  1.0000
  N   N1        1.0  0.80416  0.4383899999999999  0.7618199999999998  1.0000
  N   N2        1.0  0.8041400000000001  0.32336000000000004  0.56158  1.0000
  N   N3        1.0  0.80427  0.23829000000000006  0.67522  1.0000
  N   N4        1.0  0.19584  0.5616100000000002  0.23817999999999995  1.0000
  N   N5        1.0  0.19585  0.67664  0.43842  1.0000
  N   N6        1.0  0.19572  0.76171  0.32476999999999995  1.0000
  N   N7        1.0  0.57917  0.3331900000000001  0.66594  1.0000
  N   N8        1.0  0.42083  0.6668099999999999  0.33404999999999996  1.0000
  O   O1        1.0  0.17492000000000002  0.18334999999999996  0.6562199999999999  1.0000
  O   O2        1.0  0.13875  0.015419999999999939  0.6342499999999999  1.0000
  O   O3        1.0  0.17499  0.47325999999999996  0.8167499999999999  1.0000
  O   O4        1.0  0.13886000000000004  0.6196000000000003  0.98598  1.0000
  O   O5        1.0  0.17458  0.3433300000000001  0.5253499999999999  1.0000
  O   O6        1.0  0.13793  0.3658300000000001  0.38013  1.0000
  O   O7        1.0  0.82508  0.8166500000000002  0.34378  1.0000
  O   O8        1.0  0.86125  0.9845800000000001  0.36575  1.0000
  O   O9        1.0  0.825  0.5267400000000001  0.18323999999999993  1.0000
  O   O10       1.0  0.86114  0.38040000000000007  0.014019999999999996  1.0000
  O   O11       1.0  0.82541  0.65667  0.47464  1.0000
  O   O12       1.0  0.86206  0.6341700000000002  0.61987  1.0000
