data_image0
_chemical_formula_structural       Cd4H32C32N20O12
_chemical_formula_sum              "Cd4 H32 C32 N20 O12"
_cell_length_a       8.04923
_cell_length_b       12.50752
_cell_length_c       15.59806
_cell_angle_alpha    90.0
_cell_angle_beta     90.0
_cell_angle_gamma    85.84868

_space_group_name_H-M_alt    "P 1"
_space_group_IT_number       1

loop_
  _space_group_symop_operation_xyz
  'x, y, z'

loop_
  _atom_site_type_symbol
  _atom_site_label
  _atom_site_symmetry_multiplicity
  _atom_site_fract_x
  _atom_site_fract_y
  _atom_site_fract_z
  _atom_site_occupancy
  Cd  Cd1       1.0  0.75  0.0  0.4730499999999999  1.0000
  Cd  Cd2       1.0  0.25  0.0  0.52695  1.0000
  Cd  Cd3       1.0  0.0  0.5  0.0  1.0000
  Cd  Cd4       1.0  0.5  0.5  0.0  1.0000
  H   H1        1.0  0.06353  0.26587  0.6168199999999998  1.0000
  H   H2        1.0  0.031089999999999996  0.18357000000000004  0.7056999999999998  1.0000
  H   H3        1.0  0.17588999999999996  0.69043  0.5283999999999998  1.0000
  H   H4        1.0  0.07819  0.58116  0.48182999999999987  1.0000
  H   H5        1.0  0.75622  0.33368000000000003  0.62037  1.0000
  H   H6        1.0  0.73068  0.25737  0.71355  1.0000
  H   H7        1.0  0.8186600000000002  0.33254  0.8568699999999998  1.0000
  H   H8        1.0  0.16116000000000003  0.65205  0.8162899999999997  1.0000
  H   H9        1.0  0.43648  0.7341300000000002  0.6168199999999998  1.0000
  H   H10       1.0  0.46892  0.81643  0.7056999999999998  1.0000
  H   H11       1.0  0.32413  0.30957  0.5283999999999998  1.0000
  H   H12       1.0  0.4218200000000002  0.41883  0.48182999999999987  1.0000
  H   H13       1.0  0.74378  0.6663200000000001  0.62037  1.0000
  H   H14       1.0  0.76933  0.74263  0.71355  1.0000
  H   H15       1.0  0.68135  0.6674600000000003  0.8568699999999998  1.0000
  H   H16       1.0  0.33885  0.34795  0.8162899999999997  1.0000
  H   H17       1.0  0.9364800000000001  0.7341300000000002  0.38318  1.0000
  H   H18       1.0  0.96892  0.81643  0.2943  1.0000
  H   H19       1.0  0.82412  0.30957  0.4716  1.0000
  H   H20       1.0  0.92181  0.41883  0.51817  1.0000
  H   H21       1.0  0.24378000000000002  0.6663200000000001  0.37963  1.0000
  H   H22       1.0  0.26933  0.74263  0.28645  1.0000
  H   H23       1.0  0.18134999999999998  0.6674600000000003  0.14313  1.0000
  H   H24       1.0  0.83885  0.34795  0.18370999999999996  1.0000
  H   H25       1.0  0.5635300000000001  0.26587  0.38318  1.0000
  H   H26       1.0  0.53109  0.18356  0.2943  1.0000
  H   H27       1.0  0.67588  0.69043  0.4716  1.0000
  H   H28       1.0  0.5781900000000001  0.58116  0.51817  1.0000
  H   H29       1.0  0.25622  0.33368000000000003  0.37963  1.0000
  H   H30       1.0  0.23067999999999997  0.25736  0.28645  1.0000
  H   H31       1.0  0.3186600000000001  0.33254  0.14313  1.0000
  H   H32       1.0  0.66115  0.65205  0.18370999999999996  1.0000
  C   C1        1.0  0.9692400000000004  0.22058  0.6492999999999998  1.0000
  C   C2        1.0  0.92023  0.13282  0.5902299999999998  1.0000
  C   C3        1.0  0.017810000000000006  0.52112  0.77502  1.0000
  C   C4        1.0  0.96767  0.46836000000000005  0.7003999999999998  1.0000
  C   C5        1.0  0.82224  0.29823  0.67601  1.0000
  C   C6        1.0  0.08538000000000001  0.58562  0.6145799999999998  1.0000
  C   C7        1.0  0.8811  0.38883000000000006  0.81755  1.0000
  C   C8        1.0  0.11101  0.60975  0.76196  1.0000
  C   C9        1.0  0.53076  0.77942  0.6492999999999998  1.0000
  C   C10       1.0  0.57976  0.8671800000000002  0.5902199999999997  1.0000
  C   C11       1.0  0.48219  0.47888  0.77502  1.0000
  C   C12       1.0  0.53234  0.53164  0.7003999999999998  1.0000
  C   C13       1.0  0.67777  0.70177  0.67601  1.0000
  C   C14       1.0  0.41462  0.4143800000000001  0.6145799999999998  1.0000
  C   C15       1.0  0.6188999999999999  0.6111600000000001  0.81755  1.0000
  C   C16       1.0  0.38899  0.39024  0.76196  1.0000
  C   C17       1.0  0.03076000000000001  0.77942  0.3506999999999999  1.0000
  C   C18       1.0  0.07976999999999995  0.8671800000000002  0.4097699999999999  1.0000
  C   C19       1.0  0.9821900000000001  0.47888  0.22497999999999996  1.0000
  C   C20       1.0  0.03234000000000001  0.53164  0.29959999999999987  1.0000
  C   C21       1.0  0.17777  0.70177  0.32399  1.0000
  C   C22       1.0  0.91462  0.4143800000000001  0.38542  1.0000
  C   C23       1.0  0.11890000000000005  0.6111600000000001  0.18244999999999995  1.0000
  C   C24       1.0  0.88899  0.39024  0.23803999999999995  1.0000
  C   C25       1.0  0.46924  0.22058  0.3506999999999999  1.0000
  C   C26       1.0  0.42024  0.13282  0.40978  1.0000
  C   C27       1.0  0.51781  0.52112  0.22497999999999996  1.0000
  C   C28       1.0  0.46767  0.46836000000000005  0.29959999999999987  1.0000
  C   C29       1.0  0.32224  0.29823  0.32399  1.0000
  C   C30       1.0  0.5853800000000005  0.58562  0.38542  1.0000
  C   C31       1.0  0.38110000000000005  0.38883000000000006  0.18244999999999995  1.0000
  C   C32       1.0  0.61101  0.60975  0.23803999999999995  1.0000
  N   N1        1.0  0.88092  0.38377  0.72863  1.0000
  N   N2        1.0  0.9975999999999999  0.49642000000000003  0.61965  1.0000
  N   N3        1.0  0.11716000000000004  0.62179  0.53489  1.0000
  N   N4        1.0  0.14361  0.6421900000000001  0.68205  1.0000
  N   N5        1.0  0.96014  0.4696  0.84708  1.0000
  N   N6        1.0  0.61909  0.61623  0.72863  1.0000
  N   N7        1.0  0.50241  0.50357  0.61965  1.0000
  N   N8        1.0  0.38285  0.37821  0.53489  1.0000
  N   N9        1.0  0.3564  0.3578100000000001  0.68205  1.0000
  N   N10       1.0  0.5398600000000003  0.5304  0.84708  1.0000
  N   N11       1.0  0.11908  0.61623  0.2713699999999999  1.0000
  N   N12       1.0  0.002409999999999999  0.50357  0.3803499999999999  1.0000
  N   N13       1.0  0.88285  0.37820000000000004  0.4651099999999999  1.0000
  N   N14       1.0  0.8564  0.3578100000000001  0.31795  1.0000
  N   N15       1.0  0.03986  0.5304  0.15292  1.0000
  N   N16       1.0  0.38092  0.38377  0.2713699999999999  1.0000
  N   N17       1.0  0.49759000000000003  0.49642000000000003  0.3803499999999999  1.0000
  N   N18       1.0  0.61716  0.62179  0.4651099999999999  1.0000
  N   N19       1.0  0.6436000000000002  0.6421900000000001  0.31795  1.0000
  N   N20       1.0  0.46014  0.4695900000000001  0.15292  1.0000
  O   O1        1.0  0.79474  0.15299  0.5406699999999998  1.0000
  O   O2        1.0  0.0012800000000000005  0.04095  0.59271  1.0000
  O   O3        1.0  0.26919999999999994  0.43651  0.9599399999999998  1.0000
  O   O4        1.0  0.70524  0.84701  0.54066  1.0000
  O   O5        1.0  0.49872999999999995  0.95905  0.59271  1.0000
  O   O6        1.0  0.23081  0.56349  0.9599399999999998  1.0000
  O   O7        1.0  0.20527  0.84701  0.45933  1.0000
  O   O8        1.0  0.9987300000000001  0.95905  0.40729  1.0000
  O   O9        1.0  0.73081  0.56349  0.040059999999999985  1.0000
  O   O10       1.0  0.29476  0.15299  0.4593399999999999  1.0000
  O   O11       1.0  0.50128  0.04095  0.40729  1.0000
  O   O12       1.0  0.7691900000000003  0.43651  0.040059999999999985  1.0000
