data_image0
_chemical_formula_structural       Zn4H32C64N8O32
_chemical_formula_sum              "Zn4 H32 C64 N8 O32"
_cell_length_a       8.89096
_cell_length_b       11.9111
_cell_length_c       21.06137
_cell_angle_alpha    90.16483
_cell_angle_beta     90.09477
_cell_angle_gamma    105.64496

_symmetry_space_group_name_H-M    'P 1'
_symmetry_Int_Tables_number       1

loop_
  _symmetry_equiv_pos_as_xyz
  'x,y,z'

loop_
  _atom_site_type_symbol
  _atom_site_label
  _atom_site_symmetry_multiplicity
  _atom_site_fract_x
  _atom_site_fract_y
  _atom_site_fract_z
  _atom_site_occupancy
  Zn  Zn1       1.0  0.69393  0.25325  0.5061399999999999  1.0000
  Zn  Zn2       1.0  0.9573899999999999  0.76355  0.0014799999999999998  1.0000
  Zn  Zn3       1.0  0.30076  0.74619  0.00463  1.0000
  Zn  Zn4       1.0  0.04123999999999998  0.23565  0.50296  1.0000
  H   H1        1.0  0.40618999999999983  0.17614000000000002  0.8899599999999998  1.0000
  H   H2        1.0  0.88663  0.2832  0.10444  1.0000
  H   H3        1.0  0.31965999999999994  0.53325  0.05149999999999999  1.0000
  H   H4        1.0  0.95644  0.16808  0.30194  1.0000
  H   H5        1.0  0.93119  0.24940000000000004  0.23282  1.0000
  H   H6        1.0  0.36348999999999987  0.39818  0.03564  1.0000
  H   H7        1.0  0.59476  0.66174  0.32769999999999994  1.0000
  H   H8        1.0  0.59634  0.8313800000000001  0.38572  1.0000
  H   H9        1.0  0.51835  0.9353600000000002  0.42666999999999994  1.0000
  H   H10       1.0  0.033769999999999994  0.30749  0.76881  1.0000
  H   H11       1.0  0.9099099999999999  0.69739  0.7879099999999999  1.0000
  H   H12       1.0  0.08771  0.30479  0.28787  1.0000
  H   H13       1.0  0.06939000000000001  0.22543000000000002  0.70163  1.0000
  H   H14       1.0  0.048499999999999995  0.833  0.79645  1.0000
  H   H15       1.0  0.68191  0.47232  0.55019  1.0000
  H   H16       1.0  0.06258999999999999  0.7412  0.73025  1.0000
  H   H17       1.0  0.6970699999999997  0.52342  0.47107  1.0000
  H   H18       1.0  0.9627299999999999  0.69342  0.267  1.0000
  H   H19       1.0  0.8957399999999998  0.17711000000000002  0.748  1.0000
  H   H20       1.0  0.9056099999999999  0.34004  0.86569  1.0000
  H   H21       1.0  0.30274  0.47645  0.9733999999999999  1.0000
  H   H22       1.0  0.47758999999999996  0.06519  0.92741  1.0000
  H   H23       1.0  0.40390999999999994  0.33899  0.8267199999999998  1.0000
  H   H24       1.0  0.4979199999999999  0.7938500000000001  0.45875999999999995  1.0000
  H   H25       1.0  0.09576  0.66526  0.36506  1.0000
  H   H26       1.0  0.6393499999999999  0.60689  0.53184  1.0000
  H   H27       1.0  0.10299999999999994  0.71062  0.6047099999999999  1.0000
  H   H28       1.0  0.38282  0.33575  0.16845999999999997  1.0000
  H   H29       1.0  0.10372000000000005  0.8226200000000001  0.24707  1.0000
  H   H30       1.0  0.9314099999999998  0.7757600000000001  0.19941  1.0000
  H   H31       1.0  0.61739  0.66397  0.66828  1.0000
  H   H32       1.0  0.49959999999999993  0.2028  0.9649299999999998  1.0000
  C   C1        1.0  0.59937  0.67317  0.99754  1.0000
  C   C2        1.0  0.89395  0.79439  0.42009  1.0000
  C   C3        1.0  0.54881  0.59281  0.2933  1.0000
  C   C4        1.0  0.7786999999999997  0.02899  0.49239  1.0000
  C   C5        1.0  0.35886  0.49615  0.21263999999999997  1.0000
  C   C6        1.0  0.98476  0.24804  0.013909999999999997  1.0000
  C   C7        1.0  0.8143799999999998  0.37975  0.95617  1.0000
  C   C8        1.0  0.008450000000000036  0.7492400000000001  0.51412  1.0000
  C   C9        1.0  0.57718  0.86627  0.43263999999999997  1.0000
  C   C10       1.0  0.9023499999999999  0.32818  0.91669  1.0000
  C   C11       1.0  0.77907  0.48328  0.68124  1.0000
  C   C12       1.0  0.09408999999999998  0.17869  0.03178  1.0000
  C   C13       1.0  0.74513  0.47746  0.32029  1.0000
  C   C14       1.0  0.03489000000000002  0.74262  0.7807099999999999  1.0000
  C   C15       1.0  0.9906599999999999  0.26438  0.94779  1.0000
  C   C16       1.0  0.18417  0.62226  0.45555  1.0000
  C   C17       1.0  0.3189299999999999  0.66915  0.25487  1.0000
  C   C18       1.0  0.9161299999999999  0.31228  0.61509  1.0000
  C   C19       1.0  0.8722  0.30943  0.39159999999999995  1.0000
  C   C20       1.0  0.18921  0.6373  0.52171  1.0000
  C   C21       1.0  0.86841  0.3152  0.32157  1.0000
  C   C22       1.0  0.5818199999999999  0.41323  0.7557199999999998  1.0000
  C   C23       1.0  0.10593999999999999  0.20823000000000003  0.9202499999999998  1.0000
  C   C24       1.0  0.37376  0.48623  0.0175  1.0000
  C   C25       1.0  0.21429999999999993  0.97044  0.9911199999999998  1.0000
  C   C26       1.0  0.5382899999999999  0.54779  0.0030699999999999994  1.0000
  C   C27       1.0  0.38549  0.50077  0.7842499999999998  1.0000
  C   C28       1.0  0.72616  0.91032  0.46773  1.0000
  C   C29       1.0  0.5724099999999998  0.59539  0.70276  1.0000
  C   C30       1.0  0.10084  0.7006  0.55339  1.0000
  C   C31       1.0  0.42074999999999996  0.13489  0.93545  1.0000
  C   C32       1.0  0.4507999999999999  0.4078800000000001  0.7927  1.0000
  C   C33       1.0  0.018929999999999995  0.74601  0.22629  1.0000
  C   C34       1.0  0.6607  0.32972  0.24202  1.0000
  C   C35       1.0  0.12913999999999995  0.68387  0.8202  1.0000
  C   C36       1.0  0.8917299999999998  0.29595  0.053309999999999996  1.0000
  C   C37       1.0  0.39998999999999996  0.33058  0.49996  1.0000
  C   C38       1.0  0.9633399999999999  0.25533  0.28306  1.0000
  C   C39       1.0  0.09718000000000002  0.67476  0.41626  1.0000
  C   C40       1.0  0.09692000000000002  0.68028  0.18351999999999996  1.0000
  C   C41       1.0  0.55948  0.41034000000000004  0.24018999999999993  1.0000
  C   C42       1.0  0.08432000000000002  0.68726  0.11424999999999999  1.0000
  C   C43       1.0  0.26902999999999994  0.08952000000000002  0.96796  1.0000
  C   C44       1.0  0.21933  0.51515  0.18176  1.0000
  C   C45       1.0  0.46249999999999997  0.45588  0.50232  1.0000
  C   C46       1.0  0.28286  0.54436  0.43748  1.0000
  C   C47       1.0  0.6276399999999999  0.51748  0.51531  1.0000
  C   C48       1.0  0.71746  0.45904  0.93846  1.0000
  C   C49       1.0  0.12466999999999999  0.6905  0.89005  1.0000
  C   C50       1.0  0.41744  0.58723  0.25616  1.0000
  C   C51       1.0  0.9018799999999999  0.31881000000000004  0.68435  1.0000
  C   C52       1.0  0.64029  0.5035  0.7120699999999999  1.0000
  C   C53       1.0  0.44048  0.59009  0.7398  1.0000
  C   C54       1.0  0.25454  0.52266  0.8194599999999999  1.0000
  C   C55       1.0  0.3386599999999999  0.67037  0.7418699999999999  1.0000
  C   C56       1.0  0.61459  0.49999000000000005  0.2848399999999999  1.0000
  C   C57       1.0  0.29964  0.57552  0.54816  1.0000
  C   C58       1.0  0.68092  0.33201  0.75539  1.0000
  C   C59       1.0  0.9798899999999999  0.2542  0.7277199999999999  1.0000
  C   C60       1.0  0.69771  0.4251  0.048949999999999994  1.0000
  C   C61       1.0  0.80662  0.36222  0.02213  1.0000
  C   C62       1.0  0.89592  0.81608  0.5320799999999999  1.0000
  C   C63       1.0  0.006890000000000009  0.73656  0.44778999999999997  1.0000
  C   C64       1.0  0.42717  0.40451  0.20317  1.0000
  N   N1        1.0  0.16721  0.15875  0.9730699999999998  1.0000
  N   N2        1.0  0.7693100000000002  0.37139  0.29475  1.0000
  N   N3        1.0  0.7962799999999998  0.37437000000000004  0.70679  1.0000
  N   N4        1.0  0.82812  0.8407900000000003  0.47294  1.0000
  N   N5        1.0  0.20225  0.6248  0.20657999999999999  1.0000
  N   N6        1.0  0.22937  0.62797  0.79393  1.0000
  N   N7        1.0  0.64487  0.48021  0.9962399999999999  1.0000
  N   N8        1.0  0.35518  0.52297  0.4951  1.0000
  O   O1        1.0  0.3178899999999999  0.9137  0.9971099999999999  1.0000
  O   O2        1.0  0.99135  0.28559  0.41606999999999994  1.0000
  O   O3        1.0  0.96824  0.7187  0.09145999999999999  1.0000
  O   O4        1.0  0.19724  0.66855  0.08142  1.0000
  O   O5        1.0  0.25797  0.28993  0.48181  1.0000
  O   O6        1.0  0.008639999999999997  0.71946  0.91402  1.0000
  O   O7        1.0  0.48262999999999995  0.26226  0.51724  1.0000
  O   O8        1.0  0.3029999999999999  0.50801  0.38492999999999994  1.0000
  O   O9        1.0  0.24214  0.67454  0.9207399999999999  1.0000
  O   O10       1.0  0.82546  0.53678  0.36160999999999993  1.0000
  O   O11       1.0  0.86244  0.80534  0.36451999999999996  1.0000
  O   O12       1.0  0.67451  0.08524  0.4984199999999999  1.0000
  O   O13       1.0  0.12747  0.14861  0.08381  1.0000
  O   O14       1.0  0.87059  0.54508  0.64453  1.0000
  O   O15       1.0  0.06646999999999997  0.93101  0.00018  1.0000
  O   O16       1.0  0.65785  0.24463  0.20981  1.0000
  O   O17       1.0  0.51591  0.7423700000000001  0.01258  1.0000
  O   O18       1.0  0.85674  0.84066  0.5843899999999999  1.0000
  O   O19       1.0  0.03335  0.28167  0.59299  1.0000
  O   O20       1.0  0.8043799999999998  0.33123  0.58144  1.0000
  O   O21       1.0  0.6689999999999999  0.24498  0.78744  1.0000
  O   O22       1.0  0.33243  0.75832  0.2856  1.0000
  O   O23       1.0  0.69776  0.4967100000000001  0.8862699999999999  1.0000
  O   O24       1.0  0.7406499999999998  0.71427  0.97857  1.0000
  O   O25       1.0  0.14315  0.20062  0.8650599999999999  1.0000
  O   O26       1.0  0.33744  0.56692  0.60313  1.0000
  O   O27       1.0  0.7512899999999999  0.32053  0.42154  1.0000
  O   O28       1.0  0.9262499999999999  0.06898  0.50293  1.0000
  O   O29       1.0  0.34176  0.75613  0.7105499999999999  1.0000
  O   O30       1.0  0.12771999999999994  0.4514100000000001  0.14558  1.0000
  O   O31       1.0  0.6591799999999999  0.43288  0.10395  1.0000
  O   O32       1.0  0.17454000000000003  0.46295000000000003  0.86037  1.0000
