data_image0
_chemical_formula_structural       In4H24C64O32
_chemical_formula_sum              "In4 H24 C64 O32"
_cell_length_a       10.17981
_cell_length_b       17.30553
_cell_length_c       19.89796
_cell_angle_alpha    90.03304
_cell_angle_beta     90.0
_cell_angle_gamma    90.0

_symmetry_space_group_name_H-M    'P 1'
_symmetry_Int_Tables_number       1

loop_
  _symmetry_equiv_pos_as_xyz
  'x,y,z'

loop_
  _atom_site_type_symbol
  _atom_site_label
  _atom_site_symmetry_multiplicity
  _atom_site_fract_x
  _atom_site_fract_y
  _atom_site_fract_z
  _atom_site_occupancy
  In  In1       1.0  0.09176  0.15948  0.81922  1.0000
  In  In2       1.0  0.09176  0.8405200000000002  0.18078  1.0000
  In  In3       1.0  0.90923  0.6591400000000001  0.68015  1.0000
  In  In4       1.0  0.90923  0.34086000000000005  0.3198500000000001  1.0000
  H   H1        1.0  0.049600000000000005  0.10056000000000002  0.5755000000000001  1.0000
  H   H2        1.0  0.99219  0.9227800000000003  0.7232100000000001  1.0000
  H   H3        1.0  0.93188  0.8688  0.515  1.0000
  H   H4        1.0  0.37281  0.03145  0.96095  1.0000
  H   H5        1.0  0.58142  0.16301  0.8138500000000001  1.0000
  H   H6        1.0  0.80127  0.03789  0.9619200000000001  1.0000
  H   H7        1.0  0.049600000000000005  0.89945  0.4245  1.0000
  H   H8        1.0  0.99219  0.07722  0.27679000000000004  1.0000
  H   H9        1.0  0.93188  0.1312  0.485  1.0000
  H   H10       1.0  0.37281  0.9685500000000001  0.03906  1.0000
  H   H11       1.0  0.58142  0.8369900000000002  0.18615  1.0000
  H   H12       1.0  0.80127  0.9621100000000001  0.03808  1.0000
  H   H13       1.0  0.95046  0.60044  0.9245200000000001  1.0000
  H   H14       1.0  0.00773  0.42279000000000005  0.77661  1.0000
  H   H15       1.0  0.06823  0.36866000000000004  0.98478  1.0000
  H   H16       1.0  0.62738  0.53157  0.53908  1.0000
  H   H17       1.0  0.41825  0.66314  0.6862  1.0000
  H   H18       1.0  0.19905999999999996  0.53783  0.53793  1.0000
  H   H19       1.0  0.95046  0.39956000000000014  0.07549  1.0000
  H   H20       1.0  0.00773  0.5772100000000001  0.2234  1.0000
  H   H21       1.0  0.06823  0.63134  0.01522  1.0000
  H   H22       1.0  0.62738  0.46843000000000007  0.46093000000000006  1.0000
  H   H23       1.0  0.41825  0.33686000000000005  0.3138  1.0000
  H   H24       1.0  0.19905999999999996  0.46217  0.46207000000000004  1.0000
  C   C1        1.0  0.9913  0.9879800000000001  0.5353  1.0000
  C   C2        1.0  0.02262  0.04117  0.58719  1.0000
  C   C3        1.0  0.02398  0.01752  0.65408  1.0000
  C   C4        1.0  0.9917099999999999  0.94082  0.67085  1.0000
  C   C5        1.0  0.9589900000000001  0.88776  0.62022  1.0000
  C   C6        1.0  0.95961  0.9109  0.55312  1.0000
  C   C7        1.0  0.05758  0.07189  0.7098400000000001  1.0000
  C   C8        1.0  0.92763  0.80591  0.63791  1.0000
  C   C9        1.0  0.58744  0.02541  0.97069  1.0000
  C   C10       1.0  0.46738  0.04977  0.9413200000000002  1.0000
  C   C11       1.0  0.4649  0.09867  0.88593  1.0000
  C   C12       1.0  0.58286  0.12498  0.85741  1.0000
  C   C13       1.0  0.70322  0.10190000000000002  0.8860300000000001  1.0000
  C   C14       1.0  0.70554  0.05305  0.9415700000000001  1.0000
  C   C15       1.0  0.33409  0.12189000000000001  0.8589100000000001  1.0000
  C   C16       1.0  0.8302800000000001  0.12853000000000003  0.8563800000000001  1.0000
  C   C17       1.0  0.9913  0.01202  0.46471000000000007  1.0000
  C   C18       1.0  0.02262  0.95883  0.4128200000000001  1.0000
  C   C19       1.0  0.02398  0.9824800000000001  0.34592  1.0000
  C   C20       1.0  0.9917099999999999  0.05919  0.32916000000000006  1.0000
  C   C21       1.0  0.9589900000000001  0.11224  0.37978000000000006  1.0000
  C   C22       1.0  0.95961  0.0891  0.44689000000000006  1.0000
  C   C23       1.0  0.05758  0.92811  0.29016  1.0000
  C   C24       1.0  0.92763  0.1941  0.36209  1.0000
  C   C25       1.0  0.58744  0.97459  0.02931  1.0000
  C   C26       1.0  0.46738  0.9502300000000001  0.05869  1.0000
  C   C27       1.0  0.4649  0.90133  0.11408  1.0000
  C   C28       1.0  0.58286  0.87502  0.14259  1.0000
  C   C29       1.0  0.70322  0.8981  0.11397  1.0000
  C   C30       1.0  0.70554  0.94695  0.05844  1.0000
  C   C31       1.0  0.33409  0.8781100000000002  0.1411  1.0000
  C   C32       1.0  0.8302800000000001  0.87147  0.14362  1.0000
  C   C33       1.0  0.00894  0.48789999999999994  0.9646800000000001  1.0000
  C   C34       1.0  0.9774  0.54103  0.91284  1.0000
  C   C35       1.0  0.9758  0.51742  0.8459000000000001  1.0000
  C   C36       1.0  0.00816  0.4408200000000001  0.82899  1.0000
  C   C37       1.0  0.04103  0.38772  0.87948  1.0000
  C   C38       1.0  0.04054  0.41076  0.94669  1.0000
  C   C39       1.0  0.9423200000000002  0.5721  0.79043  1.0000
  C   C40       1.0  0.0723  0.30602  0.86111  1.0000
  C   C41       1.0  0.41303  0.52542  0.52931  1.0000
  C   C42       1.0  0.53289  0.54992  0.55878  1.0000
  C   C43       1.0  0.53544  0.59887  0.61427  1.0000
  C   C44       1.0  0.41725  0.62511  0.6426  1.0000
  C   C45       1.0  0.29704  0.60199  0.6136500000000001  1.0000
  C   C46       1.0  0.29484  0.553  0.55825  1.0000
  C   C47       1.0  0.66702  0.6217800000000002  0.6409500000000001  1.0000
  C   C48       1.0  0.16955  0.62868  0.64261  1.0000
  C   C49       1.0  0.00894  0.5121000000000002  0.03533  1.0000
  C   C50       1.0  0.9774  0.45897  0.08716  1.0000
  C   C51       1.0  0.9758  0.48258  0.1541  1.0000
  C   C52       1.0  0.00816  0.55918  0.17102  1.0000
  C   C53       1.0  0.04103  0.61228  0.12052000000000002  1.0000
  C   C54       1.0  0.04054  0.58924  0.053320000000000006  1.0000
  C   C55       1.0  0.9423200000000002  0.4279  0.20957000000000003  1.0000
  C   C56       1.0  0.0723  0.6939800000000002  0.13889  1.0000
  C   C57       1.0  0.41303  0.47458  0.47069000000000005  1.0000
  C   C58       1.0  0.53289  0.45008  0.44123  1.0000
  C   C59       1.0  0.53544  0.40113  0.38573  1.0000
  C   C60       1.0  0.41725  0.37489000000000006  0.3574  1.0000
  C   C61       1.0  0.29704  0.39801  0.38635  1.0000
  C   C62       1.0  0.29484  0.4470000000000001  0.44175  1.0000
  C   C63       1.0  0.66702  0.37823  0.35905  1.0000
  C   C64       1.0  0.16955  0.37132  0.35739  1.0000
  O   O1        1.0  0.07355  0.14376  0.69996  1.0000
  O   O2        1.0  0.06662  0.04314000000000001  0.76918  1.0000
  O   O3        1.0  0.9342100000000001  0.7853400000000003  0.70019  1.0000
  O   O4        1.0  0.89991  0.75765  0.59239  1.0000
  O   O5        1.0  0.32475  0.16519000000000003  0.8073500000000001  1.0000
  O   O6        1.0  0.23181  0.09724  0.88934  1.0000
  O   O7        1.0  0.83277  0.16394  0.80094  1.0000
  O   O8        1.0  0.9364300000000001  0.11383  0.8890400000000002  1.0000
  O   O9        1.0  0.07355  0.85624  0.30004  1.0000
  O   O10       1.0  0.06662  0.95686  0.23082000000000003  1.0000
  O   O11       1.0  0.9342100000000001  0.21466  0.29982  1.0000
  O   O12       1.0  0.89991  0.24235  0.40761  1.0000
  O   O13       1.0  0.32475  0.83481  0.19266  1.0000
  O   O14       1.0  0.23181  0.90276  0.11067000000000002  1.0000
  O   O15       1.0  0.83277  0.83606  0.19906000000000001  1.0000
  O   O16       1.0  0.9364300000000001  0.88617  0.11097000000000001  1.0000
  O   O17       1.0  0.9263999999999999  0.64372  0.80107  1.0000
  O   O18       1.0  0.9336000000000001  0.54366  0.73078  1.0000
  O   O19       1.0  0.06558  0.2857200000000001  0.79877  1.0000
  O   O20       1.0  0.10025000000000002  0.25743  0.9063400000000001  1.0000
  O   O21       1.0  0.67885  0.6642200000000003  0.69315  1.0000
  O   O22       1.0  0.76811  0.59746  0.60934  1.0000
  O   O23       1.0  0.16651  0.66424  0.69799  1.0000
  O   O24       1.0  0.06386  0.6137800000000002  0.60959  1.0000
  O   O25       1.0  0.9263999999999999  0.35628  0.19893000000000002  1.0000
  O   O26       1.0  0.9336000000000001  0.45634  0.26923  1.0000
  O   O27       1.0  0.06558  0.71428  0.20123000000000002  1.0000
  O   O28       1.0  0.10025000000000002  0.74257  0.09366  1.0000
  O   O29       1.0  0.67885  0.33578  0.30686  1.0000
  O   O30       1.0  0.76811  0.4025400000000001  0.39067  1.0000
  O   O31       1.0  0.16651  0.33576  0.30201  1.0000
  O   O32       1.0  0.06386  0.38622  0.39041  1.0000
