data_image0
_chemical_formula_structural       Cd4H32C48N8O16
_chemical_formula_sum              "Cd4 H32 C48 N8 O16"
_cell_length_a       4.44426
_cell_length_b       12.60303
_cell_length_c       26.159379999999995
_cell_angle_alpha    90.06114
_cell_angle_beta     89.93664
_cell_angle_gamma    90.00864

_symmetry_space_group_name_H-M    'P 1'
_symmetry_Int_Tables_number       1

loop_
  _symmetry_equiv_pos_as_xyz
  'x,y,z'

loop_
  _atom_site_type_symbol
  _atom_site_label
  _atom_site_symmetry_multiplicity
  _atom_site_fract_x
  _atom_site_fract_y
  _atom_site_fract_z
  _atom_site_occupancy
  Cd  Cd1       1.0  0.70492  0.86107  0.3731300000000001  1.0000
  Cd  Cd2       1.0  0.28897  0.3613  0.62687  1.0000
  Cd  Cd3       1.0  0.79791  0.8603599999999999  0.8740000000000002  1.0000
  Cd  Cd4       1.0  0.21218  0.36097  0.12646  1.0000
  H   H1        1.0  0.05023  0.97155  0.4726300000000001  1.0000
  H   H2        1.0  0.9392799999999999  0.11684  0.53711  1.0000
  H   H3        1.0  0.16868  0.20142  0.44864000000000004  1.0000
  H   H4        1.0  0.33108  0.06555  0.38345000000000007  1.0000
  H   H5        1.0  0.17091  0.66268  0.3676400000000001  1.0000
  H   H6        1.0  0.31708  0.51636  0.3069000000000001  1.0000
  H   H7        1.0  0.54293  0.59317  0.21748000000000006  1.0000
  H   H8        1.0  0.43585  0.7444599999999999  0.27855  1.0000
  H   H9        1.0  0.9453500000000001  0.47208  0.5277800000000001  1.0000
  H   H10       1.0  0.05968999999999999  0.61598  0.4629000000000001  1.0000
  H   H11       1.0  0.82792  0.70145  0.55173  1.0000
  H   H12       1.0  0.66341  0.56645  0.6171200000000001  1.0000
  H   H13       1.0  0.82619  0.16167  0.63242  1.0000
  H   H14       1.0  0.6792  0.01718  0.6943  1.0000
  H   H15       1.0  0.45481  0.09553  0.78284  1.0000
  H   H16       1.0  0.56197  0.24543  0.7209800000000002  1.0000
  H   H17       1.0  0.45106  0.97149  0.97282  1.0000
  H   H18       1.0  0.56078  0.11765999999999999  0.03689  1.0000
  H   H19       1.0  0.33239  0.20144  0.94823  1.0000
  H   H20       1.0  0.17226  0.06433  0.8835600000000002  1.0000
  H   H21       1.0  0.333  0.66295  0.86832  1.0000
  H   H22       1.0  0.18244  0.51828  0.8070400000000002  1.0000
  H   H23       1.0  0.9556199999999999  0.59467  0.7171300000000003  1.0000
  H   H24       1.0  0.0657  0.7453699999999999  0.7785600000000001  1.0000
  H   H25       1.0  0.55479  0.47179  0.02843  1.0000
  H   H26       1.0  0.44055  0.61583  0.9635900000000002  1.0000
  H   H27       1.0  0.67106  0.70087  0.05259000000000001  1.0000
  H   H28       1.0  0.83559  0.56568  0.1179  1.0000
  H   H29       1.0  0.67553  0.16241  0.13167  1.0000
  H   H30       1.0  0.82131  0.01733  0.19318  1.0000
  H   H31       1.0  0.04613  0.09576  0.28219  1.0000
  H   H32       1.0  0.93902  0.24568999999999996  0.22041000000000005  1.0000
  C   C1        1.0  0.87261  0.0293  0.46673  1.0000
  C   C2        1.0  0.79037  0.10148  0.50505  1.0000
  C   C3        1.0  0.53065  0.16112999999999997  0.5005500000000002  1.0000
  C   C4        1.0  0.35776  0.14927  0.45593  1.0000
  C   C5        1.0  0.45665999999999995  0.07804  0.41855  1.0000
  C   C6        1.0  0.44357  0.23938999999999996  0.5410200000000001  1.0000
  C   C7        1.0  0.037490000000000016  0.64529  0.3337600000000001  1.0000
  C   C8        1.0  0.1283  0.56803  0.29856  1.0000
  C   C9        1.0  0.9526500000000001  0.55215  0.25454  1.0000
  C   C10       1.0  0.6938  0.61177  0.24886  1.0000
  C   C11       1.0  0.6172  0.68847  0.2852700000000001  1.0000
  C   C12       1.0  0.04041  0.4724  0.21496000000000007  1.0000
  C   C13       1.0  0.12297  0.52981  0.5336800000000002  1.0000
  C   C14       1.0  0.20733  0.60099  0.49514000000000014  1.0000
  C   C15       1.0  0.46771999999999997  0.66024  0.49963000000000013  1.0000
  C   C16       1.0  0.63932  0.6490799999999999  0.5444200000000001  1.0000
  C   C17       1.0  0.53838  0.57872  0.5819800000000002  1.0000
  C   C18       1.0  0.55641  0.73759  0.4590000000000001  1.0000
  C   C19       1.0  0.95922  0.14514  0.6664  1.0000
  C   C20       1.0  0.86833  0.06905  0.70207  1.0000
  C   C21       1.0  0.04449  0.05421999999999999  0.7460600000000002  1.0000
  C   C22       1.0  0.30362  0.11382999999999999  0.7514700000000001  1.0000
  C   C23       1.0  0.38001  0.18949  0.71463  1.0000
  C   C24       1.0  0.9575  0.97433  0.7854600000000003  1.0000
  C   C25       1.0  0.62861  0.02924  0.9667900000000001  1.0000
  C   C26       1.0  0.70998  0.10196  0.00486  1.0000
  C   C27       1.0  0.9697600000000001  0.16158  0.00019000000000000004  1.0000
  C   C28       1.0  0.14329  0.14933  0.9556400000000003  1.0000
  C   C29       1.0  0.04571  0.07739  0.9185400000000001  1.0000
  C   C30       1.0  0.05647  0.23979999999999999  0.040600000000000004  1.0000
  C   C31       1.0  0.46492999999999995  0.64604  0.8341900000000002  1.0000
  C   C32       1.0  0.37179  0.5697  0.79877  1.0000
  C   C33       1.0  0.54702  0.55368  0.7546600000000002  1.0000
  C   C34       1.0  0.80612  0.61314  0.74876  1.0000
  C   C35       1.0  0.88463  0.68928  0.7853200000000002  1.0000
  C   C36       1.0  0.45854999999999996  0.47308999999999996  0.71552  1.0000
  C   C37       1.0  0.37734  0.52961  0.03436000000000001  1.0000
  C   C38       1.0  0.29305  0.60085  0.9959  1.0000
  C   C39       1.0  0.03254  0.66002  0.00053  1.0000
  C   C40       1.0  0.86024  0.6487  0.04529000000000001  1.0000
  C   C41       1.0  0.9609900000000001  0.57829  0.08277  1.0000
  C   C42       1.0  0.94378  0.73748  0.9600400000000002  1.0000
  C   C43       1.0  0.54181  0.14551  0.16557  1.0000
  C   C44       1.0  0.63236  0.06919  0.2011  1.0000
  C   C45       1.0  0.45581000000000005  0.05412  0.24509000000000006  1.0000
  C   C46       1.0  0.19692  0.11378999999999999  0.25067000000000006  1.0000
  C   C47       1.0  0.12047  0.18955999999999998  0.21394  1.0000
  C   C48       1.0  0.54285  0.97426  0.28448  1.0000
  N   N1        1.0  0.70222  0.0168  0.4239  1.0000
  N   N2        1.0  0.79458  0.7065899999999998  0.32674  1.0000
  N   N3        1.0  0.29209  0.51785  0.5766800000000001  1.0000
  N   N4        1.0  0.2027  0.20646  0.67304  1.0000
  N   N5        1.0  0.80024  0.01613  0.9241100000000001  1.0000
  N   N6        1.0  0.70897  0.7068  0.8271400000000002  1.0000
  N   N7        1.0  0.20765  0.51762  0.07735  1.0000
  N   N8        1.0  0.2981  0.20660999999999996  0.17233000000000007  1.0000
  O   O1        1.0  0.20119  0.29101  0.53534  1.0000
  O   O2        1.0  0.62193  0.24865  0.57929  1.0000
  O   O3        1.0  0.86202  0.46068  0.1766  1.0000
  O   O4        1.0  0.28591  0.42316999999999994  0.22072000000000006  1.0000
  O   O5        1.0  0.79902  0.7890499999999999  0.46464000000000005  1.0000
  O   O6        1.0  0.37832  0.74636  0.4206600000000001  1.0000
  O   O7        1.0  0.13709  0.9627599999999997  0.8236700000000002  1.0000
  O   O8        1.0  0.71302  0.92482  0.7794900000000002  1.0000
  O   O9        1.0  0.29949  0.29124  0.0352  1.0000
  O   O10       1.0  0.87704  0.24896  0.07876  1.0000
  O   O11       1.0  0.63702  0.46076  0.67714  1.0000
  O   O12       1.0  0.21378  0.42367  0.7218000000000002  1.0000
  O   O13       1.0  0.70114  0.78884  0.9658100000000002  1.0000
  O   O14       1.0  0.12225  0.74644  0.9216900000000002  1.0000
  O   O15       1.0  0.36355  0.96294  0.3228200000000001  1.0000
  O   O16       1.0  0.78705  0.9246  0.27838  1.0000
