data_image0
_chemical_formula_structural       Zn10P8H18C16O48
_chemical_formula_sum              "Zn10 P8 H18 C16 O48"
_cell_length_a       10.10583
_cell_length_b       10.97895
_cell_length_c       12.81714
_cell_angle_alpha    93.45809
_cell_angle_beta     96.3091
_cell_angle_gamma    102.27501999999998

_space_group_name_H-M_alt    "P 1"
_space_group_IT_number       1

loop_
  _space_group_symop_operation_xyz
  'x, y, z'

loop_
  _atom_site_type_symbol
  _atom_site_label
  _atom_site_symmetry_multiplicity
  _atom_site_fract_x
  _atom_site_fract_y
  _atom_site_fract_z
  _atom_site_occupancy
  Zn  Zn1       1.0  0.60917  0.79528  0.67576  1.0000
  Zn  Zn2       1.0  0.9567200000000001  0.71811  0.98608  1.0000
  Zn  Zn3       1.0  0.38839  0.69362  0.32052000000000014  1.0000
  Zn  Zn4       1.0  0.91631  0.56589  0.41615  1.0000
  Zn  Zn5       1.0  0.08871  0.93535  0.57961  1.0000
  Zn  Zn6       1.0  0.39083  0.20471999999999999  0.32424  1.0000
  Zn  Zn7       1.0  0.04327999999999999  0.28189  0.01393  1.0000
  Zn  Zn8       1.0  0.61161  0.30638000000000004  0.6794800000000001  1.0000
  Zn  Zn9       1.0  0.08370000000000002  0.43411000000000005  0.58386  1.0000
  Zn  Zn10      1.0  0.9112899999999999  0.06465  0.42039  1.0000
  P   P1        1.0  0.84039  0.93475  0.87868  1.0000
  P   P2        1.0  0.15733  0.56294  0.11542000000000002  1.0000
  P   P3        1.0  0.77534  0.78883  0.4761600000000001  1.0000
  P   P4        1.0  0.2255  0.70914  0.52094  1.0000
  P   P5        1.0  0.15961000000000003  0.06525  0.12132000000000003  1.0000
  P   P6        1.0  0.84267  0.43706  0.8845800000000001  1.0000
  P   P7        1.0  0.22467  0.21118  0.52384  1.0000
  P   P8        1.0  0.77451  0.29086  0.47906  1.0000
  H   H1        1.0  0.76407  0.10712999999999999  0.87808  1.0000
  H   H2        1.0  0.0030200000000000084  0.1109  0.72984  1.0000
  H   H3        1.0  0.99675  0.38589  0.2584  1.0000
  H   H4        1.0  0.62386  0.58502  0.31720000000000004  1.0000
  H   H5        1.0  0.37806  0.91371  0.6814300000000001  1.0000
  H   H6        1.0  0.07749000000000002  0.013609999999999997  0.86545  1.0000
  H   H7        1.0  0.92081  0.48019  0.12607  1.0000
  H   H8        1.0  0.76067  0.76534  0.28494  1.0000
  H   H9        1.0  0.23477  0.73458  0.7107400000000001  1.0000
  H   H10       1.0  0.23593000000000006  0.8928700000000002  0.12193000000000001  1.0000
  H   H11       1.0  0.99698  0.8891000000000001  0.27016  1.0000
  H   H12       1.0  0.0032500000000000194  0.61411  0.74161  1.0000
  H   H13       1.0  0.37614  0.41498  0.6828  1.0000
  H   H14       1.0  0.62194  0.08628999999999999  0.31857  1.0000
  H   H15       1.0  0.9225100000000002  0.98639  0.13455  1.0000
  H   H16       1.0  0.07919000000000002  0.51981  0.8739300000000001  1.0000
  H   H17       1.0  0.23932999999999993  0.23466  0.71507  1.0000
  H   H18       1.0  0.76524  0.26542  0.28926  1.0000
  C   C1        1.0  0.9934600000000001  0.95865  0.80798  1.0000
  C   C2        1.0  0.026949999999999998  0.83362  0.77781  1.0000
  C   C3        1.0  0.9987799999999999  0.5382  0.18701  1.0000
  C   C4        1.0  0.9653  0.66267  0.21524  1.0000
  C   C5        1.0  0.68514  0.7717599999999999  0.33937  1.0000
  C   C6        1.0  0.6233399999999999  0.8826799999999999  0.31648  1.0000
  C   C7        1.0  0.31302  0.72655  0.65911  1.0000
  C   C8        1.0  0.3711  0.61389  0.6831000000000002  1.0000
  C   C9        1.0  0.006540000000000003  0.04135  0.19202  1.0000
  C   C10       1.0  0.9730599999999999  0.16638  0.22219000000000003  1.0000
  C   C11       1.0  0.0012200000000000025  0.4618  0.81299  1.0000
  C   C12       1.0  0.03470999999999999  0.33733  0.78477  1.0000
  C   C13       1.0  0.31487  0.22824  0.66063  1.0000
  C   C14       1.0  0.37667  0.11732  0.68353  1.0000
  C   C15       1.0  0.68699  0.27346  0.3409  1.0000
  C   C16       1.0  0.6289  0.38611000000000006  0.31691  1.0000
  O   O1        1.0  0.71259  0.87904  0.80366  1.0000
  O   O2        1.0  0.83234  0.07422  0.92091  1.0000
  O   O3        1.0  0.8702  0.86742  0.97535  1.0000
  O   O4        1.0  0.97375  0.019729999999999998  0.71417  1.0000
  O   O5        1.0  0.039580000000000046  0.75579  0.8456900000000003  1.0000
  O   O6        1.0  0.04088999999999998  0.80644  0.68241  1.0000
  O   O7        1.0  0.11453  0.6298  0.01967  1.0000
  O   O8        1.0  0.27227  0.64943  0.19024  1.0000
  O   O9        1.0  0.18047  0.43212  0.08964  1.0000
  O   O10       1.0  0.017210000000000013  0.47723  0.2792  1.0000
  O   O11       1.0  0.96608  0.69726  0.31208  1.0000
  O   O12       1.0  0.9387499999999999  0.73297  0.14424  1.0000
  O   O13       1.0  0.8128299999999997  0.66499  0.49833  1.0000
  O   O14       1.0  0.90339  0.8970100000000001  0.47637000000000007  1.0000
  O   O15       1.0  0.67275  0.8251000000000001  0.54467  1.0000
  O   O16       1.0  0.57989  0.66073  0.3273  1.0000
  O   O17       1.0  0.7057400000000001  0.9880200000000001  0.31273  1.0000
  O   O18       1.0  0.49438  0.86783  0.30212  1.0000
  O   O19       1.0  0.09533999999999998  0.60353  0.52288  1.0000
  O   O20       1.0  0.19324999999999992  0.8348499999999998  0.49728  1.0000
  O   O21       1.0  0.32702  0.6668799999999999  0.4542  1.0000
  O   O22       1.0  0.41974  0.83584  0.67259  1.0000
  O   O23       1.0  0.28689  0.50986  0.68775  1.0000
  O   O24       1.0  0.49972  0.62496  0.6969200000000001  1.0000
  O   O25       1.0  0.28742000000000006  0.12096  0.19634  1.0000
  O   O26       1.0  0.16766000000000003  0.9257800000000002  0.07909  1.0000
  O   O27       1.0  0.1298  0.13258  0.02465  1.0000
  O   O28       1.0  0.026249999999999992  0.9802699999999999  0.28583  1.0000
  O   O29       1.0  0.96043  0.24420999999999998  0.15431  1.0000
  O   O30       1.0  0.9591100000000001  0.19356  0.31759  1.0000
  O   O31       1.0  0.88547  0.3702000000000001  0.98033  1.0000
  O   O32       1.0  0.72773  0.35057  0.80976  1.0000
  O   O33       1.0  0.81953  0.56788  0.9103700000000002  1.0000
  O   O34       1.0  0.9828000000000001  0.52277  0.7208000000000001  1.0000
  O   O35       1.0  0.03392  0.30274  0.68792  1.0000
  O   O36       1.0  0.06124999999999999  0.26703  0.85577  1.0000
  O   O37       1.0  0.18718  0.33501  0.50167  1.0000
  O   O38       1.0  0.09661  0.10299  0.52364  1.0000
  O   O39       1.0  0.32725  0.1749  0.45533  1.0000
  O   O40       1.0  0.42011999999999994  0.33927000000000007  0.6727  1.0000
  O   O41       1.0  0.29426  0.011980000000000013  0.6872700000000002  1.0000
  O   O42       1.0  0.50562  0.13217  0.6978900000000001  1.0000
  O   O43       1.0  0.9046599999999999  0.39647  0.47712000000000004  1.0000
  O   O44       1.0  0.80675  0.16515  0.50272  1.0000
  O   O45       1.0  0.67298  0.33312  0.5458  1.0000
  O   O46       1.0  0.58026  0.16416  0.32741  1.0000
  O   O47       1.0  0.71311  0.49014  0.31225  1.0000
  O   O48       1.0  0.5002800000000002  0.37504  0.30308  1.0000
