data_image0
_chemical_formula_structural       La2H40C50N10Cl6
_chemical_formula_sum              "La2 H40 C50 N10 Cl6"
_cell_length_a       13.2631
_cell_length_b       13.31241
_cell_length_c       13.68687
_cell_angle_alpha    78.6434
_cell_angle_beta     66.12079
_cell_angle_gamma    64.98237000000002

_symmetry_space_group_name_H-M    'P 1'
_symmetry_Int_Tables_number       1

loop_
  _symmetry_equiv_pos_as_xyz
  'x,y,z'

loop_
  _atom_site_type_symbol
  _atom_site_label
  _atom_site_symmetry_multiplicity
  _atom_site_fract_x
  _atom_site_fract_y
  _atom_site_fract_z
  _atom_site_occupancy
  La  La1       1.0  0.48085  0.08206  0.33734  1.0000
  La  La2       1.0  0.51916  0.9179300000000001  0.66266  1.0000
  H   H1        1.0  0.14532  0.47871000000000014  0.57059  1.0000
  H   H2        1.0  0.33904000000000006  0.32705  0.48709  1.0000
  H   H3        1.0  0.64677  0.1829  0.09993999999999997  1.0000
  H   H4        1.0  0.8445399999999998  0.17293000000000003  0.9807199999999998  1.0000
  H   H5        1.0  0.59529  0.6536499999999998  0.9657899999999998  1.0000
  H   H6        1.0  0.5780699999999999  0.9458600000000001  0.09857999999999997  1.0000
  H   H7        1.0  0.9870499999999999  0.84371  0.11648999999999998  1.0000
  H   H8        1.0  0.2844400000000001  0.97302  0.55766  1.0000
  H   H9        1.0  0.50706  0.63708  0.3384  1.0000
  H   H10       1.0  0.7804099999999999  0.87182  0.23661  1.0000
  H   H11       1.0  0.47665999999999986  0.8098500000000001  0.40539  1.0000
  H   H12       1.0  0.60246  0.47955  0.26784  1.0000
  H   H13       1.0  0.62083  0.77554  0.017439999999999997  1.0000
  H   H14       1.0  0.09462999999999999  0.94859  0.62771  1.0000
  H   H15       1.0  0.6553799999999999  0.30911  0.18467999999999998  1.0000
  H   H16       1.0  0.01620000000000004  0.4061  0.3595699999999999  1.0000
  H   H17       1.0  0.6510699999999999  0.4737700000000001  0.89476  1.0000
  H   H18       1.0  0.21598999999999996  0.26034  0.28433  1.0000
  H   H19       1.0  0.26335  0.07125000000000001  0.25761  1.0000
  H   H20       1.0  0.06888  0.05332000000000001  0.31546  1.0000
  H   H21       1.0  0.85468  0.52128  0.4294  1.0000
  H   H22       1.0  0.66096  0.67294  0.5129  1.0000
  H   H23       1.0  0.35324000000000005  0.81709  0.90005  1.0000
  H   H24       1.0  0.15547000000000002  0.8270600000000001  0.01928  1.0000
  H   H25       1.0  0.4047100000000001  0.34634000000000004  0.0342  1.0000
  H   H26       1.0  0.42194000000000004  0.05414  0.9014199999999999  1.0000
  H   H27       1.0  0.012960000000000043  0.15628  0.8835  1.0000
  H   H28       1.0  0.71557  0.026980000000000004  0.44234  1.0000
  H   H29       1.0  0.4929400000000001  0.36291  0.6616  1.0000
  H   H30       1.0  0.21960000000000005  0.12817  0.76339  1.0000
  H   H31       1.0  0.52335  0.19014  0.5946099999999999  1.0000
  H   H32       1.0  0.39755  0.52044  0.73216  1.0000
  H   H33       1.0  0.37918  0.22446000000000002  0.9825599999999998  1.0000
  H   H34       1.0  0.90538  0.05140000000000001  0.37229  1.0000
  H   H35       1.0  0.3446199999999999  0.6908900000000001  0.81532  1.0000
  H   H36       1.0  0.9838099999999999  0.5939  0.6404299999999999  1.0000
  H   H37       1.0  0.34892999999999996  0.52622  0.10522999999999998  1.0000
  H   H38       1.0  0.78401  0.73965  0.71567  1.0000
  H   H39       1.0  0.73666  0.92874  0.7423899999999998  1.0000
  H   H40       1.0  0.9311199999999998  0.94667  0.68454  1.0000
  C   C1        1.0  0.15500000000000005  0.43228000000000005  0.5082399999999999  1.0000
  C   C2        1.0  0.5703000000000003  0.68794  0.17010999999999998  1.0000
  C   C3        1.0  0.9383300000000002  0.005900000000000001  0.035949999999999996  1.0000
  C   C4        1.0  0.05949000000000002  0.45617  0.47522  1.0000
  C   C5        1.0  0.26436000000000004  0.34712  0.46206  1.0000
  C   C6        1.0  0.72423  0.10932000000000001  0.10334999999999997  1.0000
  C   C7        1.0  0.5968099999999998  0.58376  0.1241  1.0000
  C   C8        1.0  0.8380299999999999  0.10180000000000003  0.034019999999999995  1.0000
  C   C9        1.0  0.6101700000000001  0.57939  0.01742  1.0000
  C   C10       1.0  0.56635  0.8743300000000003  0.14886999999999997  1.0000
  C   C11       1.0  0.9153  0.92128  0.10999999999999997  1.0000
  C   C12       1.0  0.23342999999999997  0.99225  0.50648  1.0000
  C   C13       1.0  0.52723  0.7015500000000001  0.28102999999999995  1.0000
  C   C14       1.0  0.7988899999999999  0.9358600000000002  0.17752  1.0000
  C   C15       1.0  0.059180000000000024  0.003890000000000005  0.47972999999999993  1.0000
  C   C16       1.0  0.50802  0.79984  0.31958  1.0000
  C   C17       1.0  0.61248  0.48365  0.18443999999999994  1.0000
  C   C18       1.0  0.5895399999999998  0.77816  0.10395999999999998  1.0000
  C   C19       1.0  0.12541999999999992  0.9785800000000002  0.5455  1.0000
  C   C20       1.0  0.6437599999999999  0.38613  0.13673  1.0000
  C   C21       1.0  0.08348  0.39252000000000004  0.39204  1.0000
  C   C22       1.0  0.64131  0.4776600000000001  0.97709  1.0000
  C   C23       1.0  0.19540000000000007  0.30921  0.3497999999999999  1.0000
  C   C24       1.0  0.22082000000000007  0.046700000000000005  0.3398599999999999  1.0000
  C   C25       1.0  0.11178  0.0361  0.37313  1.0000
  C   C26       1.0  0.8450000000000001  0.56772  0.4917499999999999  1.0000
  C   C27       1.0  0.4297099999999999  0.3120500000000001  0.82988  1.0000
  C   C28       1.0  0.06168000000000021  0.9940900000000001  0.96404  1.0000
  C   C29       1.0  0.9405200000000002  0.54383  0.5247799999999999  1.0000
  C   C30       1.0  0.7356500000000002  0.65287  0.53794  1.0000
  C   C31       1.0  0.2757700000000002  0.89068  0.8966399999999998  1.0000
  C   C32       1.0  0.4032000000000002  0.41623  0.87589  1.0000
  C   C33       1.0  0.16198  0.89819  0.96598  1.0000
  C   C34       1.0  0.3898400000000001  0.4206  0.9825799999999999  1.0000
  C   C35       1.0  0.4336600000000001  0.12566  0.8511299999999999  1.0000
  C   C36       1.0  0.08470999999999997  0.07871999999999998  0.89  1.0000
  C   C37       1.0  0.7665799999999999  0.007739999999999999  0.49352  1.0000
  C   C38       1.0  0.47278  0.29844  0.71897  1.0000
  C   C39       1.0  0.20111999999999994  0.06413000000000003  0.82248  1.0000
  C   C40       1.0  0.94083  0.9961100000000003  0.52026  1.0000
  C   C41       1.0  0.49199000000000004  0.20016000000000003  0.6804199999999998  1.0000
  C   C42       1.0  0.38753  0.51634  0.81556  1.0000
  C   C43       1.0  0.41047000000000006  0.22183  0.8960399999999997  1.0000
  C   C44       1.0  0.87459  0.02141  0.45449  1.0000
  C   C45       1.0  0.35624  0.61387  0.86327  1.0000
  C   C46       1.0  0.91653  0.60747  0.60795  1.0000
  C   C47       1.0  0.35869999999999996  0.52234  0.02291  1.0000
  C   C48       1.0  0.8046  0.69078  0.65019  1.0000
  C   C49       1.0  0.7791799999999994  0.95329  0.66014  1.0000
  C   C50       1.0  0.8882300000000001  0.9639000000000001  0.62687  1.0000
  N   N1        1.0  0.7033000000000001  0.02871  0.17588  1.0000
  N   N2        1.0  0.52696  0.8862800000000001  0.2552  1.0000
  N   N3        1.0  0.28509000000000007  0.28392  0.38481  1.0000
  N   N4        1.0  0.28043000000000007  0.02869  0.4057199999999999  1.0000
  N   N5        1.0  0.66006  0.38085  0.03383  1.0000
  N   N6        1.0  0.2967099999999999  0.9712800000000001  0.82412  1.0000
  N   N7        1.0  0.4730500000000001  0.11372  0.7448  1.0000
  N   N8        1.0  0.7149200000000001  0.7160700000000002  0.61519  1.0000
  N   N9        1.0  0.7195699999999998  0.9713100000000001  0.59428  1.0000
  N   N10       1.0  0.33995000000000003  0.61914  0.9661699999999999  1.0000
  Cl  Cl1       1.0  0.6293  0.89585  0.42956  1.0000
  Cl  Cl2       1.0  0.43122000000000005  0.15667  0.15159  1.0000
  Cl  Cl3       1.0  0.57981  0.21284000000000006  0.36918999999999996  1.0000
  Cl  Cl4       1.0  0.37071000000000004  0.10414  0.57044  1.0000
  Cl  Cl5       1.0  0.5687899999999999  0.8433200000000001  0.84841  1.0000
  Cl  Cl6       1.0  0.4201900000000002  0.78715  0.6308  1.0000
