data_image0
_chemical_formula_structural       Ag4H48C56N16O4
_chemical_formula_sum              "Ag4 H48 C56 N16 O4"
_cell_length_a       7.51078
_cell_length_b       11.25769
_cell_length_c       18.5032
_cell_angle_alpha    90.0
_cell_angle_beta     90.0
_cell_angle_gamma    90.01643999999999

_symmetry_space_group_name_H-M    'P 1'
_symmetry_Int_Tables_number       1

loop_
  _symmetry_equiv_pos_as_xyz
  'x,y,z'

loop_
  _atom_site_type_symbol
  _atom_site_label
  _atom_site_symmetry_multiplicity
  _atom_site_fract_x
  _atom_site_fract_y
  _atom_site_fract_z
  _atom_site_occupancy
  Ag  Ag1       1.0  0.5  0.5  0.0947  1.0000
  Ag  Ag2       1.0  0.5  0.5  0.9053000000000001  1.0000
  Ag  Ag3       1.0  0.0  0.0  0.40487  1.0000
  Ag  Ag4       1.0  0.0  0.0  0.59513  1.0000
  H   H1        1.0  0.44557000000000013  0.77429  0.30944  1.0000
  H   H2        1.0  0.49347000000000013  0.68338  0.19057  1.0000
  H   H3        1.0  0.22459000000000007  0.98116  0.08962  1.0000
  H   H4        1.0  0.18239  0.07237  0.20923  1.0000
  H   H5        1.0  0.3055700000000001  0.07419  0.33335  1.0000
  H   H6        1.0  0.35909  0.9484300000000001  0.37502  1.0000
  H   H7        1.0  0.5544300000000002  0.22570999999999997  0.30944  1.0000
  H   H8        1.0  0.5065400000000002  0.31662  0.19057  1.0000
  H   H9        1.0  0.7754100000000003  0.01884  0.08962  1.0000
  H   H10       1.0  0.8176200000000002  0.92763  0.20923  1.0000
  H   H11       1.0  0.6944300000000002  0.9258100000000001  0.33335  1.0000
  H   H12       1.0  0.64091  0.05157  0.37502  1.0000
  H   H13       1.0  0.5544300000000002  0.22570999999999997  0.69056  1.0000
  H   H14       1.0  0.5065400000000002  0.31662  0.80943  1.0000
  H   H15       1.0  0.7754100000000003  0.01884  0.91037  1.0000
  H   H16       1.0  0.8176200000000002  0.92763  0.79077  1.0000
  H   H17       1.0  0.6944300000000002  0.9258100000000001  0.6666500000000001  1.0000
  H   H18       1.0  0.64091  0.05157  0.62498  1.0000
  H   H19       1.0  0.44557000000000013  0.77429  0.69056  1.0000
  H   H20       1.0  0.49347000000000013  0.68338  0.80943  1.0000
  H   H21       1.0  0.22459000000000007  0.98116  0.91037  1.0000
  H   H22       1.0  0.18239  0.07237  0.79077  1.0000
  H   H23       1.0  0.3055700000000001  0.07419  0.6666500000000001  1.0000
  H   H24       1.0  0.35909  0.9484300000000001  0.62498  1.0000
  H   H25       1.0  0.05483  0.27433  0.19048  1.0000
  H   H26       1.0  0.006770000000000002  0.18341000000000002  0.30935  1.0000
  H   H27       1.0  0.27655000000000013  0.48088999999999993  0.41028  1.0000
  H   H28       1.0  0.31907  0.57221  0.29067  1.0000
  H   H29       1.0  0.19365000000000004  0.57429  0.16652  1.0000
  H   H30       1.0  0.14068  0.44832000000000005  0.12494  1.0000
  H   H31       1.0  0.9451700000000002  0.72568  0.19048  1.0000
  H   H32       1.0  0.9932300000000002  0.8165900000000001  0.30935  1.0000
  H   H33       1.0  0.7234500000000001  0.51912  0.41028  1.0000
  H   H34       1.0  0.6809300000000003  0.42779  0.29067  1.0000
  H   H35       1.0  0.8063500000000001  0.42571  0.16652  1.0000
  H   H36       1.0  0.8593200000000002  0.55169  0.12494  1.0000
  H   H37       1.0  0.9451700000000002  0.72568  0.80952  1.0000
  H   H38       1.0  0.9932300000000002  0.8165900000000001  0.69065  1.0000
  H   H39       1.0  0.7234500000000001  0.51912  0.58972  1.0000
  H   H40       1.0  0.6809300000000003  0.42779  0.70933  1.0000
  H   H41       1.0  0.8063500000000001  0.42571  0.83348  1.0000
  H   H42       1.0  0.8593200000000002  0.55169  0.87506  1.0000
  H   H43       1.0  0.05483  0.27433  0.80952  1.0000
  H   H44       1.0  0.006770000000000002  0.18341000000000002  0.69065  1.0000
  H   H45       1.0  0.27655000000000013  0.48088999999999993  0.58972  1.0000
  H   H46       1.0  0.31907  0.57221  0.70933  1.0000
  H   H47       1.0  0.19365000000000004  0.57429  0.83348  1.0000
  H   H48       1.0  0.14068  0.44832000000000005  0.87506  1.0000
  C   C1        1.0  0.3105300000000001  0.93015  0.26755  1.0000
  C   C2        1.0  0.3954000000000001  0.81921  0.26127  1.0000
  C   C3        1.0  0.42007  0.76671  0.19407  1.0000
  C   C4        1.0  0.35699000000000003  0.8229  0.13006  1.0000
  C   C5        1.0  0.2704  0.9349099999999999  0.13766  1.0000
  C   C6        1.0  0.24794000000000002  0.98659  0.20476  1.0000
  C   C7        1.0  0.3826400000000001  0.77543  0.059730000000000005  1.0000
  C   C8        1.0  0.6894700000000002  0.06985  0.26755  1.0000
  C   C9        1.0  0.6046100000000002  0.18078999999999998  0.26127  1.0000
  C   C10       1.0  0.57993  0.23329  0.19407  1.0000
  C   C11       1.0  0.6430100000000002  0.1771  0.13006  1.0000
  C   C12       1.0  0.7296  0.0651  0.13766  1.0000
  C   C13       1.0  0.7520600000000002  0.01342  0.20476  1.0000
  C   C14       1.0  0.6173600000000002  0.22456999999999996  0.059730000000000005  1.0000
  C   C15       1.0  0.6894700000000002  0.06985  0.73244  1.0000
  C   C16       1.0  0.6046100000000002  0.18078999999999998  0.73873  1.0000
  C   C17       1.0  0.57993  0.23329  0.8059300000000001  1.0000
  C   C18       1.0  0.6430100000000002  0.1771  0.8699400000000002  1.0000
  C   C19       1.0  0.7296  0.0651  0.86234  1.0000
  C   C20       1.0  0.7520600000000002  0.01342  0.79524  1.0000
  C   C21       1.0  0.6173600000000002  0.22456999999999996  0.94026  1.0000
  C   C22       1.0  0.3105300000000001  0.93015  0.73244  1.0000
  C   C23       1.0  0.3954000000000001  0.81921  0.73873  1.0000
  C   C24       1.0  0.42007  0.76671  0.8059300000000001  1.0000
  C   C25       1.0  0.35699000000000003  0.8229  0.8699400000000002  1.0000
  C   C26       1.0  0.2704  0.9349099999999999  0.86234  1.0000
  C   C27       1.0  0.24794000000000002  0.98659  0.79524  1.0000
  C   C28       1.0  0.3826400000000001  0.77543  0.94026  1.0000
  C   C29       1.0  0.18957000000000004  0.43032  0.23238000000000003  1.0000
  C   C30       1.0  0.10469000000000003  0.31936  0.23868999999999999  1.0000
  C   C31       1.0  0.07968000000000003  0.26695  0.30592  1.0000
  C   C32       1.0  0.14292  0.32325  0.36987000000000003  1.0000
  C   C33       1.0  0.2298  0.43509000000000003  0.36225  1.0000
  C   C34       1.0  0.25264  0.4867  0.29515  1.0000
  C   C35       1.0  0.11798000000000003  0.27596  0.44028000000000006  1.0000
  C   C36       1.0  0.81043  0.56968  0.23238000000000003  1.0000
  C   C37       1.0  0.8953100000000003  0.68064  0.23868999999999999  1.0000
  C   C38       1.0  0.92033  0.73305  0.30592  1.0000
  C   C39       1.0  0.85708  0.67675  0.36987000000000003  1.0000
  C   C40       1.0  0.7702000000000002  0.56491  0.36225  1.0000
  C   C41       1.0  0.7473600000000002  0.5133  0.29515  1.0000
  C   C42       1.0  0.8820200000000002  0.72404  0.44028000000000006  1.0000
  C   C43       1.0  0.81043  0.56968  0.76762  1.0000
  C   C44       1.0  0.8953100000000003  0.68064  0.76131  1.0000
  C   C45       1.0  0.92033  0.73305  0.69408  1.0000
  C   C46       1.0  0.85708  0.67675  0.63013  1.0000
  C   C47       1.0  0.7702000000000002  0.56491  0.63775  1.0000
  C   C48       1.0  0.7473600000000002  0.5133  0.70485  1.0000
  C   C49       1.0  0.8820200000000002  0.72404  0.55972  1.0000
  C   C50       1.0  0.18957000000000004  0.43032  0.76762  1.0000
  C   C51       1.0  0.10469000000000003  0.31936  0.76131  1.0000
  C   C52       1.0  0.07968000000000003  0.26695  0.69408  1.0000
  C   C53       1.0  0.14292  0.32325  0.63013  1.0000
  C   C54       1.0  0.2298  0.43509000000000003  0.63775  1.0000
  C   C55       1.0  0.25264  0.4867  0.70485  1.0000
  C   C56       1.0  0.11798000000000003  0.27596  0.55972  1.0000
  N   N1        1.0  0.2806400000000001  0.98494  0.33596  1.0000
  N   N2        1.0  0.4552400000000001  0.67363  0.03722  1.0000
  N   N3        1.0  0.7193600000000002  0.01506  0.33596  1.0000
  N   N4        1.0  0.5447600000000002  0.32637  0.03722  1.0000
  N   N5        1.0  0.7193600000000002  0.01506  0.6640400000000001  1.0000
  N   N6        1.0  0.5447600000000002  0.32637  0.96278  1.0000
  N   N7        1.0  0.2806400000000001  0.98494  0.6640400000000001  1.0000
  N   N8        1.0  0.4552400000000001  0.67363  0.96278  1.0000
  N   N9        1.0  0.21904000000000007  0.48511  0.16395  1.0000
  N   N10       1.0  0.04618  0.17386  0.46279  1.0000
  N   N11       1.0  0.7809700000000003  0.5149  0.16395  1.0000
  N   N12       1.0  0.9538200000000002  0.8261400000000001  0.46279  1.0000
  N   N13       1.0  0.7809700000000003  0.5149  0.83605  1.0000
  N   N14       1.0  0.9538200000000002  0.8261400000000001  0.53721  1.0000
  N   N15       1.0  0.21904000000000007  0.48511  0.83605  1.0000
  N   N16       1.0  0.04618  0.17386  0.53721  1.0000
  O   O1        1.0  0.3303  0.8431599999999999  0.0  1.0000
  O   O2        1.0  0.6697000000000002  0.15684  0.0  1.0000
  O   O3        1.0  0.16814000000000007  0.34478  0.5  1.0000
  O   O4        1.0  0.8318700000000001  0.65523  0.5  1.0000
