data_image0
_chemical_formula_structural       Ni4H44C64N12O8
_chemical_formula_sum              "Ni4 H44 C64 N12 O8"
_cell_length_a       15.2022
_cell_length_b       15.124799999999999
_cell_length_c       24.905209999999997
_cell_angle_alpha    89.99527
_cell_angle_beta     89.9977
_cell_angle_gamma    111.36664

_space_group_name_H-M_alt    "P 1"
_space_group_IT_number       1

loop_
  _space_group_symop_operation_xyz
  'x, y, z'

loop_
  _atom_site_type_symbol
  _atom_site_label
  _atom_site_symmetry_multiplicity
  _atom_site_fract_x
  _atom_site_fract_y
  _atom_site_fract_z
  _atom_site_occupancy
  Ni  Ni1       1.0  0.60499  0.89132  0.47256  1.0000
  Ni  Ni2       1.0  0.39485  0.10859  0.97246  1.0000
  Ni  Ni3       1.0  0.3949799999999999  0.10868  0.52744  1.0000
  Ni  Ni4       1.0  0.60497  0.89137  0.02751  1.0000
  H   H1        1.0  0.74086  0.80098  0.52054  1.0000
  H   H2        1.0  0.9116699999999999  0.8428999999999999  0.53075  1.0000
  H   H3        1.0  0.9474  0.11693  0.46131  1.0000
  H   H4        1.0  0.77416  0.0602  0.45205  1.0000
  H   H5        1.0  0.7470999999999998  0.95723  0.289  1.0000
  H   H6        1.0  0.44231000000000004  0.81998  0.29018  1.0000
  H   H7        1.0  0.45008  0.82853  0.3901  1.0000
  H   H8        1.0  0.48131999999999997  0.7481499999999998  0.54684  1.0000
  H   H9        1.0  0.43156  0.57587  0.56268  1.0000
  H   H10       1.0  0.61071  0.56594  0.42891  1.0000
  H   H11       1.0  0.65159  0.73849  0.4191  1.0000
  H   H12       1.0  0.25947  0.19849  0.02064  1.0000
  H   H13       1.0  0.08874  0.15712  0.03074  1.0000
  H   H14       1.0  0.0522999999999999  0.8831399999999998  0.96107  1.0000
  H   H15       1.0  0.22549000000000002  0.93932  0.9519500000000001  1.0000
  H   H16       1.0  0.25273999999999996  0.042939999999999985  0.78898  1.0000
  H   H17       1.0  0.55751  0.17991999999999997  0.79026  1.0000
  H   H18       1.0  0.5496  0.17101999999999998  0.89018  1.0000
  H   H19       1.0  0.51841  0.25143  0.04679  1.0000
  H   H20       1.0  0.56837  0.42374  0.06264  1.0000
  H   H21       1.0  0.3894899999999999  0.43395999999999996  0.92887  1.0000
  H   H22       1.0  0.34828  0.26136  0.91909  1.0000
  H   H23       1.0  0.25937  0.19883  0.47939  1.0000
  H   H24       1.0  0.08855  0.15725  0.46935  1.0000
  H   H25       1.0  0.05266000000000001  0.88319  0.53885  1.0000
  H   H26       1.0  0.22589999999999996  0.93973  0.54787  1.0000
  H   H27       1.0  0.25275  0.04291  0.71101  1.0000
  H   H28       1.0  0.55751  0.17987  0.70979  1.0000
  H   H29       1.0  0.5496699999999998  0.17134  0.60987  1.0000
  H   H30       1.0  0.51844  0.25182  0.4530100000000001  1.0000
  H   H31       1.0  0.56823  0.42412  0.43725  1.0000
  H   H32       1.0  0.38939  0.43392  0.57116  1.0000
  H   H33       1.0  0.3484999999999999  0.26136  0.58087  1.0000
  H   H34       1.0  0.74058  0.80138  0.9796200000000003  1.0000
  H   H35       1.0  0.91133  0.8428799999999997  0.96946  1.0000
  H   H36       1.0  0.9475  0.11715  0.03863  1.0000
  H   H37       1.0  0.7742999999999997  0.060619999999999986  0.04813  1.0000
  H   H38       1.0  0.74738  0.9568299999999998  0.21114  1.0000
  H   H39       1.0  0.44249  0.82041  0.20967  1.0000
  H   H40       1.0  0.45057999999999987  0.8291399999999998  0.10976  1.0000
  H   H41       1.0  0.4813  0.7479  0.95322  1.0000
  H   H42       1.0  0.4316299999999999  0.57565  0.9373800000000002  1.0000
  H   H43       1.0  0.61086  0.5657  0.0711  1.0000
  H   H44       1.0  0.65162  0.7383  0.08089  1.0000
  C   C1        1.0  0.78918  0.8702399999999999  0.50753  1.0000
  C   C2        1.0  0.8860899999999999  0.89498  0.51338  1.0000
  C   C3        1.0  0.94843  0.9853  0.49707  1.0000
  C   C4        1.0  0.90558  0.04561  0.47496  1.0000
  C   C5        1.0  0.80817  0.01495  0.46938  1.0000
  C   C6        1.0  0.67825  0.92761  0.36559  1.0000
  C   C7        1.0  0.6795  0.9269  0.30954  1.0000
  C   C8        1.0  0.59521  0.88809  0.27982  1.0000
  C   C9        1.0  0.51062  0.85109  0.30979  1.0000
  C   C10       1.0  0.51345  0.85477  0.36539  1.0000
  C   C11       1.0  0.45481  0.95446  0.50153  1.0000
  C   C12       1.0  0.50831  0.7044  0.5221  1.0000
  C   C13       1.0  0.48027  0.60729  0.52999  1.0000
  C   C14       1.0  0.51479  0.5517  0.49666000000000005  1.0000
  C   C15       1.0  0.5789  0.6017  0.45626  1.0000
  C   C16       1.0  0.60354  0.69895  0.45058  1.0000
  C   C17       1.0  0.21094999999999997  0.12942  0.00754  1.0000
  C   C18       1.0  0.11408999999999998  0.10494999999999999  0.01331  1.0000
  C   C19       1.0  0.05161999999999999  0.01476  0.99693  1.0000
  C   C20       1.0  0.09426999999999991  0.9543499999999998  0.9747700000000001  1.0000
  C   C21       1.0  0.19164999999999993  0.98472  0.96926  1.0000
  C   C22       1.0  0.32142  0.07234  0.86558  1.0000
  C   C23       1.0  0.32032  0.07312999999999999  0.80953  1.0000
  C   C24       1.0  0.40463999999999994  0.11183999999999997  0.77982  1.0000
  C   C25       1.0  0.48917  0.14886999999999997  0.80984  1.0000
  C   C26       1.0  0.4862699999999999  0.145  0.86542  1.0000
  C   C27       1.0  0.54426  0.04508  0.00159  1.0000
  C   C28       1.0  0.49154  0.29529  0.02206  1.0000
  C   C29       1.0  0.51973  0.39238999999999996  0.029920000000000002  1.0000
  C   C30       1.0  0.48538  0.44807  0.99657  1.0000
  C   C31       1.0  0.42121  0.39813  0.95621  1.0000
  C   C32       1.0  0.39638  0.30087  0.95054  1.0000
  C   C33       1.0  0.21096  0.12968  0.49243  1.0000
  C   C34       1.0  0.11407  0.10508  0.48668  1.0000
  C   C35       1.0  0.05171  0.014789999999999996  0.503  1.0000
  C   C36       1.0  0.09448000000000005  0.95446  0.52514  1.0000
  C   C37       1.0  0.19187999999999988  0.9849799999999997  0.53061  1.0000
  C   C38       1.0  0.32159  0.07218  0.63444  1.0000
  C   C39       1.0  0.32037  0.07302  0.69049  1.0000
  C   C40       1.0  0.4046699999999999  0.11179  0.7201900000000001  1.0000
  C   C41       1.0  0.48921  0.14878  0.69018  1.0000
  C   C42       1.0  0.48633  0.14509999999999998  0.63459  1.0000
  C   C43       1.0  0.5445  0.04523  0.4985  1.0000
  C   C44       1.0  0.49161999999999995  0.2956  0.47783000000000003  1.0000
  C   C45       1.0  0.5197  0.3927099999999999  0.47001  1.0000
  C   C46       1.0  0.48531  0.44827999999999996  0.50342  1.0000
  C   C47       1.0  0.4212  0.39823  0.54378  1.0000
  C   C48       1.0  0.39653  0.30098  0.54942  1.0000
  C   C49       1.0  0.7890499999999998  0.87058  0.9925700000000001  1.0000
  C   C50       1.0  0.88592  0.89511  0.9867700000000001  1.0000
  C   C51       1.0  0.94836  0.98544  0.0029500000000000004  1.0000
  C   C52       1.0  0.90562  0.045829999999999996  0.02508  1.0000
  C   C53       1.0  0.80824  0.01535  0.03071  1.0000
  C   C54       1.0  0.67865  0.92744  0.1345  1.0000
  C   C55       1.0  0.6797699999999999  0.92673  0.19056  1.0000
  C   C56       1.0  0.5953399999999998  0.8881199999999999  0.22018  1.0000
  C   C57       1.0  0.51086  0.85131  0.19012  1.0000
  C   C58       1.0  0.51386  0.85506  0.13452  1.0000
  C   C59       1.0  0.45460999999999996  0.9541999999999999  0.9984  1.0000
  C   C60       1.0  0.50829  0.70414  0.97796  1.0000
  C   C61       1.0  0.48025  0.60704  0.9701000000000001  1.0000
  C   C62       1.0  0.51481  0.55147  0.00342  1.0000
  C   C63       1.0  0.57894  0.60145  0.043800000000000006  1.0000
  C   C64       1.0  0.60354  0.6987  0.04945000000000001  1.0000
  N   N1        1.0  0.56958  0.75118  0.48295  1.0000
  N   N2        1.0  0.74899  0.9280199999999998  0.48557  1.0000
  N   N3        1.0  0.59725  0.89228  0.39188  1.0000
  N   N4        1.0  0.43019  0.24856  0.9829400000000001  1.0000
  N   N5        1.0  0.25093  0.07151  0.9855700000000001  1.0000
  N   N6        1.0  0.4024499999999999  0.10742999999999997  0.89187  1.0000
  N   N7        1.0  0.4304399999999999  0.24879  0.517  1.0000
  N   N8        1.0  0.25107  0.07183  0.51434  1.0000
  N   N9        1.0  0.40256  0.1074  0.60811  1.0000
  N   N10       1.0  0.56959  0.7509599999999997  0.01708  1.0000
  N   N11       1.0  0.7489699999999998  0.92846  0.01454  1.0000
  N   N12       1.0  0.59775  0.89232  0.10811  1.0000
  O   O1        1.0  0.37746999999999997  0.96403  0.51305  1.0000
  O   O2        1.0  0.46425  0.87546  0.49218000000000006  1.0000
  O   O3        1.0  0.62152  0.03546  0.01329  1.0000
  O   O4        1.0  0.53528  0.12426  0.9922600000000001  1.0000
  O   O5        1.0  0.6217299999999998  0.0355  0.48692  1.0000
  O   O6        1.0  0.53549  0.12442999999999999  0.50783  1.0000
  O   O7        1.0  0.37727999999999995  0.9637999999999999  0.9868900000000002  1.0000
  O   O8        1.0  0.46417  0.87524  0.00773  1.0000
