data_image0
_chemical_formula_structural       Gd8H16C56N16O48
_chemical_formula_sum              "Gd8 H16 C56 N16 O48"
_cell_length_a       10.2028
_cell_length_b       12.08284
_cell_length_c       18.73205
_cell_angle_alpha    89.99955
_cell_angle_beta     89.99955
_cell_angle_gamma    90.14318

_symmetry_space_group_name_H-M    'P 1'
_symmetry_Int_Tables_number       1

loop_
  _symmetry_equiv_pos_as_xyz
  'x,y,z'

loop_
  _atom_site_type_symbol
  _atom_site_label
  _atom_site_symmetry_multiplicity
  _atom_site_fract_x
  _atom_site_fract_y
  _atom_site_fract_z
  _atom_site_occupancy
  Gd  Gd1       1.0  0.36864  0.8391700000000001  0.4269  1.0000
  Gd  Gd2       1.0  0.8779899999999999  0.01753  0.20179999999999995  1.0000
  Gd  Gd3       1.0  0.63136  0.16083  0.9268999999999998  1.0000
  Gd  Gd4       1.0  0.12202  0.98247  0.70179  1.0000
  Gd  Gd5       1.0  0.1272  0.3379499999999999  0.42683  1.0000
  Gd  Gd6       1.0  0.62487  0.51853  0.20178  1.0000
  Gd  Gd7       1.0  0.8728000000000001  0.66205  0.9268299999999999  1.0000
  Gd  Gd8       1.0  0.37513  0.48147  0.70178  1.0000
  H   H1        1.0  0.14038  0.99413  0.31792  1.0000
  H   H2        1.0  0.28605  0.7198  0.14482  1.0000
  H   H3        1.0  0.67771  0.90167  0.34191  1.0000
  H   H4        1.0  0.47707  0.26578  0.33315  1.0000
  H   H5        1.0  0.85963  0.00588  0.81791  1.0000
  H   H6        1.0  0.71395  0.28021  0.6448099999999999  1.0000
  H   H7        1.0  0.32229  0.09834  0.8419  1.0000
  H   H8        1.0  0.52293  0.73422  0.83315  1.0000
  H   H9        1.0  0.36078  0.49401  0.31943999999999995  1.0000
  H   H10       1.0  0.21448  0.22101000000000004  0.14504  1.0000
  H   H11       1.0  0.8207400000000001  0.4015000000000001  0.34268  1.0000
  H   H12       1.0  0.025839999999999995  0.7649300000000001  0.33378999999999986  1.0000
  H   H13       1.0  0.63922  0.50599  0.81944  1.0000
  H   H14       1.0  0.78552  0.779  0.64503  1.0000
  H   H15       1.0  0.17925  0.5985  0.8426799999999998  1.0000
  H   H16       1.0  0.97416  0.23507000000000003  0.8337899999999999  1.0000
  C   C1        1.0  0.17244  0.9319799999999999  0.27983  1.0000
  C   C2        1.0  0.13966  0.8440400000000001  0.17161999999999997  1.0000
  C   C3        1.0  0.25236  0.78024  0.1838  1.0000
  C   C4        1.0  0.31747  0.79551  0.24879999999999997  1.0000
  C   C5        1.0  0.43095000000000006  0.72476  0.27468  1.0000
  C   C6        1.0  0.04672  0.83431  0.10696999999999998  1.0000
  C   C7        1.0  0.63205  0.9826399999999998  0.33976  1.0000
  C   C8        1.0  0.63953  0.16274  0.30027  1.0000
  C   C9        1.0  0.52093  0.18409  0.33454999999999996  1.0000
  C   C10       1.0  0.45872  0.09561  0.36797  1.0000
  C   C11       1.0  0.3201  0.10242  0.39602  1.0000
  C   C12       1.0  0.70863  0.24986000000000003  0.25535  1.0000
  C   C13       1.0  0.68351  0.07505  0.07994  1.0000
  C   C14       1.0  0.8171  0.12651  0.05584  1.0000
  C   C15       1.0  0.82756  0.06803  0.7798299999999998  1.0000
  C   C16       1.0  0.86034  0.15596  0.67162  1.0000
  C   C17       1.0  0.74764  0.21977  0.6837899999999999  1.0000
  C   C18       1.0  0.68253  0.2045  0.7487999999999998  1.0000
  C   C19       1.0  0.56905  0.27524  0.77468  1.0000
  C   C20       1.0  0.95327  0.1657  0.60696  1.0000
  C   C21       1.0  0.36795  0.01736  0.83975  1.0000
  C   C22       1.0  0.36046999999999996  0.8372600000000001  0.80027  1.0000
  C   C23       1.0  0.47907  0.8159100000000001  0.83455  1.0000
  C   C24       1.0  0.54128  0.9044000000000001  0.86797  1.0000
  C   C25       1.0  0.6799  0.89758  0.8960099999999999  1.0000
  C   C26       1.0  0.29137  0.75014  0.75535  1.0000
  C   C27       1.0  0.3165  0.92496  0.5799299999999998  1.0000
  C   C28       1.0  0.1829  0.8734900000000001  0.55583  1.0000
  C   C29       1.0  0.32875  0.43221999999999994  0.28091  1.0000
  C   C30       1.0  0.36173999999999995  0.34447  0.17259  1.0000
  C   C31       1.0  0.2481  0.28121  0.18425  1.0000
  C   C32       1.0  0.18271  0.29617  0.24914999999999998  1.0000
  C   C33       1.0  0.06897  0.22488  0.27457  1.0000
  C   C34       1.0  0.45381999999999995  0.33477  0.10746999999999998  1.0000
  C   C35       1.0  0.8670199999999999  0.48248  0.3406  1.0000
  C   C36       1.0  0.86161  0.6627  0.30119  1.0000
  C   C37       1.0  0.9804899999999999  0.68364  0.33529  1.0000
  C   C38       1.0  0.04163  0.5949  0.36860999999999994  1.0000
  C   C39       1.0  0.18029  0.60152  0.39629  1.0000
  C   C40       1.0  0.79296  0.75005  0.25662  1.0000
  C   C41       1.0  0.8211899999999999  0.57404  0.07953  1.0000
  C   C42       1.0  0.68864  0.62724  0.05611  1.0000
  C   C43       1.0  0.67125  0.56778  0.7809099999999999  1.0000
  C   C44       1.0  0.63826  0.65553  0.6725899999999998  1.0000
  C   C45       1.0  0.75191  0.71879  0.68425  1.0000
  C   C46       1.0  0.81729  0.70383  0.74914  1.0000
  C   C47       1.0  0.93103  0.77513  0.7745699999999999  1.0000
  C   C48       1.0  0.54619  0.66523  0.6074599999999999  1.0000
  C   C49       1.0  0.13298  0.51752  0.84059  1.0000
  C   C50       1.0  0.13839  0.33729999999999993  0.80119  1.0000
  C   C51       1.0  0.01951  0.31636  0.83529  1.0000
  C   C52       1.0  0.95837  0.4051  0.8685999999999999  1.0000
  C   C53       1.0  0.81971  0.39847  0.8962799999999999  1.0000
  C   C54       1.0  0.20703999999999997  0.24995  0.7566299999999998  1.0000
  C   C55       1.0  0.17881  0.42596  0.5795299999999999  1.0000
  C   C56       1.0  0.31136  0.37276  0.5561  1.0000
  N   N1        1.0  0.27772  0.8721900000000001  0.2967699999999999  1.0000
  N   N2        1.0  0.10130999999999998  0.91929  0.22051  1.0000
  N   N3        1.0  0.51592  0.99516  0.37233  1.0000
  N   N4        1.0  0.69448  0.06107  0.30208  1.0000
  N   N5        1.0  0.72228  0.12781  0.79677  1.0000
  N   N6        1.0  0.89869  0.08071  0.7204999999999999  1.0000
  N   N7        1.0  0.48408  0.00484  0.8723299999999999  1.0000
  N   N8        1.0  0.30552  0.93893  0.8020699999999997  1.0000
  N   N9        1.0  0.22236  0.37282  0.29724999999999996  1.0000
  N   N10       1.0  0.40081  0.41914  0.22185999999999997  1.0000
  N   N11       1.0  0.98336  0.4947  0.37301  1.0000
  N   N12       1.0  0.8054799999999999  0.56119  0.3029799999999999  1.0000
  N   N13       1.0  0.77764  0.62719  0.79724  1.0000
  N   N14       1.0  0.59919  0.58086  0.72186  1.0000
  N   N15       1.0  0.01664  0.5053  0.8730099999999998  1.0000
  N   N16       1.0  0.19452  0.43881  0.80298  1.0000
  O   O1        1.0  0.48791  0.75467  0.33203  1.0000
  O   O2        1.0  0.45507000000000003  0.63874  0.23905  1.0000
  O   O3        1.0  0.9358199999999999  0.88222  0.11726  1.0000
  O   O4        1.0  0.08442  0.7829100000000001  0.05316  1.0000
  O   O5        1.0  0.272  0.01535  0.4230999999999999  1.0000
  O   O6        1.0  0.25965  0.19196  0.3861  1.0000
  O   O7        1.0  0.79677  0.21620000000000003  0.21431999999999998  1.0000
  O   O8        1.0  0.66943  0.34949  0.26426999999999995  1.0000
  O   O9        1.0  0.58588  0.0889  0.03877  1.0000
  O   O10       1.0  0.68158  0.022669999999999996  0.13843  1.0000
  O   O11       1.0  0.81752  0.1777  0.99649  1.0000
  O   O12       1.0  0.91493  0.11362  0.09592999999999999  1.0000
  O   O13       1.0  0.51209  0.24534  0.8320299999999998  1.0000
  O   O14       1.0  0.54493  0.36127  0.73905  1.0000
  O   O15       1.0  0.06418  0.11779  0.61726  1.0000
  O   O16       1.0  0.91559  0.2171  0.55316  1.0000
  O   O17       1.0  0.728  0.98465  0.9230899999999997  1.0000
  O   O18       1.0  0.74035  0.8080399999999999  0.8860899999999999  1.0000
  O   O19       1.0  0.20323  0.7838  0.71432  1.0000
  O   O20       1.0  0.33058  0.65051  0.76427  1.0000
  O   O21       1.0  0.41411999999999993  0.9111  0.53876  1.0000
  O   O22       1.0  0.31842  0.9773400000000001  0.63842  1.0000
  O   O23       1.0  0.18248  0.8223  0.49649  1.0000
  O   O24       1.0  0.08507  0.88639  0.59593  1.0000
  O   O25       1.0  0.01063  0.25435  0.33161  1.0000
  O   O26       1.0  0.04542  0.13869  0.23905  1.0000
  O   O27       1.0  0.56489  0.38324  0.11729  1.0000
  O   O28       1.0  0.4154  0.28344  0.05378  1.0000
  O   O29       1.0  0.22835  0.51432  0.42266  1.0000
  O   O30       1.0  0.24065  0.69149  0.3864699999999999  1.0000
  O   O31       1.0  0.70354  0.71652  0.21627  1.0000
  O   O32       1.0  0.83292  0.84964  0.26499  1.0000
  O   O33       1.0  0.91679  0.58336  0.03643999999999999  1.0000
  O   O34       1.0  0.82421  0.52513  0.13921  1.0000
  O   O35       1.0  0.6886  0.67856  0.99685  1.0000
  O   O36       1.0  0.59091  0.61585  0.09644  1.0000
  O   O37       1.0  0.98937  0.7456500000000001  0.8316099999999997  1.0000
  O   O38       1.0  0.9545799999999999  0.86132  0.73905  1.0000
  O   O39       1.0  0.43511  0.61676  0.6172899999999999  1.0000
  O   O40       1.0  0.5846  0.71655  0.5537799999999999  1.0000
  O   O41       1.0  0.77165  0.48568  0.92265  1.0000
  O   O42       1.0  0.75936  0.3085  0.8864699999999999  1.0000
  O   O43       1.0  0.29648  0.28349  0.71628  1.0000
  O   O44       1.0  0.16708  0.15036  0.7649799999999998  1.0000
  O   O45       1.0  0.08321  0.41664  0.53644  1.0000
  O   O46       1.0  0.1758  0.47486  0.63922  1.0000
  O   O47       1.0  0.3114  0.32145  0.49686  1.0000
  O   O48       1.0  0.4091000000000001  0.38415000000000005  0.59644  1.0000
