data_image0
_chemical_formula_structural       Zn7H16C48S8O32
_chemical_formula_sum              "Zn7 H16 C48 S8 O32"
_cell_length_a       15.8644
_cell_length_b       16.97877
_cell_length_c       18.193609999999996
_cell_angle_alpha    92.70385
_cell_angle_beta     113.39385
_cell_angle_gamma    111.54895999999998

_symmetry_space_group_name_H-M    'P 1'
_symmetry_Int_Tables_number       1

loop_
  _symmetry_equiv_pos_as_xyz
  'x,y,z'

loop_
  _atom_site_type_symbol
  _atom_site_label
  _atom_site_symmetry_multiplicity
  _atom_site_fract_x
  _atom_site_fract_y
  _atom_site_fract_z
  _atom_site_occupancy
  Zn  Zn1       1.0  0.41878  0.40666  0.28475  1.0000
  Zn  Zn2       1.0  0.1631900000000001  0.8351500000000002  0.46799  1.0000
  Zn  Zn3       1.0  0.02660000000000002  0.81523  0.29797  1.0000
  Zn  Zn4       1.0  0.58122  0.59335  0.71523  1.0000
  Zn  Zn5       1.0  0.8368100000000002  0.16484999999999994  0.5320099999999998  1.0000
  Zn  Zn6       1.0  0.9734100000000002  0.18477000000000005  0.70202  1.0000
  Zn  Zn7       1.0  0.5  0.5  0.49998999999999993  1.0000
  H   H1        1.0  0.11935000000000003  0.63842  0.1995  1.0000
  H   H2        1.0  0.21180000000000004  0.5367  0.19177  1.0000
  H   H3        1.0  0.67429  0.8309000000000001  0.11893  1.0000
  H   H4        1.0  0.5450699999999999  0.7682099999999997  0.9590399999999998  1.0000
  H   H5        1.0  0.7780400000000001  0.5822400000000002  0.56296  1.0000
  H   H6        1.0  0.2723399999999999  0.12195999999999994  0.5587799999999998  1.0000
  H   H7        1.0  0.9546800000000001  0.69969  0.5779399999999998  1.0000
  H   H8        1.0  0.3546399999999999  0.28584999999999994  0.5455699999999998  1.0000
  H   H9        1.0  0.8806399999999999  0.36158  0.8004999999999998  1.0000
  H   H10       1.0  0.7881699999999999  0.46329  0.8081999999999998  1.0000
  H   H11       1.0  0.32571000000000006  0.16909  0.88106  1.0000
  H   H12       1.0  0.45494  0.23179000000000005  0.04095  1.0000
  H   H13       1.0  0.22194999999999995  0.41774  0.4370199999999999  1.0000
  H   H14       1.0  0.7276700000000005  0.8780500000000002  0.44121  1.0000
  H   H15       1.0  0.04531999999999995  0.3003100000000001  0.4220599999999999  1.0000
  H   H16       1.0  0.64536  0.71415  0.45441  1.0000
  C   C1        1.0  0.1811400000000001  0.6335400000000002  0.25079  1.0000
  C   C2        1.0  0.22978000000000004  0.5803500000000001  0.24669  1.0000
  C   C3        1.0  0.68749  0.80208  0.07232999999999999  1.0000
  C   C4        1.0  0.77804  0.7935300000000002  0.09205999999999998  1.0000
  C   C5        1.0  0.6589599999999999  0.7349300000000001  0.9450599999999998  1.0000
  C   C6        1.0  0.61989  0.7689999999999999  0.98872  1.0000
  C   C7        1.0  0.86399  0.82012  0.17517  1.0000
  C   C8        1.0  0.79415  0.60417  0.51292  1.0000
  C   C9        1.0  0.22048999999999994  0.68092  0.3305799999999999  1.0000
  C   C10       1.0  0.30610000000000004  0.5882000000000002  0.32299  1.0000
  C   C11       1.0  0.6089699999999999  0.6936199999999999  0.8562799999999998  1.0000
  C   C12       1.0  0.18312000000000003  0.9873400000000002  0.41595  1.0000
  C   C13       1.0  0.2744  0.14176000000000005  0.50341  1.0000
  C   C14       1.0  0.88664  0.66627  0.52054  1.0000
  C   C15       1.0  0.37098000000000003  0.5404200000000002  0.3406  1.0000
  C   C16       1.0  0.23212  0.08201999999999997  0.4292699999999999  1.0000
  C   C17       1.0  0.61605  0.50612  0.4006499999999999  1.0000
  C   C18       1.0  0.8826200000000001  0.6815199999999999  0.4447699999999999  1.0000
  C   C19       1.0  0.18307999999999994  0.7387  0.3559199999999999  1.0000
  C   C20       1.0  0.35463  0.31327  0.39298  1.0000
  C   C21       1.0  0.72093  0.57235  0.43141  1.0000
  C   C22       1.0  0.9663800000000003  0.73942  0.4306  1.0000
  C   C23       1.0  0.31078999999999996  0.23277999999999996  0.4185099999999999  1.0000
  C   C24       1.0  0.31764  0.22792000000000004  0.49676999999999993  1.0000
  C   C25       1.0  0.81885  0.3664600000000001  0.7492  1.0000
  C   C26       1.0  0.7702099999999998  0.41965  0.7532899999999998  1.0000
  C   C27       1.0  0.31251  0.19792000000000007  0.92767  1.0000
  C   C28       1.0  0.22196000000000007  0.20646000000000006  0.90793  1.0000
  C   C29       1.0  0.34104  0.26507  0.054929999999999986  1.0000
  C   C30       1.0  0.38012000000000007  0.23099000000000006  0.01127  1.0000
  C   C31       1.0  0.13601  0.17988000000000007  0.82483  1.0000
  C   C32       1.0  0.20585000000000003  0.39582000000000017  0.48705999999999994  1.0000
  C   C33       1.0  0.7795100000000001  0.31908  0.6694099999999997  1.0000
  C   C34       1.0  0.69389  0.41179000000000004  0.6769799999999998  1.0000
  C   C35       1.0  0.39103000000000016  0.3063700000000001  0.14371  1.0000
  C   C36       1.0  0.81688  0.01265999999999998  0.58404  1.0000
  C   C37       1.0  0.7256100000000002  0.85824  0.49658  1.0000
  C   C38       1.0  0.11336000000000006  0.33373  0.47945  1.0000
  C   C39       1.0  0.629  0.4595600000000001  0.65935  1.0000
  C   C40       1.0  0.76789  0.9179800000000002  0.5707199999999998  1.0000
  C   C41       1.0  0.38396  0.49387  0.59933  1.0000
  C   C42       1.0  0.11737999999999998  0.31848  0.55522  1.0000
  C   C43       1.0  0.81692  0.2613  0.64408  1.0000
  C   C44       1.0  0.64537  0.68672  0.607  1.0000
  C   C45       1.0  0.27907  0.42764  0.56857  1.0000
  C   C46       1.0  0.033629999999999945  0.2606  0.5694099999999997  1.0000
  C   C47       1.0  0.6892199999999999  0.7672100000000002  0.5814799999999998  1.0000
  C   C48       1.0  0.6823600000000002  0.77208  0.50322  1.0000
  S   S1        1.0  0.24767  0.13207  0.35208  1.0000
  S   S2        1.0  0.7646900000000002  0.61942  0.36419  1.0000
  S   S3        1.0  0.31802999999999987  0.6605299999999998  0.40015  1.0000
  S   S4        1.0  0.77964  0.7449700000000002  0.007299999999999998  1.0000
  S   S5        1.0  0.75233  0.86793  0.64791  1.0000
  S   S6        1.0  0.23532000000000006  0.3805900000000001  0.6358  1.0000
  S   S7        1.0  0.68197  0.33946  0.59983  1.0000
  S   S8        1.0  0.2203600000000001  0.25503  0.99269  1.0000
  O   O1        1.0  0.20255000000000012  0.9574100000000002  0.48201  1.0000
  O   O2        1.0  0.12686000000000003  0.9406900000000002  0.3428199999999999  1.0000
  O   O3        1.0  0.3737  0.38368  0.4368  1.0000
  O   O4        1.0  0.36807  0.3046700000000001  0.3287499999999999  1.0000
  O   O5        1.0  0.58736  0.47067  0.45140999999999987  1.0000
  O   O6        1.0  0.56098  0.4883  0.32258  1.0000
  O   O7        1.0  0.9489900000000001  0.7524  0.35838  1.0000
  O   O8        1.0  0.05444000000000001  0.7731700000000001  0.49371999999999994  1.0000
  O   O9        1.0  0.9278199999999999  0.78565  0.18411  1.0000
  O   O10       1.0  0.8710799999999999  0.87235  0.23014  1.0000
  O   O11       1.0  0.63966  0.6394100000000003  0.83559  1.0000
  O   O12       1.0  0.54336  0.7149  0.80799  1.0000
  O   O13       1.0  0.4491500000000002  0.5671300000000002  0.4095799999999999  1.0000
  O   O14       1.0  0.34125  0.47631  0.28277  1.0000
  O   O15       1.0  0.22575000000000006  0.7739000000000001  0.43391  1.0000
  O   O16       1.0  0.11097999999999998  0.7501  0.3007  1.0000
  O   O17       1.0  0.79745  0.042590000000000024  0.51799  1.0000
  O   O18       1.0  0.87315  0.05931999999999997  0.6571799999999998  1.0000
  O   O19       1.0  0.6263100000000003  0.61631  0.56319  1.0000
  O   O20       1.0  0.6319200000000001  0.6953400000000001  0.67123  1.0000
  O   O21       1.0  0.41264  0.52933  0.54857  1.0000
  O   O22       1.0  0.43901999999999997  0.5117000000000002  0.6773999999999998  1.0000
  O   O23       1.0  0.05104000000000004  0.24765000000000006  0.64164  1.0000
  O   O24       1.0  0.94557  0.22683000000000006  0.50629  1.0000
  O   O25       1.0  0.07218999999999988  0.21433999999999995  0.8158799999999998  1.0000
  O   O26       1.0  0.12893000000000007  0.1276500000000001  0.76985  1.0000
  O   O27       1.0  0.36033999999999994  0.3605800000000001  0.16438999999999995  1.0000
  O   O28       1.0  0.45663999999999993  0.2851  0.19199999999999995  1.0000
  O   O29       1.0  0.55084  0.4328500000000001  0.59037  1.0000
  O   O30       1.0  0.6587299999999999  0.52369  0.7171599999999998  1.0000
  O   O31       1.0  0.77426  0.22609  0.56609  1.0000
  O   O32       1.0  0.8890200000000001  0.24989999999999998  0.6992999999999998  1.0000
