data_image0
_chemical_formula_structural       Sm4H26C50O28
_chemical_formula_sum              "Sm4 H26 C50 O28"
_cell_length_a       8.44169
_cell_length_b       10.56167
_cell_length_c       17.70923
_cell_angle_alpha    99.53176
_cell_angle_beta     97.34322
_cell_angle_gamma    99.55806999999999

_space_group_name_H-M_alt    "P 1"
_space_group_IT_number       1

loop_
  _space_group_symop_operation_xyz
  'x, y, z'

loop_
  _atom_site_type_symbol
  _atom_site_label
  _atom_site_symmetry_multiplicity
  _atom_site_fract_x
  _atom_site_fract_y
  _atom_site_fract_z
  _atom_site_occupancy
  Sm  Sm1       1.0  0.52661  0.14368000000000003  0.2997400000000001  1.0000
  Sm  Sm2       1.0  0.03151000000000001  0.19464  0.23644000000000004  1.0000
  Sm  Sm3       1.0  0.47706999999999994  0.85754  0.69855  1.0000
  Sm  Sm4       1.0  0.96927  0.8084200000000001  0.76156  1.0000
  H   H1        1.0  0.20134000000000002  0.67781  0.27003000000000005  1.0000
  H   H2        1.0  0.04242000000000001  0.9098  0.10698  1.0000
  H   H3        1.0  0.8724200000000001  0.70885  0.02193  1.0000
  H   H4        1.0  0.86068  0.49367  0.06410000000000002  1.0000
  H   H5        1.0  0.08616000000000004  0.8588100000000001  0.3565  1.0000
  H   H6        1.0  0.14719000000000007  0.704  0.4434900000000001  1.0000
  H   H7        1.0  0.9790000000000001  0.6710500000000001  0.54781  1.0000
  H   H8        1.0  0.68746  0.9392900000000002  0.47357000000000005  1.0000
  H   H9        1.0  0.37458  0.87415  0.11254  1.0000
  H   H10       1.0  0.21614000000000008  0.7257700000000001  0.99223  1.0000
  H   H11       1.0  0.35147  0.67643  0.87711  1.0000
  H   H12       1.0  0.79367  0.9349500000000002  0.9993900000000001  1.0000
  H   H13       1.0  0.8735600000000001  0.46783  0.3494700000000001  1.0000
  H   H14       1.0  0.7911000000000001  0.3216800000000001  0.7324400000000002  1.0000
  H   H15       1.0  0.9618900000000001  0.08948000000000005  0.8925600000000001  1.0000
  H   H16       1.0  0.1304500000000001  0.2907600000000001  0.9777200000000001  1.0000
  H   H17       1.0  0.13857  0.50624  0.93618  1.0000
  H   H18       1.0  0.91868  0.14679000000000006  0.6429200000000003  1.0000
  H   H19       1.0  0.85502  0.29977  0.5547  1.0000
  H   H20       1.0  0.021180000000000067  0.3297200000000001  0.4490800000000001  1.0000
  H   H21       1.0  0.3135300000000001  0.06263  0.52368  1.0000
  H   H22       1.0  0.62904  0.12753  0.88786  1.0000
  H   H23       1.0  0.78569  0.2753900000000001  0.00874  1.0000
  H   H24       1.0  0.64875  0.3236  0.12332  1.0000
  H   H25       1.0  0.20808000000000004  0.06486000000000008  0.9994100000000001  1.0000
  H   H26       1.0  0.12435000000000002  0.53772  0.64883  1.0000
  C   C1        1.0  0.022549999999999994  0.44532  0.19551  1.0000
  C   C2        1.0  0.02781  0.57327  0.17021  1.0000
  C   C3        1.0  0.1271500000000001  0.68543  0.21663  1.0000
  C   C4        1.0  0.13137000000000007  0.8068300000000003  0.19404  1.0000
  C   C5        1.0  0.038070000000000014  0.8152900000000001  0.12417000000000002  1.0000
  C   C6        1.0  0.94205  0.7025900000000002  0.07685  1.0000
  C   C7        1.0  0.9360200000000001  0.58194  0.10004  1.0000
  C   C8        1.0  0.24361000000000002  0.9236500000000001  0.24258000000000002  1.0000
  C   C9        1.0  0.84114  0.9981600000000002  0.35569  1.0000
  C   C10       1.0  0.8810700000000001  0.90671  0.4085600000000001  1.0000
  C   C11       1.0  0.011900000000000023  0.84141  0.40092000000000005  1.0000
  C   C12       1.0  0.04643000000000005  0.75496  0.45020000000000004  1.0000
  C   C13       1.0  0.9533100000000001  0.7363699999999999  0.50837  1.0000
  C   C14       1.0  0.8249300000000003  0.80419  0.51782  1.0000
  C   C15       1.0  0.7878000000000001  0.8880100000000001  0.467  1.0000
  C   C16       1.0  0.7337600000000002  0.7926000000000001  0.58409  1.0000
  C   C17       1.0  0.68261  0.004060000000000011  0.13625  1.0000
  C   C18       1.0  0.59427  0.9119500000000001  0.06408  1.0000
  C   C19       1.0  0.43119999999999997  0.8527  0.06140000000000001  1.0000
  C   C20       1.0  0.34359  0.7681400000000002  0.9943500000000001  1.0000
  C   C21       1.0  0.41882  0.7407400000000001  0.9297600000000001  1.0000
  C   C22       1.0  0.58176  0.79999  0.9317400000000001  1.0000
  C   C23       1.0  0.66888  0.8872900000000001  0.9987400000000001  1.0000
  C   C24       1.0  0.6615300000000001  0.77287  0.8621100000000003  1.0000
  C   C25       1.0  0.78012  0.37743  0.3384  1.0000
  C   C26       1.0  0.97641  0.5540000000000002  0.8047900000000002  1.0000
  C   C27       1.0  0.9696699999999999  0.42634  0.83049  1.0000
  C   C28       1.0  0.86894  0.31416  0.78478  1.0000
  C   C29       1.0  0.86765  0.19254000000000007  0.8067300000000001  1.0000
  C   C30       1.0  0.9642200000000001  0.18416000000000007  0.8757900000000002  1.0000
  C   C31       1.0  0.05993000000000005  0.2970300000000001  0.9230300000000002  1.0000
  C   C32       1.0  0.06377000000000001  0.41774000000000006  0.9001500000000001  1.0000
  C   C33       1.0  0.75587  0.07474  0.75882  1.0000
  C   C34       1.0  0.1611300000000001  0.005630000000000061  0.6424700000000002  1.0000
  C   C35       1.0  0.12129  0.09672  0.58963  1.0000
  C   C36       1.0  0.99092  0.16265000000000004  0.59756  1.0000
  C   C37       1.0  0.9551400000000001  0.24809  0.54779  1.0000
  C   C38       1.0  0.04681999999999999  0.2651  0.48898  1.0000
  C   C39       1.0  0.17472  0.19667  0.47941  1.0000
  C   C40       1.0  0.2131100000000001  0.11382000000000012  0.5305300000000002  1.0000
  C   C41       1.0  0.26497  0.20715  0.41284  1.0000
  C   C42       1.0  0.32156000000000007  0.99579  0.8633000000000001  1.0000
  C   C43       1.0  0.40878  0.08823000000000007  0.93571  1.0000
  C   C44       1.0  0.57164  0.14813  0.9388200000000001  1.0000
  C   C45       1.0  0.65823  0.23267000000000002  0.00612  1.0000
  C   C46       1.0  0.58208  0.25948  0.07047  1.0000
  C   C47       1.0  0.41929  0.19980000000000003  0.068  1.0000
  C   C48       1.0  0.33302  0.11275000000000002  0.00069  1.0000
  C   C49       1.0  0.33917  0.2266  0.13752  1.0000
  C   C50       1.0  0.21838000000000002  0.62798  0.66218  1.0000
  O   O1        1.0  0.11135000000000006  0.43782000000000004  0.2581000000000001  1.0000
  O   O2        1.0  0.9281299999999999  0.34283  0.15474  1.0000
  O   O3        1.0  0.35787  0.9086  0.29193  1.0000
  O   O4        1.0  0.23009000000000002  0.03961  0.23119  1.0000
  O   O5        1.0  0.8328  0.05045  0.13969  1.0000
  O   O6        1.0  0.59892  0.03055000000000002  0.18964000000000006  1.0000
  O   O7        1.0  0.81541  0.78769  0.87132  1.0000
  O   O8        1.0  0.57135  0.73689  0.79558  1.0000
  O   O9        1.0  0.7121400000000002  0.04395000000000003  0.3635000000000001  1.0000
  O   O10       1.0  0.9356600000000003  0.024190000000000007  0.30764  1.0000
  O   O11       1.0  0.60113  0.8348  0.58369  1.0000
  O   O12       1.0  0.79429  0.7432  0.63991  1.0000
  O   O13       1.0  0.8080700000000002  0.2745  0.29552000000000006  1.0000
  O   O14       1.0  0.6512600000000002  0.3756300000000002  0.36723  1.0000
  O   O15       1.0  0.8885100000000002  0.56251  0.7421  1.0000
  O   O16       1.0  0.07127000000000011  0.6566500000000001  0.8449800000000002  1.0000
  O   O17       1.0  0.63598  0.0877  0.71193  1.0000
  O   O18       1.0  0.7767600000000001  0.9594700000000002  0.76878  1.0000
  O   O19       1.0  0.1711600000000001  0.9492400000000002  0.8596100000000002  1.0000
  O   O20       1.0  0.4058900000000002  0.9694400000000004  0.8103300000000002  1.0000
  O   O21       1.0  0.18517000000000006  0.21173  0.12786  1.0000
  O   O22       1.0  0.42872  0.26289  0.20417000000000005  1.0000
  O   O23       1.0  0.29214  0.96183  0.6363800000000002  1.0000
  O   O24       1.0  0.06493000000000003  0.9766300000000001  0.68931  1.0000
  O   O25       1.0  0.3960699999999999  0.16266  0.41269  1.0000
  O   O26       1.0  0.2046600000000001  0.2576200000000001  0.3575600000000001  1.0000
  O   O27       1.0  0.1894200000000001  0.7302900000000001  0.7048300000000002  1.0000
  O   O28       1.0  0.35018  0.63021  0.63571  1.0000
