data_image0
_chemical_formula_structural       Zn4H36C60N20O16
_chemical_formula_sum              "Zn4 H36 C60 N20 O16"
_cell_length_a       9.84452
_cell_length_b       11.94963
_cell_length_c       17.84508
_cell_angle_alpha    90.00625
_cell_angle_beta     90.00628
_cell_angle_gamma    97.83092999999998

_space_group_name_H-M_alt    "P 1"
_space_group_IT_number       1

loop_
  _space_group_symop_operation_xyz
  'x, y, z'

loop_
  _atom_site_type_symbol
  _atom_site_label
  _atom_site_symmetry_multiplicity
  _atom_site_fract_x
  _atom_site_fract_y
  _atom_site_fract_z
  _atom_site_occupancy
  Zn  Zn1       1.0  0.5500899999999999  0.6585199999999999  0.45293  1.0000
  Zn  Zn2       1.0  0.9499499999999999  0.8414  0.9529700000000001  1.0000
  Zn  Zn3       1.0  0.44992  0.34147  0.54707  1.0000
  Zn  Zn4       1.0  0.050059999999999986  0.15859999999999996  0.04703  1.0000
  H   H1        1.0  0.40768  0.84145  0.94534  1.0000
  H   H2        1.0  0.67015  0.7071599999999998  0.7859400000000002  1.0000
  H   H3        1.0  0.23560999999999999  0.6893699999999999  0.74159  1.0000
  H   H4        1.0  0.2766  0.42999999999999994  0.73248  1.0000
  H   H5        1.0  0.42762  0.47047999999999995  0.7864400000000002  1.0000
  H   H6        1.0  0.42253  0.35908999999999996  0.71798  1.0000
  H   H7        1.0  0.60994  0.05713  0.6678500000000003  1.0000
  H   H8        1.0  0.69613  0.09895999999999998  0.53638  1.0000
  H   H9        1.0  0.6801  0.9310099999999999  0.44536000000000003  1.0000
  H   H10       1.0  0.09237999999999996  0.6585599999999999  0.44527  1.0000
  H   H11       1.0  0.8298099999999999  0.79286  0.28599000000000013  1.0000
  H   H12       1.0  0.26424  0.8105099999999998  0.24142  1.0000
  H   H13       1.0  0.22343  0.07001999999999999  0.23255000000000003  1.0000
  H   H14       1.0  0.07236999999999999  0.0296  0.28646  1.0000
  H   H15       1.0  0.07746  0.14085999999999999  0.21797  1.0000
  H   H16       1.0  0.8900099999999999  0.44284999999999997  0.16781  1.0000
  H   H17       1.0  0.80389  0.40102  0.03632  1.0000
  H   H18       1.0  0.81971  0.56907  0.9453600000000002  1.0000
  H   H19       1.0  0.59233  0.15855  0.05466  1.0000
  H   H20       1.0  0.3298599999999999  0.29283  0.21406  1.0000
  H   H21       1.0  0.7644  0.31062  0.2584000000000001  1.0000
  H   H22       1.0  0.72341  0.57  0.26752000000000004  1.0000
  H   H23       1.0  0.57239  0.52952  0.21356000000000003  1.0000
  H   H24       1.0  0.57747  0.6409  0.28201  1.0000
  H   H25       1.0  0.39005999999999996  0.94287  0.33215  1.0000
  H   H26       1.0  0.30387999999999993  0.9010399999999997  0.46361  1.0000
  H   H27       1.0  0.31990999999999997  0.06898  0.55464  1.0000
  H   H28       1.0  0.90763  0.3414299999999999  0.55473  1.0000
  H   H29       1.0  0.17019  0.20712999999999998  0.71401  1.0000
  H   H30       1.0  0.7357599999999999  0.18948999999999996  0.7585800000000001  1.0000
  H   H31       1.0  0.77657  0.9299699999999997  0.7674500000000001  1.0000
  H   H32       1.0  0.92764  0.9703999999999999  0.71354  1.0000
  H   H33       1.0  0.9225399999999999  0.8591399999999998  0.78203  1.0000
  H   H34       1.0  0.10999999999999997  0.5571399999999999  0.8321800000000003  1.0000
  H   H35       1.0  0.19611  0.59898  0.96368  1.0000
  H   H36       1.0  0.18029  0.43092  0.05463  1.0000
  C   C1        1.0  0.6751599999999999  0.8141  0.9184900000000001  1.0000
  C   C2        1.0  0.16205  0.78007  0.8683300000000003  1.0000
  C   C3        1.0  0.41990999999999995  0.7983999999999999  0.89246  1.0000
  C   C4        1.0  0.5509499999999999  0.77762  0.8703300000000002  1.0000
  C   C5        1.0  0.30623  0.7646499999999999  0.84649  1.0000
  C   C6        1.0  0.56826  0.72373  0.8019800000000001  1.0000
  C   C7        1.0  0.32446  0.7131299999999999  0.7772500000000002  1.0000
  C   C8        1.0  0.45508  0.69386  0.75595  1.0000
  C   C9        1.0  0.38934999999999986  0.4409699999999999  0.7312000000000002  1.0000
  C   C10       1.0  0.44168  0.52394  0.67303  1.0000
  C   C11       1.0  0.5176  0.68499  0.618  1.0000
  C   C12       1.0  0.56321  0.80311  0.59869  1.0000
  C   C13       1.0  0.61225  0.9896299999999998  0.62695  1.0000
  C   C14       1.0  0.65814  0.01304  0.55377  1.0000
  C   C15       1.0  0.64893  0.9222499999999999  0.50394  1.0000
  C   C16       1.0  0.8248499999999999  0.6861799999999998  0.4185  1.0000
  C   C17       1.0  0.33796  0.72  0.36843  1.0000
  C   C18       1.0  0.08008999999999997  0.70165  0.39242  1.0000
  C   C19       1.0  0.94906  0.7224899999999999  0.37030000000000013  1.0000
  C   C20       1.0  0.19381  0.73536  0.34649000000000013  1.0000
  C   C21       1.0  0.9317599999999998  0.7763199999999998  0.30196  1.0000
  C   C22       1.0  0.17557999999999999  0.78688  0.27723  1.0000
  C   C23       1.0  0.04495000000000002  0.80619  0.25596  1.0000
  C   C24       1.0  0.11067999999999999  0.05900999999999999  0.23122  1.0000
  C   C25       1.0  0.05835999999999996  0.9760499999999999  0.17305  1.0000
  C   C26       1.0  0.9823099999999999  0.81501  0.11802000000000001  1.0000
  C   C27       1.0  0.93674  0.6968699999999999  0.09873  1.0000
  C   C28       1.0  0.88768  0.51035  0.12693000000000004  1.0000
  C   C29       1.0  0.8419399999999999  0.48693  0.053710000000000015  1.0000
  C   C30       1.0  0.85116  0.57773  0.00391  1.0000
  C   C31       1.0  0.32485  0.18588999999999994  0.0815  1.0000
  C   C32       1.0  0.83795  0.21992  0.13167  1.0000
  C   C33       1.0  0.58009  0.20158999999999994  0.10754  1.0000
  C   C34       1.0  0.44906  0.22238  0.12967  1.0000
  C   C35       1.0  0.6937799999999996  0.23535  0.1535  1.0000
  C   C36       1.0  0.43175  0.27625999999999995  0.19802  1.0000
  C   C37       1.0  0.6755499999999999  0.28686999999999996  0.22275000000000006  1.0000
  C   C38       1.0  0.54493  0.30613999999999997  0.24404000000000003  1.0000
  C   C39       1.0  0.6106499999999999  0.55902  0.2688  1.0000
  C   C40       1.0  0.55833  0.47605999999999987  0.3269600000000001  1.0000
  C   C41       1.0  0.4824099999999999  0.31500999999999996  0.382  1.0000
  C   C42       1.0  0.43679999999999997  0.19687999999999997  0.4013  1.0000
  C   C43       1.0  0.38776  0.01036  0.37305  1.0000
  C   C44       1.0  0.34187  0.98695  0.44623  1.0000
  C   C45       1.0  0.35108  0.07773999999999999  0.49606  1.0000
  C   C46       1.0  0.17515999999999995  0.31382  0.5815  1.0000
  C   C47       1.0  0.66205  0.28  0.63157  1.0000
  C   C48       1.0  0.9199199999999998  0.29835  0.60758  1.0000
  C   C49       1.0  0.05094999999999999  0.27749999999999997  0.62969  1.0000
  C   C50       1.0  0.8062  0.26463  0.65351  1.0000
  C   C51       1.0  0.06824999999999999  0.22368  0.69804  1.0000
  C   C52       1.0  0.8244299999999998  0.21310999999999997  0.72276  1.0000
  C   C53       1.0  0.95506  0.19380999999999995  0.74404  1.0000
  C   C54       1.0  0.8893199999999999  0.94098  0.76877  1.0000
  C   C55       1.0  0.94165  0.02394  0.8269500000000001  1.0000
  C   C56       1.0  0.01769  0.18499  0.8819800000000002  1.0000
  C   C57       1.0  0.06326999999999999  0.30312  0.9012700000000001  1.0000
  C   C58       1.0  0.11233  0.4896399999999999  0.8730700000000002  1.0000
  C   C59       1.0  0.15806  0.51307  0.9462800000000001  1.0000
  C   C60       1.0  0.14885  0.42227  0.99609  1.0000
  N   N1        1.0  0.47219999999999995  0.6384  0.68535  1.0000
  N   N2        1.0  0.46742  0.50339  0.6012900000000002  1.0000
  N   N3        1.0  0.5148699999999999  0.60326  0.56734  1.0000
  N   N4        1.0  0.5987399999999999  0.8175599999999998  0.5260100000000002  1.0000
  N   N5        1.0  0.5669  0.88417  0.65074  1.0000
  N   N6        1.0  0.02776999999999999  0.8616099999999999  0.18536  1.0000
  N   N7        1.0  0.032639999999999975  0.9965899999999998  0.10129  1.0000
  N   N8        1.0  0.98511  0.89672  0.06736  1.0000
  N   N9        1.0  0.9014999999999999  0.68239  0.026000000000000006  1.0000
  N   N10       1.0  0.9327499999999999  0.61584  0.1508  1.0000
  N   N11       1.0  0.52781  0.3616  0.31465  1.0000
  N   N12       1.0  0.5325899999999999  0.4966  0.39871000000000006  1.0000
  N   N13       1.0  0.4851299999999999  0.39673999999999987  0.43265  1.0000
  N   N14       1.0  0.40126  0.18244  0.47399  1.0000
  N   N15       1.0  0.43311  0.11583  0.34925  1.0000
  N   N16       1.0  0.9722299999999998  0.13839  0.81463  1.0000
  N   N17       1.0  0.9673699999999998  0.0033999999999999994  0.8987100000000001  1.0000
  N   N18       1.0  0.0149  0.10328  0.93264  1.0000
  N   N19       1.0  0.09850999999999999  0.31760999999999995  0.9740000000000001  1.0000
  N   N20       1.0  0.06726  0.38414999999999994  0.8492  1.0000
  O   O1        1.0  0.66691  0.8745  0.9745500000000001  1.0000
  O   O2        1.0  0.78652  0.77774  0.89436  1.0000
  O   O3        1.0  0.14608  0.81623  0.9358900000000001  1.0000
  O   O4        1.0  0.06726999999999997  0.7548199999999999  0.82189  1.0000
  O   O5        1.0  0.83325  0.6265  0.47486000000000006  1.0000
  O   O6        1.0  0.7133799999999999  0.7222499999999998  0.3942500000000001  1.0000
  O   O7        1.0  0.3539  0.68356  0.43591  1.0000
  O   O8        1.0  0.43277999999999994  0.7454399999999999  0.32204  1.0000
  O   O9        1.0  0.33309  0.12549  0.02545  1.0000
  O   O10       1.0  0.21349  0.22225999999999999  0.10563  1.0000
  O   O11       1.0  0.85393  0.18375999999999995  0.0641  1.0000
  O   O12       1.0  0.9327299999999998  0.24516999999999997  0.1781  1.0000
  O   O13       1.0  0.16676  0.3734999999999999  0.52514  1.0000
  O   O14       1.0  0.28663  0.27775  0.6057400000000002  1.0000
  O   O15       1.0  0.64611  0.31644  0.56408  1.0000
  O   O16       1.0  0.56722  0.25455  0.67796  1.0000
