data_image0
_chemical_formula_structural       Ho4Ag4H32C56N8O32
_chemical_formula_sum              "Ho4 Ag4 H32 C56 N8 O32"
_cell_length_a       9.51292
_cell_length_b       12.06763
_cell_length_c       16.66751
_cell_angle_alpha    96.63678000000002
_cell_angle_beta     89.99312
_cell_angle_gamma    113.13203000000001

_symmetry_space_group_name_H-M    'P 1'
_symmetry_Int_Tables_number       1

loop_
  _symmetry_equiv_pos_as_xyz
  'x,y,z'

loop_
  _atom_site_type_symbol
  _atom_site_label
  _atom_site_symmetry_multiplicity
  _atom_site_fract_x
  _atom_site_fract_y
  _atom_site_fract_z
  _atom_site_occupancy
  Ho  Ho1       1.0  0.30536  0.011260000000000015  0.4363500000000001  1.0000
  Ho  Ho2       1.0  0.6945700000000001  0.9887400000000001  0.5673800000000002  1.0000
  Ho  Ho3       1.0  0.2935699999999999  0.98841  0.06745  1.0000
  Ho  Ho4       1.0  0.7065  0.011659999999999986  0.93268  1.0000
  Ag  Ag1       1.0  0.04046  0.31853  0.08325  1.0000
  Ag  Ag2       1.0  0.95971  0.68111  0.91813  1.0000
  Ag  Ag3       1.0  0.27832  0.31876  0.58287  1.0000
  Ag  Ag4       1.0  0.72203  0.68116  0.41693  1.0000
  H   H1        1.0  0.4098799999999999  0.8134499999999999  0.22099  1.0000
  H   H2        1.0  0.1173  0.08904999999999998  0.83539  1.0000
  H   H3        1.0  0.5491099999999999  0.30301  0.67333  1.0000
  H   H4        1.0  0.5544799999999999  0.58434  0.13769  1.0000
  H   H5        1.0  0.59052  0.18727  0.77914  1.0000
  H   H6        1.0  0.83771  0.41047999999999996  0.95168  1.0000
  H   H7        1.0  0.57433  0.41148  0.45187  1.0000
  H   H8        1.0  0.4264000000000001  0.5884500000000001  0.5482100000000002  1.0000
  H   H9        1.0  0.5154199999999999  0.64382  0.87905  1.0000
  H   H10       1.0  0.44472000000000006  0.41522000000000003  0.8627100000000002  1.0000
  H   H11       1.0  0.24599999999999997  0.69644  0.82759  1.0000
  H   H12       1.0  0.02903999999999993  0.9108999999999999  0.66525  1.0000
  H   H13       1.0  0.04818000000000003  0.28795000000000004  0.4467900000000001  1.0000
  H   H14       1.0  0.40365  0.8124200000000001  0.72197  1.0000
  H   H15       1.0  0.23997  0.28858  0.94713  1.0000
  H   H16       1.0  0.97025  0.41466000000000003  0.3622300000000001  1.0000
  H   H17       1.0  0.59521  0.18680999999999998  0.27885  1.0000
  H   H18       1.0  0.45107  0.69777  0.3269  1.0000
  H   H19       1.0  0.95217  0.71261  0.55304  1.0000
  H   H20       1.0  0.88874  0.7976299999999998  0.7769  1.0000
  H   H21       1.0  0.16201999999999997  0.58939  0.048840000000000015  1.0000
  H   H22       1.0  0.48406  0.35576  0.12133000000000001  1.0000
  H   H23       1.0  0.88305  0.91094  0.16465  1.0000
  H   H24       1.0  0.7595099999999998  0.71116  0.0535  1.0000
  H   H25       1.0  0.10997  0.20067  0.22443000000000005  1.0000
  H   H26       1.0  0.03093000000000002  0.58626  0.63755  1.0000
  H   H27       1.0  0.9093999999999999  0.79785  0.27646  1.0000
  H   H28       1.0  0.75295  0.3022  0.17315  1.0000
  H   H29       1.0  0.09078999999999997  0.20240999999999998  0.7236700000000003  1.0000
  H   H30       1.0  0.96941  0.08775  0.3360400000000001  1.0000
  H   H31       1.0  0.12771999999999994  0.64335  0.3784400000000001  1.0000
  H   H32       1.0  0.8739699999999998  0.35756  0.6215700000000002  1.0000
  C   C1        1.0  0.70949  0.18935  0.26936  1.0000
  C   C2        1.0  0.37844  0.76514  0.97673  1.0000
  C   C3        1.0  0.79661  0.25298  0.21002000000000007  1.0000
  C   C4        1.0  0.77303  0.44661000000000006  0.9930300000000001  1.0000
  C   C5        1.0  0.21513  0.13443  0.8002100000000002  1.0000
  C   C6        1.0  0.4560199999999999  0.25381  0.71  1.0000
  C   C7        1.0  0.28936  0.8096700000000001  0.73161  1.0000
  C   C8        1.0  0.96516  0.9305  0.98955  1.0000
  C   C9        1.0  0.9296099999999999  0.54363  0.59682  1.0000
  C   C10       1.0  0.42383999999999983  0.5824899999999998  0.91173  1.0000
  C   C11       1.0  0.67329  0.05217  0.37763  1.0000
  C   C12       1.0  0.8432199999999999  0.41868000000000005  0.5888200000000002  1.0000
  C   C13       1.0  0.7282399999999998  0.61381  0.050700000000000016  1.0000
  C   C14       1.0  0.91737  0.13336  0.30069  1.0000
  C   C15       1.0  0.22213  0.92972  0.24628000000000003  1.0000
  C   C16       1.0  0.08110000000000002  0.86534  0.7005600000000001  1.0000
  C   C17       1.0  0.61369  0.54203  0.09696  1.0000
  C   C18       1.0  0.61323  0.23642  0.52474  1.0000
  C   C19       1.0  0.47898999999999997  0.18999  0.76937  1.0000
  C   C20       1.0  0.9653699999999996  0.9306399999999998  0.48973  1.0000
  C   C21       1.0  0.54418  0.74676  0.29017  1.0000
  C   C22       1.0  0.7072899999999999  0.9310299999999999  0.7451700000000002  1.0000
  C   C23       1.0  0.2889399999999999  0.63003  0.4635400000000001  1.0000
  C   C24       1.0  0.67513  0.44789  0.49313000000000007  1.0000
  C   C25       1.0  0.62129  0.23474  0.023490000000000007  1.0000
  C   C26       1.0  0.001910000000000042  0.80149  0.76203  1.0000
  C   C27       1.0  0.19996  0.19831  0.7386500000000003  1.0000
  C   C28       1.0  0.7851  0.86572  0.19980000000000003  1.0000
  C   C29       1.0  0.7693  0.12632  0.31518  1.0000
  C   C30       1.0  0.15817  0.58198  0.41111  1.0000
  C   C31       1.0  0.80022  0.80194  0.26144  1.0000
  C   C32       1.0  0.34157  0.63107  0.9642200000000002  1.0000
  C   C33       1.0  0.07156  0.45708  0.4029700000000001  1.0000
  C   C34       1.0  0.52132  0.81054  0.23074  1.0000
  C   C35       1.0  0.71206  0.37013  0.53667  1.0000
  C   C36       1.0  0.22667  0.55321  0.007510000000000002  1.0000
  C   C37       1.0  0.8866099999999999  0.61523  0.55039  1.0000
  C   C38       1.0  0.11408000000000003  0.3852400000000001  0.44941  1.0000
  C   C39       1.0  0.29322  0.07012  0.25725  1.0000
  C   C40       1.0  0.3256299999999999  0.55207  0.50694  1.0000
  C   C41       1.0  0.6580699999999999  0.36871  0.03621000000000001  1.0000
  C   C42       1.0  0.03492  0.06947  0.010600000000000004  1.0000
  C   C43       1.0  0.35591  0.12708  0.81496  1.0000
  C   C44       1.0  0.37699  0.05247000000000003  0.8773600000000003  1.0000
  C   C45       1.0  0.64437  0.8731799999999998  0.18505  1.0000
  C   C46       1.0  0.32399999999999995  0.9469599999999999  0.62344  1.0000
  C   C47       1.0  0.9967799999999998  0.19705  0.23915  1.0000
  C   C48       1.0  0.38714000000000004  0.7636800000000001  0.4767  1.0000
  C   C49       1.0  0.27125  0.38592999999999994  0.94992  1.0000
  C   C50       1.0  0.22915999999999984  0.8725599999999999  0.68595  1.0000
  C   C51       1.0  0.77824  0.07149000000000004  0.7550800000000002  1.0000
  C   C52       1.0  0.6231  0.94761  0.12259000000000002  1.0000
  C   C53       1.0  0.03279  0.06961  0.51042  1.0000
  C   C54       1.0  0.38565999999999995  0.45758999999999994  0.9035100000000003  1.0000
  C   C55       1.0  0.2023399999999999  0.74578  0.79087  1.0000
  C   C56       1.0  0.5756599999999998  0.41714  0.08869  1.0000
  N   N1        1.0  0.80618  0.56683  0.999  1.0000
  N   N2        1.0  0.31844  0.25663  0.69333  1.0000
  N   N3        1.0  0.7619799999999998  0.56802  0.49862  1.0000
  N   N4        1.0  0.23853000000000002  0.43204000000000004  0.5013  1.0000
  N   N5        1.0  0.93699  0.25548  0.19358000000000006  1.0000
  N   N6        1.0  0.19347000000000003  0.43296000000000007  0.00173  1.0000
  N   N7        1.0  0.6817  0.74379  0.3068  1.0000
  N   N8        1.0  0.061889999999999945  0.7429799999999999  0.8073900000000003  1.0000
  O   O1        1.0  0.4634199999999999  0.9615299999999999  0.6234  1.0000
  O   O2        1.0  0.5019  0.03786  0.87651  1.0000
  O   O3        1.0  0.5084  0.83344  0.9559000000000002  1.0000
  O   O4        1.0  0.8191499999999999  0.12540000000000004  0.8264400000000002  1.0000
  O   O5        1.0  0.73793  0.01001  0.42517  1.0000
  O   O6        1.0  0.67407  0.16661000000000006  0.5440900000000002  1.0000
  O   O7        1.0  0.32656  0.83327  0.45644000000000007  1.0000
  O   O8        1.0  0.49818  0.9621799999999999  0.12340000000000001  1.0000
  O   O9        1.0  0.8389000000000001  0.8727400000000001  0.52036  1.0000
  O   O10       1.0  0.15979  0.12751  0.4802400000000001  1.0000
  O   O11       1.0  0.9660199999999999  0.12719  0.97976  1.0000
  O   O12       1.0  0.20946  0.87831  0.30953  1.0000
  O   O13       1.0  0.52143  0.7952  0.50769  1.0000
  O   O14       1.0  0.49126999999999993  0.16638  0.04422  1.0000
  O   O15       1.0  0.79036  0.12162  0.69121  1.0000
  O   O16       1.0  0.0341199999999999  0.87275  0.020260000000000007  1.0000
  O   O17       1.0  0.18121  0.87719  0.1744  1.0000
  O   O18       1.0  0.33309  0.12129  0.1939  1.0000
  O   O19       1.0  0.53429  0.03889000000000001  0.3769700000000001  1.0000
  O   O20       1.0  0.72313  0.20194  0.9924700000000001  1.0000
  O   O21       1.0  0.72974  0.9888699999999999  0.07488  1.0000
  O   O22       1.0  0.3054  0.12281  0.32904  1.0000
  O   O23       1.0  0.25774  0.9884299999999999  0.57614  1.0000
  O   O24       1.0  0.27028  0.01111000000000001  0.92498  1.0000
  O   O25       1.0  0.47736  0.20491999999999996  0.49590000000000006  1.0000
  O   O26       1.0  0.15405  0.11663999999999998  0.05682  1.0000
  O   O27       1.0  0.95934  0.11661  0.55583  1.0000
  O   O28       1.0  0.84598  0.8833  0.9433700000000003  1.0000
  O   O29       1.0  0.03863000000000004  0.88348  0.44429  1.0000
  O   O30       1.0  0.69471  0.87696  0.67386  1.0000
  O   O31       1.0  0.2766  0.79809  0.00759  1.0000
  O   O32       1.0  0.6675199999999998  0.8808099999999999  0.8088000000000002  1.0000
