data_image0
_chemical_formula_structural       Zn4P2H40C48N16O8
_chemical_formula_sum              "Zn4 P2 H40 C48 N16 O8"
_cell_length_a       8.37381
_cell_length_b       12.67037
_cell_length_c       15.15904
_cell_angle_alpha    92.01774999999999
_cell_angle_beta     94.44571
_cell_angle_gamma    107.07369999999999

_space_group_name_H-M_alt    "P 1"
_space_group_IT_number       1

loop_
  _space_group_symop_operation_xyz
  'x, y, z'

loop_
  _atom_site_type_symbol
  _atom_site_label
  _atom_site_symmetry_multiplicity
  _atom_site_fract_x
  _atom_site_fract_y
  _atom_site_fract_z
  _atom_site_occupancy
  Zn  Zn1       1.0  0.603  0.55888  0.637  1.0000
  Zn  Zn2       1.0  0.011689999999999976  0.39378  0.58255  1.0000
  Zn  Zn3       1.0  0.3970000000000001  0.44111999999999996  0.3630000000000001  1.0000
  Zn  Zn4       1.0  0.9883099999999999  0.60621  0.4174400000000001  1.0000
  P   P1        1.0  0.70711  0.44532  0.48238000000000003  1.0000
  P   P2        1.0  0.29289  0.55468  0.51761  1.0000
  H   H1        1.0  0.99226  0.6775099999999997  0.5965  1.0000
  H   H2        1.0  0.68495  0.7731199999999999  0.77243  1.0000
  H   H3        1.0  0.9840699999999999  0.94122  0.7759  1.0000
  H   H4        1.0  0.17027000000000006  0.05000000000000001  0.6993900000000002  1.0000
  H   H5        1.0  0.45178  0.15731  0.6711  1.0000
  H   H6        1.0  0.5497799999999998  0.8556199999999998  0.57838  1.0000
  H   H7        1.0  0.27165  0.74992  0.6084  1.0000
  H   H8        1.0  0.65966  0.24552000000000002  0.6019100000000002  1.0000
  H   H9        1.0  0.08826000000000005  0.14054  0.5787800000000002  1.0000
  H   H10       1.0  0.8199999999999997  0.9561399999999995  0.59634  1.0000
  H   H11       1.0  0.5499  0.58189  0.8573500000000001  1.0000
  H   H12       1.0  0.37111000000000005  0.3261  0.6567400000000002  1.0000
  H   H13       1.0  0.19709999999999997  0.26347999999999994  0.80534  1.0000
  H   H14       1.0  0.19101000000000004  0.25549  0.9532200000000002  1.0000
  H   H15       1.0  0.05536  0.27359  0.08922000000000001  1.0000
  H   H16       1.0  0.24332000000000006  0.62936  0.08776000000000002  1.0000
  H   H17       1.0  0.38732000000000005  0.61207  0.9553200000000002  1.0000
  H   H18       1.0  0.22281000000000004  0.60393  0.24753000000000003  1.0000
  H   H19       1.0  0.74493  0.40332999999999997  0.30285  1.0000
  H   H20       1.0  0.82556  0.32527  0.14352  1.0000
  H   H21       1.0  0.007739999999999996  0.32248  0.4035  1.0000
  H   H22       1.0  0.31504000000000004  0.22687999999999997  0.22757  1.0000
  H   H23       1.0  0.015920000000000007  0.05878  0.22410000000000005  1.0000
  H   H24       1.0  0.8297199999999999  0.9499999999999998  0.30061  1.0000
  H   H25       1.0  0.54822  0.84269  0.3289  1.0000
  H   H26       1.0  0.45021  0.14437  0.4216100000000001  1.0000
  H   H27       1.0  0.7283499999999999  0.2500699999999999  0.3916  1.0000
  H   H28       1.0  0.34033  0.75448  0.39809  1.0000
  H   H29       1.0  0.91173  0.85945  0.4212200000000001  1.0000
  H   H30       1.0  0.17999  0.04386  0.40366  1.0000
  H   H31       1.0  0.45009  0.4181099999999999  0.14265  1.0000
  H   H32       1.0  0.62888  0.67389  0.34326  1.0000
  H   H33       1.0  0.80289  0.73651  0.19466  1.0000
  H   H34       1.0  0.80899  0.7444999999999999  0.046780000000000016  1.0000
  H   H35       1.0  0.9446399999999999  0.7264  0.91077  1.0000
  H   H36       1.0  0.75667  0.37063  0.9122400000000003  1.0000
  H   H37       1.0  0.61267  0.38792  0.044680000000000004  1.0000
  H   H38       1.0  0.77718  0.39607  0.7524700000000002  1.0000
  H   H39       1.0  0.25507  0.59666  0.6971400000000002  1.0000
  H   H40       1.0  0.17443999999999996  0.6747299999999999  0.85647  1.0000
  C   C1        1.0  0.94713  0.7255  0.6439100000000002  1.0000
  C   C2        1.0  0.79354  0.7779199999999997  0.7367800000000002  1.0000
  C   C3        1.0  0.9407399999999999  0.8623299999999999  0.73871  1.0000
  C   C4        1.0  0.20029999999999995  0.8914599999999999  0.65829  1.0000
  C   C5        1.0  0.25338000000000005  0.007000000000000015  0.6738700000000002  1.0000
  C   C6        1.0  0.41297  0.0685  0.65604  1.0000
  C   C7        1.0  0.52383  0.01568  0.62185  1.0000
  C   C8        1.0  0.46956  0.90004  0.60534  1.0000
  C   C9        1.0  0.3098600000000001  0.83879  0.6232800000000002  1.0000
  C   C10       1.0  0.74033  0.19254  0.6018900000000003  1.0000
  C   C11       1.0  0.9594  0.13511  0.58814  1.0000
  C   C12       1.0  0.8265600000000003  0.04243000000000001  0.5952900000000001  1.0000
  C   C13       1.0  0.47565  0.50573  0.8218300000000002  1.0000
  C   C14       1.0  0.38413  0.36775  0.7217400000000003  1.0000
  C   C15       1.0  0.29818  0.33622  0.79476  1.0000
  C   C16       1.0  0.2959499999999999  0.4322399999999999  0.94235  1.0000
  C   C17       1.0  0.20128999999999997  0.3375  0.9816700000000002  1.0000
  C   C18       1.0  0.12321000000000001  0.34721  0.05787  1.0000
  C   C19       1.0  0.13643  0.45305  0.09674  1.0000
  C   C20       1.0  0.23338000000000006  0.54767  0.05879  1.0000
  C   C21       1.0  0.31438  0.53807  0.98401  1.0000
  C   C22       1.0  0.10158000000000005  0.54195  0.24087  1.0000
  C   C23       1.0  0.85531  0.43345  0.26725000000000004  1.0000
  C   C24       1.0  0.89437  0.39335  0.18935000000000002  1.0000
  C   C25       1.0  0.052860000000000004  0.2745  0.3560800000000001  1.0000
  C   C26       1.0  0.20645  0.22207  0.26322  1.0000
  C   C27       1.0  0.05926000000000003  0.13767000000000001  0.26129  1.0000
  C   C28       1.0  0.79969  0.10853999999999997  0.3417  1.0000
  C   C29       1.0  0.7466199999999998  0.9929999999999998  0.32612000000000013  1.0000
  C   C30       1.0  0.58703  0.93149  0.34395  1.0000
  C   C31       1.0  0.47617  0.9843099999999998  0.37814000000000003  1.0000
  C   C32       1.0  0.53043  0.09995  0.39466  1.0000
  C   C33       1.0  0.69013  0.16121  0.3767200000000001  1.0000
  C   C34       1.0  0.25966  0.80746  0.39811000000000013  1.0000
  C   C35       1.0  0.040590000000000015  0.86489  0.4118600000000001  1.0000
  C   C36       1.0  0.17343999999999993  0.9575599999999999  0.4047100000000001  1.0000
  C   C37       1.0  0.5243400000000001  0.49427  0.17817000000000005  1.0000
  C   C38       1.0  0.6158699999999999  0.6322499999999999  0.27825  1.0000
  C   C39       1.0  0.7018100000000003  0.66377  0.20524000000000006  1.0000
  C   C40       1.0  0.70405  0.56776  0.057640000000000004  1.0000
  C   C41       1.0  0.7987  0.6624899999999999  0.01833  1.0000
  C   C42       1.0  0.8767800000000002  0.65278  0.94213  1.0000
  C   C43       1.0  0.8635700000000004  0.5469500000000002  0.9032600000000002  1.0000
  C   C44       1.0  0.76662  0.4523199999999999  0.94121  1.0000
  C   C45       1.0  0.68562  0.46192  0.01599  1.0000
  C   C46       1.0  0.89841  0.45804  0.75912  1.0000
  C   C47       1.0  0.14467999999999998  0.56654  0.73275  1.0000
  C   C48       1.0  0.10563  0.60665  0.8106500000000002  1.0000
  N   N1        1.0  0.79895  0.69325  0.6781000000000003  1.0000
  N   N2        1.0  0.03784000000000002  0.82896  0.6788600000000002  1.0000
  N   N3        1.0  0.68724  0.07958999999999997  0.60572  1.0000
  N   N4        1.0  0.90519  0.22781  0.59327  1.0000
  N   N5        1.0  0.49379999999999996  0.47276999999999997  0.73907  1.0000
  N   N6        1.0  0.35733  0.42425  0.85903  1.0000
  N   N7        1.0  0.05025999999999999  0.46297  0.17215  1.0000
  N   N8        1.0  0.98512  0.5261  0.29895000000000005  1.0000
  N   N9        1.0  0.20104  0.30674  0.32189000000000006  1.0000
  N   N10       1.0  0.9621600000000001  0.17103  0.32114000000000004  1.0000
  N   N11       1.0  0.3127499999999999  0.9203999999999999  0.39428  1.0000
  N   N12       1.0  0.09479999999999998  0.77218  0.40673  1.0000
  N   N13       1.0  0.50619  0.52722  0.26092  1.0000
  N   N14       1.0  0.64267  0.57574  0.14097000000000007  1.0000
  N   N15       1.0  0.94973  0.53702  0.82784  1.0000
  N   N16       1.0  0.014869999999999953  0.4738999999999999  0.70104  1.0000
  O   O1        1.0  0.85792  0.39729  0.47749000000000014  1.0000
  O   O2        1.0  0.64995  0.43463  0.57773  1.0000
  O   O3        1.0  0.5644999999999999  0.3755899999999999  0.41332  1.0000
  O   O4        1.0  0.76371  0.56988  0.45992  1.0000
  O   O5        1.0  0.1420799999999999  0.60271  0.5225  1.0000
  O   O6        1.0  0.35005  0.56537  0.42226  1.0000
  O   O7        1.0  0.43548999999999993  0.6244  0.58667  1.0000
  O   O8        1.0  0.23629  0.43011  0.54008  1.0000
