data_image0
_chemical_formula_structural       Ni2H52C70N4O12
_chemical_formula_sum              "Ni2 H52 C70 N4 O12"
_cell_length_a       13.41786
_cell_length_b       12.58629
_cell_length_c       12.57881
_cell_angle_alpha    82.67908
_cell_angle_beta     60.48223
_cell_angle_gamma    60.43662

_symmetry_space_group_name_H-M    'P 1'
_symmetry_Int_Tables_number       1

loop_
  _symmetry_equiv_pos_as_xyz
  'x,y,z'

loop_
  _atom_site_type_symbol
  _atom_site_label
  _atom_site_symmetry_multiplicity
  _atom_site_fract_x
  _atom_site_fract_y
  _atom_site_fract_z
  _atom_site_occupancy
  Ni  Ni1       1.0  0.49932000000000004  3.999999999999664e-05  0.99978  1.0000
  Ni  Ni2       1.0  0.99933  0.9997900000000001  0.0  1.0000
  H   H1        1.0  0.47589000000000004  0.30263  0.17121  1.0000
  H   H2        1.0  0.21352999999999994  0.14777000000000004  0.37231000000000003  1.0000
  H   H3        1.0  0.011269999999999936  0.20863  0.5727000000000001  1.0000
  H   H4        1.0  0.83655  0.3534  0.7697300000000001  1.0000
  H   H5        1.0  0.8467899999999999  0.53475  0.81378  1.0000
  H   H6        1.0  0.03007000000000003  0.56912  0.6661  1.0000
  H   H7        1.0  0.33654  0.52936  0.38156000000000007  1.0000
  H   H8        1.0  0.51136  0.8759799999999999  0.20383  1.0000
  H   H9        1.0  0.68188  0.69057  0.23307  1.0000
  H   H10       1.0  0.9642399999999999  0.66766  0.8546600000000001  1.0000
  H   H11       1.0  0.78467  0.85449  0.84064  1.0000
  H   H12       1.0  0.89019  0.49456  0.12255  1.0000
  H   H13       1.0  0.9759999999999999  0.5685  0.11068  1.0000
  H   H14       1.0  0.02351999999999995  0.82818  0.69692  1.0000
  H   H15       1.0  0.28640999999999994  0.62761  0.85172  1.0000
  H   H16       1.0  0.4889099999999999  0.42714000000000013  0.7910600000000001  1.0000
  H   H17       1.0  0.6636599999999999  0.23009  0.64642  1.0000
  H   H18       1.0  0.65357  0.18586000000000003  0.4649  1.0000
  H   H19       1.0  0.4700199999999998  0.33353000000000005  0.4305700000000001  1.0000
  H   H20       1.0  0.16397999999999996  0.61787  0.4694700000000001  1.0000
  H   H21       1.0  0.9878999999999999  0.7959100000000002  0.12392000000000002  1.0000
  H   H22       1.0  0.8181  0.76674  0.30992  1.0000
  H   H23       1.0  0.53493  0.14531  0.33287  1.0000
  H   H24       1.0  0.71419  0.15907  0.14553  1.0000
  H   H25       1.0  0.6094800000000001  0.87737  0.50611  1.0000
  H   H26       1.0  0.5237099999999998  0.88922  0.43204000000000004  1.0000
  H   H27       1.0  0.5240799999999999  0.69686  0.8285100000000001  1.0000
  H   H28       1.0  0.78614  0.85208  0.62773  1.0000
  H   H29       1.0  0.9886400000000001  0.79126  0.42740000000000006  1.0000
  H   H30       1.0  0.16341000000000003  0.6466699999999999  0.23028  1.0000
  H   H31       1.0  0.15339999999999995  0.46524000000000004  0.18602  1.0000
  H   H32       1.0  0.9702099999999998  0.43066  0.3336  1.0000
  H   H33       1.0  0.66374  0.4702  0.61802  1.0000
  H   H34       1.0  0.4877  0.12398000000000003  0.7960700000000002  1.0000
  H   H35       1.0  0.31756000000000006  0.31008  0.76703  1.0000
  H   H36       1.0  0.03496000000000001  0.33313  0.14529  1.0000
  H   H37       1.0  0.21410000000000004  0.14562  0.15914  1.0000
  H   H38       1.0  0.10936000000000001  0.50608  0.8773600000000001  1.0000
  H   H39       1.0  0.023409999999999886  0.4322500000000001  0.8892700000000001  1.0000
  H   H40       1.0  0.9764599999999999  0.17153  0.30252  1.0000
  H   H41       1.0  0.7132499999999998  0.37245  0.14812000000000003  1.0000
  H   H42       1.0  0.511  0.57296  0.20883  1.0000
  H   H43       1.0  0.3363  0.76993  0.3536500000000001  1.0000
  H   H44       1.0  0.34662  0.81395  0.53509  1.0000
  H   H45       1.0  0.53026  0.66617  0.5692  1.0000
  H   H46       1.0  0.8363  0.38171000000000005  0.53008  1.0000
  H   H47       1.0  0.011179999999999933  0.20401000000000002  0.8760200000000001  1.0000
  H   H48       1.0  0.18135999999999994  0.23337000000000002  0.6907000000000001  1.0000
  H   H49       1.0  0.46427999999999997  0.85464  0.66791  1.0000
  H   H50       1.0  0.28458  0.8407300000000001  0.8545800000000001  1.0000
  H   H51       1.0  0.39008  0.12254  0.49452000000000007  1.0000
  H   H52       1.0  0.47570999999999997  0.11073  0.5687  1.0000
  C   C1        1.0  0.41797  0.16745  0.18206  1.0000
  C   C2        1.0  0.22013999999999992  0.22448000000000004  0.3933900000000001  1.0000
  C   C3        1.0  0.32192  0.24447  0.3062  1.0000
  C   C4        1.0  0.33074  0.34588  0.3336  1.0000
  C   C5        1.0  0.23947000000000004  0.4244299999999999  0.4468500000000001  1.0000
  C   C6        1.0  0.13245999999999994  0.40591  0.53393  1.0000
  C   C7        1.0  0.12352  0.30375  0.50744  1.0000
  C   C8        1.0  0.016139999999999932  0.28624000000000005  0.5948600000000002  1.0000
  C   C9        1.0  0.9191699999999996  0.36665  0.70423  1.0000
  C   C10       1.0  0.92561  0.46901  0.7293  1.0000
  C   C11       1.0  0.029130000000000114  0.4880699999999999  0.64681  1.0000
  C   C12       1.0  0.6130299999999999  0.82686  0.12922  1.0000
  C   C13       1.0  0.70927  0.72329  0.14418  1.0000
  C   C14       1.0  0.83884  0.65946  0.04492  1.0000
  C   C15       1.0  0.8657099999999995  0.70986  0.9349800000000001  1.0000
  C   C16       1.0  0.7657699999999997  0.8151500000000002  0.92575  1.0000
  C   C17       1.0  0.9407699999999999  0.54315  0.06049000000000001  1.0000
  C   C18       1.0  0.08145999999999996  0.81757  0.8322600000000001  1.0000
  C   C19       1.0  0.27977  0.6065099999999999  0.77502  1.0000
  C   C20       1.0  0.17781999999999992  0.6935900000000002  0.7551  1.0000
  C   C21       1.0  0.16898000000000007  0.66614  0.65365  1.0000
  C   C22       1.0  0.2605100000000001  0.55281  0.57522  1.0000
  C   C23       1.0  0.36762  0.4657400000000001  0.59375  1.0000
  C   C24       1.0  0.37668999999999997  0.49249  0.69572  1.0000
  C   C25       1.0  0.4840600000000001  0.40503000000000006  0.71339  1.0000
  C   C26       1.0  0.5811099999999999  0.2956500000000001  0.633  1.0000
  C   C27       1.0  0.5747700000000001  0.27041  0.5305800000000002  1.0000
  C   C28       1.0  0.47107999999999994  0.35286  0.51156  1.0000
  C   C29       1.0  0.88618  0.8705600000000001  0.17328  1.0000
  C   C30       1.0  0.7903100000000002  0.8556399999999998  0.27721  1.0000
  C   C31       1.0  0.6606699999999999  0.95495  0.34118  1.0000
  C   C32       1.0  0.6334499999999998  0.06491  0.29071  1.0000
  C   C33       1.0  0.73308  0.07406  0.18513000000000002  1.0000
  C   C34       1.0  0.5587799999999999  0.93945  0.4575600000000001  1.0000
  C   C35       1.0  0.58158  0.83237  0.8176200000000001  1.0000
  C   C36       1.0  0.7797099999999997  0.77528  0.6065500000000001  1.0000
  C   C37       1.0  0.6778999999999998  0.75525  0.69359  1.0000
  C   C38       1.0  0.6692800000000001  0.65374  0.66614  1.0000
  C   C39       1.0  0.76071  0.5752  0.55289  1.0000
  C   C40       1.0  0.8676699999999999  0.59382  0.46590000000000004  1.0000
  C   C41       1.0  0.8764900000000001  0.69602  0.49251000000000006  1.0000
  C   C42       1.0  0.98382  0.71364  0.40517  1.0000
  C   C43       1.0  0.08084  0.63332  0.29574  1.0000
  C   C44       1.0  0.07453000000000001  0.5309  0.27055  1.0000
  C   C45       1.0  0.97107  0.51173  0.35298000000000007  1.0000
  C   C46       1.0  0.38602  0.17334  0.87062  1.0000
  C   C47       1.0  0.28998999999999997  0.27729000000000004  0.8558400000000002  1.0000
  C   C48       1.0  0.16046999999999992  0.34125  0.9550800000000002  1.0000
  C   C49       1.0  0.13344  0.29075  0.06496  1.0000
  C   C50       1.0  0.23312000000000002  0.18509  0.07409  1.0000
  C   C51       1.0  0.058659999999999934  0.4576  0.93946  1.0000
  C   C52       1.0  0.91812  0.18212  0.16748  1.0000
  C   C53       1.0  0.7200799999999999  0.39344  0.22473000000000004  1.0000
  C   C54       1.0  0.82203  0.3062  0.24457000000000004  1.0000
  C   C55       1.0  0.83105  0.33359  0.34593  1.0000
  C   C56       1.0  0.73967  0.44692  0.4244  1.0000
  C   C57       1.0  0.63251  0.53409  0.40598000000000006  1.0000
  C   C58       1.0  0.62331  0.50746  0.30405  1.0000
  C   C59       1.0  0.51589  0.59499  0.28649  1.0000
  C   C60       1.0  0.4188999999999999  0.70433  0.36697  1.0000
  C   C61       1.0  0.4253799999999999  0.72945  0.46934  1.0000
  C   C62       1.0  0.52913  0.64693  0.48824  1.0000
  C   C63       1.0  0.11288999999999996  0.12931  0.82688  1.0000
  C   C64       1.0  0.2089700000000001  0.14439  0.72334  1.0000
  C   C65       1.0  0.33865999999999996  0.04506  0.65951  1.0000
  C   C66       1.0  0.36571000000000004  0.93504  0.70988  1.0000
  C   C67       1.0  0.2658200000000001  0.92579  0.81509  1.0000
  C   C68       1.0  0.44066  0.0605  0.54318  1.0000
  C   C69       1.0  0.25010999999999994  0.53411  0.46537000000000006  1.0000
  C   C70       1.0  0.75016  0.46549000000000007  0.53424  1.0000
  N   N1        1.0  0.63955  0.87165  0.02048  1.0000
  N   N2        1.0  0.8592599999999999  0.97922  0.12837  1.0000
  N   N3        1.0  0.35925  0.12838000000000002  0.9792600000000001  1.0000
  N   N4        1.0  0.1395599999999999  0.02054000000000003  0.8716200000000001  1.0000
  O   O1        1.0  0.40826  0.07398  0.16454  1.0000
  O   O2        1.0  0.50102  0.19539  0.09908  1.0000
  O   O3        1.0  0.43016  0.36549  0.24761  1.0000
  O   O4        1.0  0.09073999999999989  0.83531  0.9260100000000001  1.0000
  O   O5        1.0  0.9981200000000001  0.90016  0.80433  1.0000
  O   O6        1.0  0.06950000000000005  0.75188  0.63383  1.0000
  O   O7        1.0  0.5907999999999999  0.92622  0.83504  1.0000
  O   O8        1.0  0.4987599999999998  0.80427  0.90068  1.0000
  O   O9        1.0  0.5698400000000001  0.63409  0.75204  1.0000
  O   O10       1.0  0.90835  0.16432  0.07408  1.0000
  O   O11       1.0  0.0016499999999999894  0.09960000000000001  0.19524  1.0000
  O   O12       1.0  0.9305000000000001  0.24775000000000003  0.36572  1.0000
