data_image0
_chemical_formula_structural       Gd2H54C60N6O12
_chemical_formula_sum              "Gd2 H54 C60 N6 O12"
_cell_length_a       9.32943
_cell_length_b       12.880270000000001
_cell_length_c       18.74134
_cell_angle_alpha    108.19932
_cell_angle_beta     97.34664999999998
_cell_angle_gamma    98.23536000000001

_space_group_name_H-M_alt    "P 1"
_space_group_IT_number       1

loop_
  _space_group_symop_operation_xyz
  'x, y, z'

loop_
  _atom_site_type_symbol
  _atom_site_label
  _atom_site_symmetry_multiplicity
  _atom_site_fract_x
  _atom_site_fract_y
  _atom_site_fract_z
  _atom_site_occupancy
  Gd  Gd1       1.0  0.20981  0.012190000000000008  0.50601  1.0000
  Gd  Gd2       1.0  0.7921599999999999  0.98712  0.49451  1.0000
  H   H1        1.0  0.7881  0.09486000000000007  0.74005  1.0000
  H   H2        1.0  0.7831999999999999  0.17009  0.87869  1.0000
  H   H3        1.0  0.75304  0.10213000000000004  0.2855100000000001  1.0000
  H   H4        1.0  0.3239900000000001  0.10338000000000012  0.6933300000000002  1.0000
  H   H5        1.0  0.22456000000000012  0.12005000000000002  0.31805  1.0000
  H   H6        1.0  0.68209  0.65664  0.27365  1.0000
  H   H7        1.0  0.15133000000000002  0.7908100000000001  0.33573  1.0000
  H   H8        1.0  0.72662  0.52825  0.15034  1.0000
  H   H9        1.0  0.33182  0.17947  0.8336  1.0000
  H   H10       1.0  0.76281  0.12709  0.15885  1.0000
  H   H11       1.0  0.2203  0.13768000000000002  0.18871  1.0000
  H   H12       1.0  0.94996  0.047790000000000006  0.049980000000000004  1.0000
  H   H13       1.0  0.10829  0.15366  0.08572  1.0000
  H   H14       1.0  0.48431  0.14340000000000008  0.95566  1.0000
  H   H15       1.0  0.4850999999999999  0.2795500000000001  0.95572  1.0000
  H   H16       1.0  0.09580000000000002  0.5328700000000001  0.1016  1.0000
  H   H17       1.0  0.941  0.56786  0.05925  1.0000
  H   H18       1.0  0.1816  0.66194  0.21119000000000004  1.0000
  H   H19       1.0  0.10610999999999998  0.3376200000000001  0.20185  1.0000
  H   H20       1.0  0.15037  0.45731000000000005  0.17672  1.0000
  H   H21       1.0  0.20584000000000002  0.3325400000000001  0.12732000000000004  1.0000
  H   H22       1.0  0.7709499999999998  0.009340000000000006  0.94249  1.0000
  H   H23       1.0  0.59381  0.03259000000000006  0.9556000000000001  1.0000
  H   H24       1.0  0.71243  0.01139  0.02922  1.0000
  H   H25       1.0  0.7515  0.52607  0.00559  1.0000
  H   H26       1.0  0.5854800000000002  0.4551900000000001  0.01755  1.0000
  H   H27       1.0  0.64741  0.4084700000000001  0.92973  1.0000
  H   H28       1.0  0.21199000000000007  0.9047200000000002  0.26052  1.0000
  H   H29       1.0  0.21698  0.8326  0.12203  1.0000
  H   H30       1.0  0.24910000000000002  0.8946300000000003  0.71534  1.0000
  H   H31       1.0  0.67899  0.90461  0.30657  1.0000
  H   H32       1.0  0.77817  0.8789700000000001  0.6812600000000001  1.0000
  H   H33       1.0  0.31888000000000005  0.34452000000000016  0.7266500000000001  1.0000
  H   H34       1.0  0.8501  0.20861  0.66437  1.0000
  H   H35       1.0  0.2738900000000001  0.4718800000000002  0.8500600000000003  1.0000
  H   H36       1.0  0.67133  0.8317000000000001  0.16625  1.0000
  H   H37       1.0  0.2361100000000001  0.8664600000000003  0.8408000000000002  1.0000
  H   H38       1.0  0.77931  0.8593700000000002  0.81007  1.0000
  H   H39       1.0  0.048610000000000035  0.9509800000000002  0.9495000000000001  1.0000
  H   H40       1.0  0.89027  0.84499  0.91398  1.0000
  H   H41       1.0  0.5155499999999998  0.8561400000000001  0.043170000000000014  1.0000
  H   H42       1.0  0.5141800000000001  0.7210600000000001  0.04533  1.0000
  H   H43       1.0  0.90461  0.46598  0.89886  1.0000
  H   H44       1.0  0.05999999999999999  0.43128  0.94094  1.0000
  H   H45       1.0  0.81877  0.3372100000000002  0.7887000000000001  1.0000
  H   H46       1.0  0.8933399999999999  0.6602000000000002  0.79824  1.0000
  H   H47       1.0  0.84869  0.5413600000000001  0.8242000000000002  1.0000
  H   H48       1.0  0.7933400000000002  0.6665600000000003  0.8728  1.0000
  H   H49       1.0  0.22843999999999998  0.9902400000000002  0.05781000000000001  1.0000
  H   H50       1.0  0.40523000000000003  0.9671700000000001  0.04377  1.0000
  H   H51       1.0  0.28500999999999993  0.98796  0.9705400000000001  1.0000
  H   H52       1.0  0.24918  0.4740200000000001  0.9950500000000001  1.0000
  H   H53       1.0  0.4148399999999999  0.5452200000000001  0.98293  1.0000
  H   H54       1.0  0.35307  0.59183  0.07082  1.0000
  C   C1        1.0  0.55802  0.056610000000000056  0.62173  1.0000
  C   C2        1.0  0.55641  0.09391000000000005  0.70389  1.0000
  C   C3        1.0  0.91348  0.7327300000000001  0.3159000000000001  1.0000
  C   C4        1.0  0.98898  0.11005000000000002  0.3131  1.0000
  C   C5        1.0  0.90885  0.21401000000000006  0.06789000000000003  1.0000
  C   C6        1.0  0.6862299999999999  0.11273999999999999  0.759  1.0000
  C   C7        1.0  0.88875  0.8105  0.38595  1.0000
  C   C8        1.0  0.99056  0.09435000000000002  0.38734  1.0000
  C   C9        1.0  0.77107  0.17489  0.018030000000000008  1.0000
  C   C10       1.0  0.68576  0.15353000000000003  0.8356  1.0000
  C   C11       1.0  0.90226  0.40414  0.07105000000000003  1.0000
  C   C12       1.0  0.85711  0.11056000000000003  0.26555  1.0000
  C   C13       1.0  0.42635  0.11745000000000005  0.73293  1.0000
  C   C14       1.0  0.9724899999999999  0.3284400000000001  0.09641000000000002  1.0000
  C   C15       1.0  0.69777  0.25194  0.99664  1.0000
  C   C16       1.0  0.12176000000000002  0.12081000000000007  0.2836900000000001  1.0000
  C   C17       1.0  0.76465  0.3659  0.02098  1.0000
  C   C18       1.0  0.79269  0.6573000000000001  0.2609600000000001  1.0000
  C   C19       1.0  0.0561  0.73247  0.29672  1.0000
  C   C20       1.0  0.81467  0.5878200000000001  0.19321  1.0000
  C   C21       1.0  0.42834000000000005  0.15900000000000006  0.8097000000000001  1.0000
  C   C22       1.0  0.8595499999999999  0.12225000000000003  0.19558000000000003  1.0000
  C   C23       1.0  0.12156999999999998  0.13044  0.21321  1.0000
  C   C24       1.0  0.9922599999999999  0.13283000000000006  0.09016  1.0000
  C   C25       1.0  0.54929  0.21295  0.94427  1.0000
  C   C26       1.0  0.97682  0.52584  0.09923  1.0000
  C   C27       1.0  0.07495999999999996  0.6624  0.22845  1.0000
  C   C28       1.0  0.11578999999999999  0.36679  0.15317  1.0000
  C   C29       1.0  0.70821  0.05112000000000004  0.9851400000000001  1.0000
  C   C30       1.0  0.68434  0.4431600000000001  0.99202  1.0000
  C   C31       1.0  0.44286  0.9416100000000002  0.37872  1.0000
  C   C32       1.0  0.44426  0.9064000000000001  0.29654  1.0000
  C   C33       1.0  0.08773  0.26705  0.68423  1.0000
  C   C34       1.0  0.013639999999999992  0.88923  0.6875800000000001  1.0000
  C   C35       1.0  0.0899300000000001  0.7850700000000004  0.9325600000000001  1.0000
  C   C36       1.0  0.3140800000000001  0.8875900000000001  0.24156  1.0000
  C   C37       1.0  0.11290000000000006  0.1891900000000001  0.6143000000000002  1.0000
  C   C38       1.0  0.011969999999999996  0.90538  0.61348  1.0000
  C   C39       1.0  0.22777999999999995  0.82467  0.98221  1.0000
  C   C40       1.0  0.31461000000000006  0.8485100000000002  0.16488  1.0000
  C   C41       1.0  0.09756000000000002  0.5952700000000002  0.9295100000000001  1.0000
  C   C42       1.0  0.14456000000000013  0.8867300000000005  0.7349600000000002  1.0000
  C   C43       1.0  0.5754  0.8876200000000001  0.26723  1.0000
  C   C44       1.0  0.02664000000000007  0.67062  0.9041300000000002  1.0000
  C   C45       1.0  0.3016  0.7480400000000001  0.0038000000000000004  1.0000
  C   C46       1.0  0.87999  0.8777400000000002  0.71617  1.0000
  C   C47       1.0  0.2351800000000001  0.6339700000000003  0.9795500000000001  1.0000
  C   C48       1.0  0.20819  0.34302  0.73931  1.0000
  C   C49       1.0  0.9450599999999999  0.26701  0.70349  1.0000
  C   C50       1.0  0.18589999999999998  0.41221000000000013  0.80712  1.0000
  C   C51       1.0  0.57369  0.84791  0.19037  1.0000
  C   C52       1.0  0.14045999999999997  0.87349  0.80436  1.0000
  C   C53       1.0  0.8787599999999998  0.8670300000000001  0.78619  1.0000
  C   C54       1.0  0.006430000000000147  0.8656600000000004  0.9097500000000002  1.0000
  C   C55       1.0  0.45036  0.78788  0.055890000000000016  1.0000
  C   C56       1.0  0.02361000000000009  0.47340000000000015  0.9011300000000002  1.0000
  C   C57       1.0  0.9256699999999999  0.33701  0.77169  1.0000
  C   C58       1.0  0.88343  0.63188  0.84727  1.0000
  C   C59       1.0  0.29045  0.94848  0.014740000000000001  1.0000
  C   C60       1.0  0.31604  0.55702  0.008550000000000002  1.0000
  N   N1        1.0  0.55837  0.17943000000000003  0.86266  1.0000
  N   N2        1.0  0.9916800000000002  0.13410000000000005  0.16848000000000002  1.0000
  N   N3        1.0  0.956  0.58738  0.17612  1.0000
  N   N4        1.0  0.44244000000000006  0.8245100000000002  0.13760000000000006  1.0000
  N   N5        1.0  0.0077800000000000325  0.8628600000000001  0.83121  1.0000
  N   N6        1.0  0.044420000000000015  0.4124200000000001  0.82413  1.0000
  O   O1        1.0  0.43566  0.026679999999999995  0.57476  1.0000
  O   O2        1.0  0.6845700000000001  0.05644000000000013  0.6007700000000002  1.0000
  O   O3        1.0  0.8657600000000001  0.06978000000000005  0.4069000000000001  1.0000
  O   O4        1.0  0.75729  0.80933  0.39995  1.0000
  O   O5        1.0  0.11722  0.10384  0.42732  1.0000
  O   O6        1.0  0.9982  0.8850600000000001  0.43242  1.0000
  O   O7        1.0  0.56563  0.97439  0.42558  1.0000
  O   O8        1.0  0.31622  0.93728  0.39982  1.0000
  O   O9        1.0  0.13646000000000005  0.9306200000000002  0.59401  1.0000
  O   O10       1.0  0.24423000000000009  0.19077000000000013  0.6002600000000002  1.0000
  O   O11       1.0  0.8852199999999999  0.89529  0.57341  1.0000
  O   O12       1.0  0.004340000000000017  0.11345  0.56791  1.0000
