data_image0
_chemical_formula_structural       MnCu3H48C66O24
_chemical_formula_sum              "Mn1 Cu3 H48 C66 O24"
_cell_length_a       12.03908
_cell_length_b       15.72015
_cell_length_c       16.72375
_cell_angle_alpha    109.99574999999999
_cell_angle_beta     97.25064
_cell_angle_gamma    108.69574

_symmetry_space_group_name_H-M    'P 1'
_symmetry_Int_Tables_number       1

loop_
  _symmetry_equiv_pos_as_xyz
  'x,y,z'

loop_
  _atom_site_type_symbol
  _atom_site_label
  _atom_site_symmetry_multiplicity
  _atom_site_fract_x
  _atom_site_fract_y
  _atom_site_fract_z
  _atom_site_occupancy
  Mn  Mn1       1.0  0.49999999999999983  0.4999999999999999  0.4999999999999999  1.0000
  Cu  Cu1       1.0  0.8164999999999998  0.63384  0.57044  1.0000
  Cu  Cu2       1.0  0.18349999999999994  0.36616999999999994  0.4295599999999999  1.0000
  Cu  Cu3       1.0  0.0  0.50002  0.4999999999999999  1.0000
  H   H1        1.0  0.2715899999999999  0.59982  0.90749  1.0000
  H   H2        1.0  0.55169  0.79209  0.02516  1.0000
  H   H3        1.0  0.6860099999999999  0.88683  0.10561999999999998  1.0000
  H   H4        1.0  0.8318299999999998  0.8719  0.7998499999999998  1.0000
  H   H5        1.0  0.58126  0.055889999999999995  0.13173  1.0000
  H   H6        1.0  0.67743  0.03543999999999997  0.20760999999999993  1.0000
  H   H7        1.0  0.4603099999999999  0.77224  0.14391  1.0000
  H   H8        1.0  0.43925999999999993  0.87202  0.22329  1.0000
  H   H9        1.0  0.84453  0.81122  0.42805  1.0000
  H   H10       1.0  0.8157399999999999  0.90834  0.3408799999999999  1.0000
  H   H11       1.0  0.20569999999999986  0.8646199999999999  0.9551  1.0000
  H   H12       1.0  0.8101299999999999  0.9701999999999998  0.9474799999999998  1.0000
  H   H13       1.0  0.1259099999999999  0.51996  0.7570899999999998  1.0000
  H   H14       1.0  0.40428999999999987  0.91775  0.01895  1.0000
  H   H15       1.0  0.3356399999999998  0.9074  0.10583999999999998  1.0000
  H   H16       1.0  0.44926  0.7534699999999999  0.8854199999999998  1.0000
  H   H17       1.0  0.4726499999999999  0.6571099999999999  0.7393799999999999  1.0000
  H   H18       1.0  0.79781  0.36476  0.34292  1.0000
  H   H19       1.0  0.4526099999999998  0.12007999999999994  0.3804599999999999  1.0000
  H   H20       1.0  0.5437599999999999  0.29447999999999985  0.4914599999999999  1.0000
  H   H21       1.0  0.4630899999999999  0.6321999999999999  0.3352699999999999  1.0000
  H   H22       1.0  0.7134699999999998  0.19328  0.23453  1.0000
  H   H23       1.0  0.4315499999999998  0.7287199999999999  0.25023  1.0000
  H   H24       1.0  0.05511999999999993  0.78147  0.8075599999999997  1.0000
  H   H25       1.0  0.7284099999999999  0.40018  0.09250999999999998  1.0000
  H   H26       1.0  0.44832  0.20792000000000005  0.97484  1.0000
  H   H27       1.0  0.314  0.11318  0.89439  1.0000
  H   H28       1.0  0.16817999999999994  0.12810999999999995  0.20014999999999994  1.0000
  H   H29       1.0  0.41874999999999996  0.94412  0.8682699999999998  1.0000
  H   H30       1.0  0.32258  0.96457  0.7924  1.0000
  H   H31       1.0  0.5396899999999998  0.22775999999999988  0.8560899999999998  1.0000
  H   H32       1.0  0.5607499999999999  0.12798999999999988  0.7767099999999998  1.0000
  H   H33       1.0  0.15548  0.18878  0.57196  1.0000
  H   H34       1.0  0.18426  0.09166  0.65913  1.0000
  H   H35       1.0  0.7943099999999997  0.13539  0.044909999999999985  1.0000
  H   H36       1.0  0.18987000000000004  0.0298  0.05252  1.0000
  H   H37       1.0  0.8741  0.48005  0.24291  1.0000
  H   H38       1.0  0.59571  0.08224999999999995  0.9810599999999999  1.0000
  H   H39       1.0  0.6643699999999999  0.09260999999999989  0.8941599999999997  1.0000
  H   H40       1.0  0.55075  0.24653  0.11458  1.0000
  H   H41       1.0  0.52735  0.34289  0.26062999999999986  1.0000
  H   H42       1.0  0.2021999999999999  0.63524  0.6570799999999998  1.0000
  H   H43       1.0  0.5473899999999999  0.8799300000000001  0.61954  1.0000
  H   H44       1.0  0.4562499999999999  0.70553  0.50855  1.0000
  H   H45       1.0  0.5369099999999998  0.3677999999999999  0.6647299999999998  1.0000
  H   H46       1.0  0.2865399999999999  0.8067199999999999  0.7654699999999998  1.0000
  H   H47       1.0  0.5684599999999999  0.27128  0.7497699999999998  1.0000
  H   H48       1.0  0.9448899999999999  0.21855  0.19244999999999995  1.0000
  C   C1        1.0  0.22338999999999992  0.63859  0.8846899999999998  1.0000
  C   C2        1.0  0.66594  0.69701  0.67493  1.0000
  C   C3        1.0  0.007989999999999964  0.60667  0.6805799999999997  1.0000
  C   C4        1.0  0.6538099999999999  0.7586199999999999  0.7614899999999998  1.0000
  C   C5        1.0  0.51824  0.90626  0.12274  1.0000
  C   C6        1.0  0.5974  0.87156  0.06439  1.0000
  C   C7        1.0  0.7486299999999999  0.84748  0.81957  1.0000
  C   C8        1.0  0.58245  0.017509999999999998  0.17567  1.0000
  C   C9        1.0  0.5005999999999999  0.8518399999999998  0.18395999999999998  1.0000
  C   C10       1.0  0.7298499999999999  0.44407  0.4851499999999999  1.0000
  C   C11       1.0  0.75507  0.79368  0.38823  1.0000
  C   C12       1.0  0.7394700000000001  0.8476700000000001  0.34022  1.0000
  C   C13       1.0  0.24894999999999995  0.73695  0.9395099999999997  1.0000
  C   C14       1.0  0.18732999999999994  0.78892  0.9129  1.0000
  C   C15       1.0  0.6230299999999999  0.8236000000000001  0.28898  1.0000
  C   C16       1.0  0.73651  0.90203  0.90125  1.0000
  C   C17       1.0  0.14205  0.59437  0.8017  1.0000
  C   C18       1.0  0.39286  0.88183  0.06506999999999999  1.0000
  C   C19       1.0  0.5333  0.77903  0.86708  1.0000
  C   C20       1.0  0.5460299999999999  0.7252699999999999  0.7857199999999998  1.0000
  C   C21       1.0  0.72674  0.30978  0.35296  1.0000
  C   C22       1.0  0.6553899999999999  0.71489  0.38602999999999993  1.0000
  C   C23       1.0  0.08206999999999988  0.6463899999999998  0.7731699999999998  1.0000
  C   C24       1.0  0.62897  0.867  0.92507  1.0000
  C   C25       1.0  0.6708  0.6555699999999999  0.4363999999999999  1.0000
  C   C26       1.0  0.6811699999999998  0.3400599999999999  0.4258899999999999  1.0000
  C   C27       1.0  0.53014  0.1741  0.37414  1.0000
  C   C28       1.0  0.5812199999999997  0.27091  0.4358  1.0000
  C   C29       1.0  0.5780899999999997  0.14473999999999995  0.3015199999999999  1.0000
  C   C30       1.0  0.5395899999999997  0.6928299999999996  0.3359899999999999  1.0000
  C   C31       1.0  0.6772099999999999  0.21304  0.29119  1.0000
  C   C32       1.0  0.5223699999999998  0.7468199999999998  0.2878999999999999  1.0000
  C   C33       1.0  0.10328999999999991  0.7426799999999999  0.8303899999999997  1.0000
  C   C34       1.0  0.7766199999999998  0.36142  0.11530999999999997  1.0000
  C   C35       1.0  0.33405999999999997  0.3029999999999999  0.3250699999999999  1.0000
  C   C36       1.0  0.9920199999999998  0.39335  0.31943  1.0000
  C   C37       1.0  0.3462  0.24139  0.23851  1.0000
  C   C38       1.0  0.48176999999999987  0.09374999999999999  0.87726  1.0000
  C   C39       1.0  0.40259999999999985  0.1284499999999999  0.9356199999999998  1.0000
  C   C40       1.0  0.25137999999999994  0.15253  0.18043  1.0000
  C   C41       1.0  0.41754999999999987  0.98249  0.8243399999999999  1.0000
  C   C42       1.0  0.49939999999999996  0.14815999999999988  0.8160399999999998  1.0000
  C   C43       1.0  0.27016  0.55593  0.51486  1.0000
  C   C44       1.0  0.24493999999999994  0.20632000000000003  0.61177  1.0000
  C   C45       1.0  0.2605399999999999  0.15232999999999994  0.65978  1.0000
  C   C46       1.0  0.75105  0.26305  0.0605  1.0000
  C   C47       1.0  0.8126699999999999  0.21109  0.08710999999999998  1.0000
  C   C48       1.0  0.37697  0.1764  0.71103  1.0000
  C   C49       1.0  0.2634899999999999  0.09797999999999998  0.09874999999999998  1.0000
  C   C50       1.0  0.8579499999999999  0.40563999999999995  0.19831  1.0000
  C   C51       1.0  0.6071499999999996  0.11817999999999992  0.9349299999999998  1.0000
  C   C52       1.0  0.46671000000000007  0.22097  0.13291999999999995  1.0000
  C   C53       1.0  0.45396999999999993  0.27473  0.21427999999999994  1.0000
  C   C54       1.0  0.27327  0.69023  0.64704  1.0000
  C   C55       1.0  0.34461  0.28511  0.61398  1.0000
  C   C56       1.0  0.91794  0.35363  0.22683  1.0000
  C   C57       1.0  0.37103  0.133  0.07493  1.0000
  C   C58       1.0  0.32921  0.34444  0.5636  1.0000
  C   C59       1.0  0.31884  0.65994  0.57411  1.0000
  C   C60       1.0  0.4698599999999999  0.8259  0.62586  1.0000
  C   C61       1.0  0.41878999999999994  0.72909  0.5642  1.0000
  C   C62       1.0  0.42192  0.85526  0.69848  1.0000
  C   C63       1.0  0.46041  0.3071799999999999  0.6640099999999998  1.0000
  C   C64       1.0  0.3228  0.78697  0.70881  1.0000
  C   C65       1.0  0.47762999999999983  0.2531899999999998  0.7120999999999997  1.0000
  C   C66       1.0  0.89672  0.25733  0.16961999999999997  1.0000
  O   O1        1.0  0.67175  0.48015  0.53601  1.0000
  O   O2        1.0  0.3372299999999999  0.7760399999999998  0.01694  1.0000
  O   O3        1.0  0.95511  0.65859  0.66297  1.0000
  O   O4        1.0  0.57226  0.62353  0.6224199999999998  1.0000
  O   O5        1.0  0.7727899999999999  0.72392  0.6622099999999997  1.0000
  O   O6        1.0  0.5774499999999998  0.58612  0.4325599999999999  1.0000
  O   O7        1.0  0.011039999999999984  0.52718  0.62487  1.0000
  O   O8        1.0  0.7800899999999997  0.67986  0.48046  1.0000
  O   O9        1.0  0.6170699999999999  0.879  0.24156999999999995  1.0000
  O   O10       1.0  0.52196  0.04858  0.24256  1.0000
  O   O11       1.0  0.83368  0.50632  0.4841499999999999  1.0000
  O   O12       1.0  0.61761  0.92257  0.00634  1.0000
  O   O13       1.0  0.32825999999999983  0.5198499999999998  0.46399  1.0000
  O   O14       1.0  0.6627699999999999  0.22395999999999985  0.9830699999999998  1.0000
  O   O15       1.0  0.04490000000000001  0.34143  0.33703  1.0000
  O   O16       1.0  0.4277399999999999  0.37647  0.3775799999999999  1.0000
  O   O17       1.0  0.22720999999999994  0.27607999999999994  0.33779  1.0000
  O   O18       1.0  0.42255  0.41388  0.5674399999999999  1.0000
  O   O19       1.0  0.9889699999999998  0.47283  0.37514  1.0000
  O   O20       1.0  0.21990999999999994  0.32014  0.51954  1.0000
  O   O21       1.0  0.3829299999999999  0.12100999999999991  0.7584299999999998  1.0000
  O   O22       1.0  0.47803999999999996  0.95143  0.75744  1.0000
  O   O23       1.0  0.16632  0.49369  0.51585  1.0000
  O   O24       1.0  0.3824  0.07743999999999998  0.99367  1.0000
