data_image0
_chemical_formula_structural       Co4H44C56N8O16
_chemical_formula_sum              "Co4 H44 C56 N8 O16"
_cell_length_a       8.05869
_cell_length_b       13.437759999999999
_cell_length_c       14.40426
_cell_angle_alpha    90.0
_cell_angle_beta     90.0
_cell_angle_gamma    105.25833

_symmetry_space_group_name_H-M    'P 1'
_symmetry_Int_Tables_number       1

loop_
  _symmetry_equiv_pos_as_xyz
  'x,y,z'

loop_
  _atom_site_type_symbol
  _atom_site_label
  _atom_site_symmetry_multiplicity
  _atom_site_fract_x
  _atom_site_fract_y
  _atom_site_fract_z
  _atom_site_occupancy
  Co  Co1       1.0  0.33863999999999983  0.3732999999999999  0.08483  1.0000
  Co  Co2       1.0  0.16134999999999988  0.6266999999999998  0.58483  1.0000
  Co  Co3       1.0  0.66135  0.6266999999999998  0.91517  1.0000
  Co  Co4       1.0  0.8386399999999999  0.3732999999999999  0.41517  1.0000
  H   H1        1.0  0.12257999999999998  0.68905  0.30974  1.0000
  H   H2        1.0  0.22422999999999996  0.58216  0.03857  1.0000
  H   H3        1.0  0.9853199999999999  0.7170599999999998  0.10923  1.0000
  H   H4        1.0  0.18265999999999988  0.7497399999999999  0.05176000000000001  1.0000
  H   H5        1.0  0.31679  0.86447  0.18979  1.0000
  H   H6        1.0  0.14914999999999995  0.90541  0.13524  1.0000
  H   H7        1.0  0.10985999999999992  0.8376599999999998  0.24186  1.0000
  H   H8        1.0  0.60958  0.27995  0.11953  1.0000
  H   H9        1.0  0.6947699999999998  0.12104  0.09797  1.0000
  H   H10       1.0  0.24173999999999995  0.012309999999999996  0.92495  1.0000
  H   H11       1.0  0.17493  0.17844999999999994  0.95576  1.0000
  H   H12       1.0  0.37741  0.31094  0.80973  1.0000
  H   H13       1.0  0.27576  0.4178399999999999  0.53857  1.0000
  H   H14       1.0  0.5146799999999998  0.28294  0.60923  1.0000
  H   H15       1.0  0.31733  0.25025  0.55176  1.0000
  H   H16       1.0  0.18320999999999996  0.13553  0.68979  1.0000
  H   H17       1.0  0.35084  0.09458999999999998  0.63524  1.0000
  H   H18       1.0  0.39013  0.16233  0.74186  1.0000
  H   H19       1.0  0.8904199999999997  0.7200399999999998  0.61953  1.0000
  H   H20       1.0  0.8052199999999997  0.8789499999999999  0.59797  1.0000
  H   H21       1.0  0.25825  0.98769  0.42495  1.0000
  H   H22       1.0  0.32506  0.82155  0.45577  1.0000
  H   H23       1.0  0.87742  0.31095  0.69026  1.0000
  H   H24       1.0  0.77576  0.4178399999999999  0.96143  1.0000
  H   H25       1.0  0.014680000000000028  0.28294  0.89077  1.0000
  H   H26       1.0  0.81733  0.25025  0.94824  1.0000
  H   H27       1.0  0.68321  0.13553  0.81021  1.0000
  H   H28       1.0  0.8508399999999998  0.09458999999999998  0.86476  1.0000
  H   H29       1.0  0.89013  0.16233  0.75813  1.0000
  H   H30       1.0  0.3904199999999999  0.7200399999999998  0.8804600000000001  1.0000
  H   H31       1.0  0.30522  0.8789499999999999  0.90202  1.0000
  H   H32       1.0  0.7582499999999998  0.98769  0.07505000000000002  1.0000
  H   H33       1.0  0.82506  0.82155  0.04423  1.0000
  H   H34       1.0  0.6225799999999998  0.68905  0.19026  1.0000
  H   H35       1.0  0.72423  0.58216  0.46142999999999995  1.0000
  H   H36       1.0  0.48531999999999986  0.7170599999999998  0.39077  1.0000
  H   H37       1.0  0.6826599999999999  0.7497399999999999  0.44824  1.0000
  H   H38       1.0  0.8167899999999998  0.86447  0.31021  1.0000
  H   H39       1.0  0.6491499999999998  0.90541  0.36476  1.0000
  H   H40       1.0  0.60987  0.8376599999999998  0.25814  1.0000
  H   H41       1.0  0.10957999999999997  0.27995  0.38047  1.0000
  H   H42       1.0  0.19477  0.12104  0.40203  1.0000
  H   H43       1.0  0.7417399999999997  0.012309999999999996  0.57505  1.0000
  H   H44       1.0  0.67493  0.17844999999999994  0.54423  1.0000
  C   C1        1.0  0.3242999999999998  0.3929299999999999  0.27763  1.0000
  C   C2        1.0  0.26232999999999995  0.48302999999999996  0.24401  1.0000
  C   C3        1.0  0.16515999999999995  0.6361599999999998  0.26402  1.0000
  C   C4        1.0  0.17221  0.65098  0.16791  1.0000
  C   C5        1.0  0.22057000000000004  0.57644  0.1139  1.0000
  C   C6        1.0  0.18392  0.53313  0.40545  1.0000
  C   C7        1.0  0.12514  0.74037  0.12139000000000001  1.0000
  C   C8        1.0  0.17803999999999992  0.8423399999999998  0.17525  1.0000
  C   C9        1.0  0.5293699999999998  0.21816  0.07836  1.0000
  C   C10       1.0  0.57713  0.12740999999999997  0.06442  1.0000
  C   C11       1.0  0.4762599999999999  0.04870999999999999  0.00846  1.0000
  C   C12       1.0  0.32765  0.06863  0.96919  1.0000
  C   C13       1.0  0.2882499999999999  0.16169  0.98632  1.0000
  C   C14       1.0  0.20756999999999995  0.5507  0.30307  1.0000
  C   C15       1.0  0.1757  0.60707  0.77763  1.0000
  C   C16       1.0  0.23766999999999988  0.5169699999999999  0.7440099999999998  1.0000
  C   C17       1.0  0.33484  0.3638399999999999  0.76401  1.0000
  C   C18       1.0  0.32779  0.34902  0.6679099999999999  1.0000
  C   C19       1.0  0.27941999999999995  0.42355999999999994  0.6139000000000001  1.0000
  C   C20       1.0  0.31607  0.46687  0.90545  1.0000
  C   C21       1.0  0.37485  0.25962  0.62139  1.0000
  C   C22       1.0  0.32196  0.15765  0.67525  1.0000
  C   C23       1.0  0.9706199999999997  0.7818399999999999  0.57836  1.0000
  C   C24       1.0  0.92287  0.8725899999999999  0.56442  1.0000
  C   C25       1.0  0.023729999999999977  0.95129  0.50846  1.0000
  C   C26       1.0  0.17234  0.93137  0.46919  1.0000
  C   C27       1.0  0.2117399999999999  0.8383099999999998  0.48632  1.0000
  C   C28       1.0  0.29243  0.4492999999999999  0.80307  1.0000
  C   C29       1.0  0.6757  0.60707  0.72237  1.0000
  C   C30       1.0  0.7376699999999999  0.5169699999999999  0.7559900000000002  1.0000
  C   C31       1.0  0.83484  0.3638399999999999  0.73598  1.0000
  C   C32       1.0  0.82779  0.34902  0.83208  1.0000
  C   C33       1.0  0.7794199999999997  0.42355999999999994  0.88609  1.0000
  C   C34       1.0  0.81607  0.46687  0.59455  1.0000
  C   C35       1.0  0.87485  0.25962  0.87861  1.0000
  C   C36       1.0  0.8219599999999999  0.15765  0.8247400000000001  1.0000
  C   C37       1.0  0.47061999999999987  0.7818399999999999  0.92164  1.0000
  C   C38       1.0  0.42285999999999985  0.8725899999999999  0.93558  1.0000
  C   C39       1.0  0.5237299999999998  0.95129  0.99154  1.0000
  C   C40       1.0  0.67235  0.93137  0.03081  1.0000
  C   C41       1.0  0.7117399999999997  0.8383099999999998  0.01368  1.0000
  C   C42       1.0  0.7924299999999997  0.4492999999999999  0.69692  1.0000
  C   C43       1.0  0.8242999999999998  0.3929299999999999  0.22237  1.0000
  C   C44       1.0  0.7623199999999999  0.48302999999999996  0.25599  1.0000
  C   C45       1.0  0.6651599999999998  0.6361599999999998  0.23598  1.0000
  C   C46       1.0  0.67221  0.65098  0.33207999999999993  1.0000
  C   C47       1.0  0.7205699999999998  0.57644  0.38609  1.0000
  C   C48       1.0  0.68392  0.53313  0.09455  1.0000
  C   C49       1.0  0.62515  0.74037  0.37861  1.0000
  C   C50       1.0  0.67804  0.8423399999999998  0.32474  1.0000
  C   C51       1.0  0.02937  0.21816  0.42164  1.0000
  C   C52       1.0  0.07712999999999999  0.12740999999999997  0.43558  1.0000
  C   C53       1.0  0.9762599999999998  0.048699999999999986  0.49154  1.0000
  C   C54       1.0  0.8276499999999998  0.06863  0.5308  1.0000
  C   C55       1.0  0.78826  0.16169  0.51368  1.0000
  C   C56       1.0  0.70757  0.5507  0.19693  1.0000
  N   N1        1.0  0.2664499999999999  0.4958199999999999  0.15089999999999998  1.0000
  N   N2        1.0  0.3869699999999999  0.23660999999999996  0.04032  1.0000
  N   N3        1.0  0.23354  0.50418  0.6509  1.0000
  N   N4        1.0  0.11301999999999988  0.7633899999999999  0.54032  1.0000
  N   N5        1.0  0.73354  0.50418  0.8491  1.0000
  N   N6        1.0  0.61302  0.7633899999999999  0.95967  1.0000
  N   N7        1.0  0.76645  0.4958199999999999  0.3491  1.0000
  N   N8        1.0  0.88697  0.23660999999999996  0.45967  1.0000
  O   O1        1.0  0.32495  0.32390999999999986  0.21375  1.0000
  O   O2        1.0  0.36881  0.38854  0.35977  1.0000
  O   O3        1.0  0.08252999999999998  0.44981  0.43475  1.0000
  O   O4        1.0  0.26078  0.60709  0.45851  1.0000
  O   O5        1.0  0.17503999999999995  0.6760899999999999  0.71375  1.0000
  O   O6        1.0  0.1311899999999999  0.6114599999999999  0.85976  1.0000
  O   O7        1.0  0.4174599999999999  0.55019  0.93475  1.0000
  O   O8        1.0  0.23920999999999987  0.39290999999999987  0.95851  1.0000
  O   O9        1.0  0.6750399999999996  0.6760899999999999  0.78625  1.0000
  O   O10       1.0  0.6311899999999999  0.6114599999999999  0.64023  1.0000
  O   O11       1.0  0.91747  0.55019  0.56525  1.0000
  O   O12       1.0  0.73921  0.39290999999999987  0.54148  1.0000
  O   O13       1.0  0.8249499999999997  0.3239  0.28625  1.0000
  O   O14       1.0  0.86881  0.38854  0.14024  1.0000
  O   O15       1.0  0.58253  0.44981  0.06525  1.0000
  O   O16       1.0  0.76078  0.60709  0.04148  1.0000
