data_image0
_chemical_formula_structural       Cu4H48C48N32
_chemical_formula_sum              "Cu4 H48 C48 N32"
_cell_length_a       7.51825
_cell_length_b       7.518130000000001
_cell_length_c       26.12634
_cell_angle_alpha    90.00268
_cell_angle_beta     89.99732
_cell_angle_gamma    90.01581

_symmetry_space_group_name_H-M    'P 1'
_symmetry_Int_Tables_number       1

loop_
  _symmetry_equiv_pos_as_xyz
  'x,y,z'

loop_
  _atom_site_type_symbol
  _atom_site_label
  _atom_site_symmetry_multiplicity
  _atom_site_fract_x
  _atom_site_fract_y
  _atom_site_fract_z
  _atom_site_occupancy
  Cu  Cu1       1.0  0.97376  0.9738099999999998  0.0  1.0000
  Cu  Cu2       1.0  0.02619000000000001  0.02618  0.5  1.0000
  Cu  Cu3       1.0  0.52671  0.47344999999999987  0.74977  1.0000
  Cu  Cu4       1.0  0.47342  0.52669  0.25023  1.0000
  H   H1        1.0  0.96281  0.71436  0.09313  1.0000
  H   H2        1.0  0.85031  0.6324999999999997  0.94448  1.0000
  H   H3        1.0  0.66565  0.38441  0.98682  1.0000
  H   H4        1.0  0.46948  0.25208999999999987  0.07288  1.0000
  H   H5        1.0  0.37909  0.24229999999999993  0.16711000000000004  1.0000
  H   H6        1.0  0.77291  0.61582  0.1684  1.0000
  H   H7        1.0  0.03718  0.28559  0.59315  1.0000
  H   H8        1.0  0.14961  0.36758  0.44448  1.0000
  H   H9        1.0  0.33433  0.6155499999999998  0.48683  1.0000
  H   H10       1.0  0.53053  0.7479799999999998  0.57287  1.0000
  H   H11       1.0  0.6208600000000001  0.75777  0.66712  1.0000
  H   H12       1.0  0.22707  0.3842199999999999  0.66838  1.0000
  H   H13       1.0  0.78574  0.4632999999999999  0.84308  1.0000
  H   H14       1.0  0.86723  0.35048  0.6945400000000002  1.0000
  H   H15       1.0  0.11568  0.16549999999999995  0.73677  1.0000
  H   H16       1.0  0.24721  0.9689999999999998  0.82278  1.0000
  H   H17       1.0  0.25731  0.8785699999999997  0.9169000000000002  1.0000
  H   H18       1.0  0.8845000000000002  0.2730499999999999  0.91839  1.0000
  H   H19       1.0  0.21422000000000005  0.53671  0.34306  1.0000
  H   H20       1.0  0.13286  0.64954  0.19453  1.0000
  H   H21       1.0  0.88433  0.8345299999999999  0.23675999999999997  1.0000
  H   H22       1.0  0.7528400000000002  0.030999999999999993  0.32288  1.0000
  H   H23       1.0  0.74269  0.12138999999999997  0.4169800000000001  1.0000
  H   H24       1.0  0.11561  0.72689  0.4184  1.0000
  H   H25       1.0  0.53672  0.21423  0.6569500000000001  1.0000
  H   H26       1.0  0.64954  0.13288  0.80547  1.0000
  H   H27       1.0  0.83452  0.8843399999999998  0.76324  1.0000
  H   H28       1.0  0.031  0.7528499999999998  0.6771300000000001  1.0000
  H   H29       1.0  0.1214  0.7426799999999998  0.58302  1.0000
  H   H30       1.0  0.7269000000000002  0.11559999999999997  0.5816  1.0000
  H   H31       1.0  0.46328  0.7857399999999998  0.15693  1.0000
  H   H32       1.0  0.3504800000000001  0.8672199999999999  0.30546  1.0000
  H   H33       1.0  0.16549000000000003  0.11567999999999998  0.26323  1.0000
  H   H34       1.0  0.969  0.24722  0.17722  1.0000
  H   H35       1.0  0.87856  0.25733  0.08311  1.0000
  H   H36       1.0  0.27302  0.8845099999999998  0.08162  1.0000
  H   H37       1.0  0.71436  0.9628299999999997  0.90687  1.0000
  H   H38       1.0  0.63249  0.85032  0.05553000000000001  1.0000
  H   H39       1.0  0.38441  0.66566  0.01318  1.0000
  H   H40       1.0  0.25211  0.4694699999999999  0.92712  1.0000
  H   H41       1.0  0.24233000000000005  0.37908  0.83289  1.0000
  H   H42       1.0  0.61581  0.77294  0.83161  1.0000
  H   H43       1.0  0.28559  0.03718  0.40685  1.0000
  H   H44       1.0  0.36758000000000013  0.14961  0.55552  1.0000
  H   H45       1.0  0.61555  0.3343399999999999  0.51317  1.0000
  H   H46       1.0  0.74797  0.53054  0.42712  1.0000
  H   H47       1.0  0.75773  0.6208599999999997  0.33287999999999995  1.0000
  H   H48       1.0  0.38422  0.22706  0.33162  1.0000
  C   C1        1.0  0.90863  0.6481499999999998  0.05974  1.0000
  C   C2        1.0  0.7719  0.51921  0.05783  1.0000
  C   C3        1.0  0.74972  0.4807899999999999  0.005869999999999999  1.0000
  C   C4        1.0  0.68171  0.51945  0.15231  1.0000
  C   C5        1.0  0.66621  0.45952  0.10109  1.0000
  C   C6        1.0  0.52731  0.33556  0.10228  1.0000
  C   C7        1.0  0.09139  0.3518399999999999  0.55977  1.0000
  C   C8        1.0  0.22810000000000005  0.4807899999999999  0.55784  1.0000
  C   C9        1.0  0.25026  0.5192  0.50588  1.0000
  C   C10       1.0  0.31819  0.4806199999999999  0.65227  1.0000
  C   C11       1.0  0.33381  0.54052  0.60107  1.0000
  C   C12       1.0  0.4726900000000001  0.66451  0.60225  1.0000
  C   C13       1.0  0.8520800000000001  0.40854  0.80978  1.0000
  C   C14       1.0  0.9808900000000003  0.2717699999999999  0.80783  1.0000
  C   C15       1.0  0.01935  0.24953999999999996  0.75587  1.0000
  C   C16       1.0  0.98053  0.18162999999999999  0.9022599999999998  1.0000
  C   C17       1.0  0.04039  0.16608  0.85105  1.0000
  C   C18       1.0  0.16424  0.02722  0.85221  1.0000
  C   C19       1.0  0.1478  0.59142  0.30977  1.0000
  C   C20       1.0  0.019100000000000002  0.7282899999999998  0.30784  1.0000
  C   C21       1.0  0.9806600000000001  0.7505099999999998  0.25586  1.0000
  C   C22       1.0  0.01951  0.8182799999999998  0.40229999999999994  1.0000
  C   C23       1.0  0.9597  0.8339399999999998  0.35108999999999996  1.0000
  C   C24       1.0  0.83578  0.9727199999999998  0.35229  1.0000
  C   C25       1.0  0.59143  0.14782  0.6902299999999999  1.0000
  C   C26       1.0  0.7283000000000002  0.01911  0.69217  1.0000
  C   C27       1.0  0.7505100000000002  0.9806699999999998  0.74414  1.0000
  C   C28       1.0  0.81829  0.019509999999999993  0.5977  1.0000
  C   C29       1.0  0.83396  0.9596999999999998  0.64892  1.0000
  C   C30       1.0  0.97274  0.83579  0.64772  1.0000
  C   C31       1.0  0.40853  0.8520699999999998  0.19022000000000003  1.0000
  C   C32       1.0  0.27176  0.9808899999999998  0.19217  1.0000
  C   C33       1.0  0.24953  0.019349999999999992  0.24414  1.0000
  C   C34       1.0  0.18161  0.9805299999999998  0.09774  1.0000
  C   C35       1.0  0.16606000000000007  0.04038999999999999  0.14895  1.0000
  C   C36       1.0  0.02721  0.16425  0.1478  1.0000
  C   C37       1.0  0.64814  0.9086399999999998  0.94026  1.0000
  C   C38       1.0  0.51921  0.7719199999999998  0.9421700000000001  1.0000
  C   C39       1.0  0.48079  0.7497299999999998  0.9941299999999998  1.0000
  C   C40       1.0  0.51945  0.6817399999999998  0.84769  1.0000
  C   C41       1.0  0.45953  0.6662199999999998  0.8989100000000001  1.0000
  C   C42       1.0  0.33557  0.52731  0.89772  1.0000
  C   C43       1.0  0.35185  0.09138  0.4402400000000001  1.0000
  C   C44       1.0  0.48079  0.22809999999999994  0.44216  1.0000
  C   C45       1.0  0.5192  0.2502599999999999  0.49412  1.0000
  C   C46       1.0  0.48060000000000014  0.31818  0.34773  1.0000
  C   C47       1.0  0.54051  0.3338  0.39893999999999996  1.0000
  C   C48       1.0  0.6645  0.4726899999999999  0.39775  1.0000
  N   N1        1.0  0.96898  0.69325  0.0127  1.0000
  N   N2        1.0  0.87831  0.5776199999999998  0.97942  1.0000
  N   N3        1.0  0.55991  0.44135999999999986  0.18288000000000001  1.0000
  N   N4        1.0  0.46678  0.3305899999999999  0.1515  1.0000
  N   N5        1.0  0.03107  0.30671  0.51273  1.0000
  N   N6        1.0  0.12171  0.42232999999999987  0.47945  1.0000
  N   N7        1.0  0.43991  0.55885  0.68284  1.0000
  N   N8        1.0  0.5331900000000003  0.66956  0.6514799999999998  1.0000
  N   N9        1.0  0.80685  0.4686299999999999  0.76274  1.0000
  N   N10       1.0  0.9223  0.37802  0.72947  1.0000
  N   N11       1.0  0.05857  0.05973999999999999  0.9327900000000001  1.0000
  N   N12       1.0  0.16934  0.9667599999999997  0.9014  1.0000
  N   N13       1.0  0.19303  0.5312899999999999  0.26274  1.0000
  N   N14       1.0  0.07768  0.6219799999999998  0.22944999999999996  1.0000
  N   N15       1.0  0.94134  0.9400299999999998  0.43287  1.0000
  N   N16       1.0  0.8305200000000003  0.033039999999999986  0.4015000000000001  1.0000
  N   N17       1.0  0.5313  0.19304  0.73727  1.0000
  N   N18       1.0  0.62198  0.07769  0.77055  1.0000
  N   N19       1.0  0.94005  0.9413299999999998  0.56713  1.0000
  N   N20       1.0  0.03305  0.8305199999999999  0.5985  1.0000
  N   N21       1.0  0.46862  0.8068499999999997  0.23726  1.0000
  N   N22       1.0  0.37801  0.9222899999999998  0.27053  1.0000
  N   N23       1.0  0.05972  0.05858  0.06721  1.0000
  N   N24       1.0  0.9667500000000002  0.16936  0.0986  1.0000
  N   N25       1.0  0.69324  0.9689899999999998  0.9873000000000001  1.0000
  N   N26       1.0  0.5776100000000001  0.8783199999999998  0.02058  1.0000
  N   N27       1.0  0.44137  0.55993  0.8171199999999998  1.0000
  N   N28       1.0  0.33061  0.46679  0.84851  1.0000
  N   N29       1.0  0.30672000000000005  0.031069999999999993  0.48728  1.0000
  N   N30       1.0  0.42234  0.12169999999999997  0.52056  1.0000
  N   N31       1.0  0.55883  0.4398999999999999  0.31715999999999994  1.0000
  N   N32       1.0  0.66954  0.5331899999999998  0.34852  1.0000
