data_image0
_chemical_formula_structural       Zn4H48C66O24
_chemical_formula_sum              "Zn4 H48 C66 O24"
_cell_length_a       6.96062
_cell_length_b       12.67896
_cell_length_c       27.55126
_cell_angle_alpha    96.57311
_cell_angle_beta     91.52915
_cell_angle_gamma    102.8649

_symmetry_space_group_name_H-M    'P 1'
_symmetry_Int_Tables_number       1

loop_
  _symmetry_equiv_pos_as_xyz
  'x,y,z'

loop_
  _atom_site_type_symbol
  _atom_site_label
  _atom_site_symmetry_multiplicity
  _atom_site_fract_x
  _atom_site_fract_y
  _atom_site_fract_z
  _atom_site_occupancy
  Zn  Zn1       1.0  0.3206800000000001  0.44175  0.49652  1.0000
  Zn  Zn2       1.0  0.013799999999999996  0.6163  0.98003  1.0000
  Zn  Zn3       1.0  0.67932  0.55826  0.50347  1.0000
  Zn  Zn4       1.0  0.9862  0.38371  0.01997  1.0000
  H   H1        1.0  0.96691  0.3971  0.6062800000000002  1.0000
  H   H2        1.0  0.05562  0.28304  0.66683  1.0000
  H   H3        1.0  0.45118  0.09972  0.6587100000000001  1.0000
  H   H4        1.0  0.36544  0.21447  0.59711  1.0000
  H   H5        1.0  0.0987  0.13921  0.69852  1.0000
  H   H6        1.0  0.0003400000000000003  0.21385  0.74713  1.0000
  H   H7        1.0  0.89731  0.9251499999999999  0.69142  1.0000
  H   H8        1.0  0.9681100000000001  0.86833  0.74378  1.0000
  H   H9        1.0  0.5442400000000001  0.9513800000000002  0.67806  1.0000
  H   H10       1.0  0.63807  0.81261  0.6171100000000002  1.0000
  H   H11       1.0  0.041090000000000015  0.62391  0.60681  1.0000
  H   H12       1.0  0.9437200000000001  0.7615700000000001  0.66632  1.0000
  H   H13       1.0  0.2991  0.10538  0.77262  1.0000
  H   H14       1.0  0.17512000000000003  0.020030000000000003  0.81519  1.0000
  H   H15       1.0  0.11153000000000006  0.35563000000000006  0.87398  1.0000
  H   H16       1.0  0.38194000000000006  0.47642000000000007  0.9295  1.0000
  H   H17       1.0  0.7482399999999999  0.24672  0.8979900000000001  1.0000
  H   H18       1.0  0.48247999999999996  0.12774  0.84225  1.0000
  H   H19       1.0  0.66904  0.97538  0.75671  1.0000
  H   H20       1.0  0.76328  0.08596000000000004  0.80374  1.0000
  H   H21       1.0  0.43859  0.94329  0.80724  1.0000
  H   H22       1.0  0.18466000000000005  0.8502899999999999  0.85946  1.0000
  H   H23       1.0  0.6219000000000001  0.7161600000000002  0.9286400000000002  1.0000
  H   H24       1.0  0.88084  0.81758  0.8803400000000002  1.0000
  H   H25       1.0  0.033090000000000015  0.6029  0.39372000000000007  1.0000
  H   H26       1.0  0.9443800000000002  0.71696  0.33317  1.0000
  H   H27       1.0  0.54882  0.90028  0.34129  1.0000
  H   H28       1.0  0.63456  0.78553  0.40289  1.0000
  H   H29       1.0  0.9013  0.86079  0.30148  1.0000
  H   H30       1.0  0.99966  0.78615  0.25287  1.0000
  H   H31       1.0  0.10269  0.07485  0.30857  1.0000
  H   H32       1.0  0.0319  0.13167  0.25621  1.0000
  H   H33       1.0  0.45576  0.04862  0.32194000000000006  1.0000
  H   H34       1.0  0.36193  0.1874  0.38289  1.0000
  H   H35       1.0  0.9589200000000002  0.37609000000000004  0.39318  1.0000
  H   H36       1.0  0.05628  0.23844  0.33367  1.0000
  H   H37       1.0  0.7009  0.89463  0.22738  1.0000
  H   H38       1.0  0.82488  0.97998  0.1848  1.0000
  H   H39       1.0  0.88847  0.64437  0.12602  1.0000
  H   H40       1.0  0.61806  0.52359  0.0705  1.0000
  H   H41       1.0  0.2517600000000001  0.75328  0.10201  1.0000
  H   H42       1.0  0.51752  0.87226  0.15774  1.0000
  H   H43       1.0  0.33096  0.024620000000000013  0.24329000000000003  1.0000
  H   H44       1.0  0.2367199999999999  0.9140399999999999  0.19626  1.0000
  H   H45       1.0  0.56141  0.05672  0.19275  1.0000
  H   H46       1.0  0.81534  0.14971000000000004  0.14054  1.0000
  H   H47       1.0  0.37811  0.28384  0.07136  1.0000
  H   H48       1.0  0.11916  0.18242  0.11965000000000002  1.0000
  C   C1        1.0  0.6071700000000001  0.3816899999999999  0.56198  1.0000
  C   C2        1.0  0.66074  0.3133100000000001  0.59809  1.0000
  C   C3        1.0  0.8546500000000001  0.33175  0.61788  1.0000
  C   C4        1.0  0.9047000000000001  0.26698  0.65179  1.0000
  C   C5        1.0  0.7582099999999999  0.18225  0.66567  1.0000
  C   C6        1.0  0.5629  0.1642  0.64653  1.0000
  C   C7        1.0  0.5153100000000002  0.22854000000000008  0.6127500000000002  1.0000
  C   C8        1.0  0.9792300000000003  0.13514  0.72404  1.0000
  C   C9        1.0  0.9849099999999998  0.04315000000000003  0.7554  1.0000
  C   C10       1.0  0.0028299999999999567  0.9388  0.72314  1.0000
  C   C11       1.0  0.23851  0.86701  0.6753400000000002  1.0000
  C   C12       1.0  0.4354  0.87953  0.66222  1.0000
  C   C13       1.0  0.48742  0.80208  0.62865  1.0000
  C   C14       1.0  0.34559000000000006  0.70923  0.6083000000000002  1.0000
  C   C15       1.0  0.15058  0.69594  0.62255  1.0000
  C   C16       1.0  0.09595  0.77395  0.65605  1.0000
  C   C17       1.0  0.40184  0.62892  0.57096  1.0000
  C   C18       1.0  0.16330000000000003  0.08364000000000006  0.7921300000000001  1.0000
  C   C19       1.0  0.28258  0.23636  0.85374  1.0000
  C   C20       1.0  0.25199999999999995  0.33329999999999993  0.8793  1.0000
  C   C21       1.0  0.40174000000000004  0.39976000000000006  0.9104  1.0000
  C   C22       1.0  0.58358  0.3693699999999999  0.91655  1.0000
  C   C23       1.0  0.6089  0.27022  0.89248  1.0000
  C   C24       1.0  0.46003000000000005  0.20374  0.86093  1.0000
  C   C25       1.0  0.74952  0.4430500000000001  0.9456100000000002  1.0000
  C   C26       1.0  0.7942600000000002  0.013129999999999987  0.7827  1.0000
  C   C27       1.0  0.67595  0.88736  0.8411000000000001  1.0000
  C   C28       1.0  0.47969999999999996  0.89648  0.83483  1.0000
  C   C29       1.0  0.33709  0.84283  0.86371  1.0000
  C   C30       1.0  0.38704999999999995  0.778  0.89774  1.0000
  C   C31       1.0  0.5844000000000001  0.76785  0.9027  1.0000
  C   C32       1.0  0.72806  0.82328  0.87528  1.0000
  C   C33       1.0  0.24060999999999988  0.71974  0.92879  1.0000
  C   C34       1.0  0.39283  0.61831  0.43802  1.0000
  C   C35       1.0  0.33926  0.6867  0.40191  1.0000
  C   C36       1.0  0.14535  0.66825  0.38211  1.0000
  C   C37       1.0  0.09530000000000012  0.73302  0.3482100000000001  1.0000
  C   C38       1.0  0.24179  0.81776  0.33433  1.0000
  C   C39       1.0  0.43709999999999993  0.8357999999999999  0.35346  1.0000
  C   C40       1.0  0.48469  0.77147  0.3872500000000001  1.0000
  C   C41       1.0  0.020769999999999986  0.86486  0.27596  1.0000
  C   C42       1.0  0.015089999999999989  0.95686  0.24460000000000004  1.0000
  C   C43       1.0  0.9971700000000001  0.06121  0.27686  1.0000
  C   C44       1.0  0.76149  0.133  0.32466  1.0000
  C   C45       1.0  0.5646  0.12047000000000001  0.3377800000000001  1.0000
  C   C46       1.0  0.51258  0.19793  0.3713500000000001  1.0000
  C   C47       1.0  0.6544100000000003  0.29077  0.3917  1.0000
  C   C48       1.0  0.84942  0.30407000000000006  0.37744000000000005  1.0000
  C   C49       1.0  0.9040500000000001  0.22605  0.34395  1.0000
  C   C50       1.0  0.59816  0.37108  0.42904  1.0000
  C   C51       1.0  0.8367  0.91636  0.20786  1.0000
  C   C52       1.0  0.7174200000000001  0.7636399999999999  0.14626  1.0000
  C   C53       1.0  0.748  0.66671  0.1207  1.0000
  C   C54       1.0  0.5982600000000002  0.60024  0.0896  1.0000
  C   C55       1.0  0.41642  0.63063  0.08344000000000003  1.0000
  C   C56       1.0  0.39110000000000006  0.7297800000000001  0.10752000000000002  1.0000
  C   C57       1.0  0.5399700000000001  0.79627  0.13906  1.0000
  C   C58       1.0  0.25048  0.55696  0.05439  1.0000
  C   C59       1.0  0.20573999999999995  0.98688  0.21730000000000005  1.0000
  C   C60       1.0  0.32405  0.11264  0.15889  1.0000
  C   C61       1.0  0.5203  0.10352999999999998  0.16517  1.0000
  C   C62       1.0  0.66291  0.15718  0.13628  1.0000
  C   C63       1.0  0.61295  0.22200000000000003  0.10226  1.0000
  C   C64       1.0  0.4156  0.23215  0.09730000000000003  1.0000
  C   C65       1.0  0.27195  0.17673  0.12471  1.0000
  C   C66       1.0  0.75939  0.28026  0.07121  1.0000
  O   O1        1.0  0.42777000000000015  0.3571  0.54469  1.0000
  O   O2        1.0  0.74357  0.45983  0.55063  1.0000
  O   O3        1.0  0.79024  0.11127999999999998  0.69761  1.0000
  O   O4        1.0  0.2010100000000001  0.9514900000000001  0.707  1.0000
  O   O5        1.0  0.26656  0.54625  0.55295  1.0000
  O   O6        1.0  0.58214  0.64964  0.55908  1.0000
  O   O7        1.0  0.13110000000000005  0.17880000000000007  0.8218900000000002  1.0000
  O   O8        1.0  0.73586  0.5398400000000001  0.9617700000000002  1.0000
  O   O9        1.0  0.9139300000000004  0.4121800000000001  0.9524100000000002  1.0000
  O   O10       1.0  0.8284100000000001  0.93691  0.81505  1.0000
  O   O11       1.0  0.06936000000000006  0.74092  0.9336700000000002  1.0000
  O   O12       1.0  0.28618  0.64507  0.952  1.0000
  O   O13       1.0  0.57223  0.6429  0.45531  1.0000
  O   O14       1.0  0.25643  0.54017  0.44937  1.0000
  O   O15       1.0  0.2097599999999999  0.88873  0.30238  1.0000
  O   O16       1.0  0.79899  0.04852000000000001  0.29300000000000004  1.0000
  O   O17       1.0  0.7334400000000002  0.45376  0.44705  1.0000
  O   O18       1.0  0.41786  0.35037  0.44092  1.0000
  O   O19       1.0  0.8689099999999998  0.8211999999999999  0.1781  1.0000
  O   O20       1.0  0.26414000000000004  0.46016  0.03823  1.0000
  O   O21       1.0  0.08607000000000004  0.58783  0.047590000000000014  1.0000
  O   O22       1.0  0.17159000000000005  0.06309000000000001  0.18495000000000006  1.0000
  O   O23       1.0  0.9306400000000002  0.25908  0.06632  1.0000
  O   O24       1.0  0.7138300000000001  0.35494  0.048  1.0000
