data_image0
_chemical_formula_structural       Zn8H30C36S2N40O14
_chemical_formula_sum              "Zn8 H30 C36 S2 N40 O14"
_cell_length_a       10.64942
_cell_length_b       13.97507
_cell_length_c       13.97541
_cell_angle_alpha    119.75165
_cell_angle_beta     92.94535
_cell_angle_gamma    92.94769999999998

_symmetry_space_group_name_H-M    'P 1'
_symmetry_Int_Tables_number       1

loop_
  _symmetry_equiv_pos_as_xyz
  'x,y,z'

loop_
  _atom_site_type_symbol
  _atom_site_label
  _atom_site_symmetry_multiplicity
  _atom_site_fract_x
  _atom_site_fract_y
  _atom_site_fract_z
  _atom_site_occupancy
  Zn  Zn1       1.0  0.88217  0.43697999999999987  0.72373  1.0000
  Zn  Zn2       1.0  0.4154  0.60483  0.97176  1.0000
  Zn  Zn3       1.0  0.11783000000000003  0.27629  0.56301  1.0000
  Zn  Zn4       1.0  0.58459  0.028239999999999953  0.39517  1.0000
  Zn  Zn5       1.0  0.1084  0.5618299999999998  0.27665  1.0000
  Zn  Zn6       1.0  0.5726400000000001  0.39075  0.02884  1.0000
  Zn  Zn7       1.0  0.8915800000000002  0.7233799999999998  0.43817  1.0000
  Zn  Zn8       1.0  0.42734  0.97115  0.60923  1.0000
  H   H1        1.0  0.22536  0.97184  0.1467  1.0000
  H   H2        1.0  0.6706500000000001  0.2267999999999999  0.62838  1.0000
  H   H3        1.0  0.75323  0.3281599999999999  0.8471299999999999  1.0000
  H   H4        1.0  0.9743400000000002  0.09960999999999998  0.31248  1.0000
  H   H5        1.0  0.8459600000000002  0.008479999999999975  0.28809  1.0000
  H   H6        1.0  0.58019  0.67975  0.86397  1.0000
  H   H7        1.0  0.7131499999999998  0.6461099999999997  0.79015  1.0000
  H   H8        1.0  0.77467  0.8533299999999998  0.028209999999999995  1.0000
  H   H9        1.0  0.3293400000000001  0.37163  0.7732  1.0000
  H   H10       1.0  0.24676000000000006  0.15291000000000002  0.6718600000000001  1.0000
  H   H11       1.0  0.025639999999999993  0.6875299999999998  0.90041  1.0000
  H   H12       1.0  0.15402  0.7119199999999998  0.9915400000000001  1.0000
  H   H13       1.0  0.41977  0.13602  0.32024  1.0000
  H   H14       1.0  0.28683000000000003  0.20984999999999995  0.35389  1.0000
  H   H15       1.0  0.76171  0.03341000000000001  0.85217  1.0000
  H   H16       1.0  0.34802  0.7502199999999998  0.38403999999999994  1.0000
  H   H17       1.0  0.23403  0.6666999999999998  0.15557  1.0000
  H   H18       1.0  0.025309999999999985  0.9215599999999998  0.67905  1.0000
  H   H19       1.0  0.16535  0.0004099999999999981  0.70787  1.0000
  H   H20       1.0  0.42458  0.32939  0.15666  1.0000
  H   H21       1.0  0.29050000000000004  0.35992  0.22628000000000004  1.0000
  H   H22       1.0  0.23820000000000002  0.14782  0.9665600000000001  1.0000
  H   H23       1.0  0.6519300000000002  0.61592  0.24983  1.0000
  H   H24       1.0  0.7659500000000001  0.8443799999999998  0.33329999999999993  1.0000
  H   H25       1.0  0.9746300000000001  0.32091  0.07845  1.0000
  H   H26       1.0  0.8345700000000001  0.2920899999999999  0.99959  1.0000
  H   H27       1.0  0.57538  0.8433699999999997  0.67064  1.0000
  H   H28       1.0  0.7094600000000001  0.77376  0.64014  1.0000
  H   H29       1.0  0.43637000000000004  0.85519  0.86016  1.0000
  H   H30       1.0  0.5634800000000001  0.13978  0.14476  1.0000
  C   C1        1.0  0.3363300000000001  0.9045799999999998  0.00621  1.0000
  C   C2        1.0  0.26049  0.9826399999999997  0.08067  1.0000
  C   C3        1.0  0.36212  0.80701  0.0188  1.0000
  C   C4        1.0  0.8685200000000001  0.13693999999999995  0.44397999999999993  1.0000
  C   C5        1.0  0.7512800000000001  0.20994  0.5798  1.0000
  C   C6        1.0  0.70337  0.39734  0.85583  1.0000
  C   C7        1.0  0.65073  0.5414  0.84929  1.0000
  C   C8        1.0  0.8141000000000003  0.51444  0.55722  1.0000
  C   C9        1.0  0.66361  0.9937699999999998  0.09541  1.0000
  C   C10       1.0  0.73948  0.9193299999999998  0.01737  1.0000
  C   C11       1.0  0.6378400000000001  0.9811799999999998  0.19299  1.0000
  C   C12       1.0  0.13147  0.55603  0.86308  1.0000
  C   C13       1.0  0.24871000000000001  0.42020999999999986  0.79006  1.0000
  C   C14       1.0  0.29662  0.14419999999999997  0.60268  1.0000
  C   C15       1.0  0.34926  0.15071000000000004  0.4586  1.0000
  C   C16       1.0  0.18585  0.44279999999999997  0.48553999999999997  1.0000
  C   C17       1.0  0.65747  0.09614000000000003  0.99684  1.0000
  C   C18       1.0  0.7324900000000001  0.02081000000000007  0.9187600000000001  1.0000
  C   C19       1.0  0.6252500000000001  0.19393999999999997  0.98734  1.0000
  C   C20       1.0  0.14085  0.87064  0.55348  1.0000
  C   C21       1.0  0.2642300000000001  0.7776399999999998  0.42766  1.0000
  C   C22       1.0  0.28669  0.59944  0.14865  1.0000
  C   C23       1.0  0.34820000000000007  0.46188  0.16387  1.0000
  C   C24       1.0  0.34248000000000006  0.0031599999999999354  0.9038499999999999  1.0000
  C   C25       1.0  0.26745  0.08125000000000007  0.9791700000000001  1.0000
  C   C26       1.0  0.37471  0.01267000000000001  0.80604  1.0000
  C   C27       1.0  0.8590900000000001  0.44648999999999994  0.12936  1.0000
  C   C28       1.0  0.73572  0.57231  0.22238  1.0000
  C   C29       1.0  0.7133000000000002  0.85132  0.40057  1.0000
  C   C30       1.0  0.65177  0.8361199999999999  0.53814  1.0000
  C   C31       1.0  0.22821000000000002  0.07163  0.06797  1.0000
  C   C32       1.0  0.3784100000000001  0.9157  0.91839  1.0000
  C   C33       1.0  0.006629999999999997  0.64436  0.57966  1.0000
  C   C34       1.0  0.77175  0.9320199999999997  0.9283799999999999  1.0000
  C   C35       1.0  0.6215000000000002  0.08158  0.08428  1.0000
  C   C36       1.0  0.99335  0.42034  0.35561  1.0000
  S   S1        1.0  0.13281000000000004  0.17262999999999995  0.16451  1.0000
  S   S2        1.0  0.8671900000000002  0.8354999999999999  0.82738  1.0000
  N   N1        1.0  0.86143  0.27001  0.61718  1.0000
  N   N2        1.0  0.93812  0.22347  0.53013  1.0000
  N   N3        1.0  0.7496400000000002  0.12647  0.47393  1.0000
  N   N4        1.0  0.7411000000000001  0.46693999999999986  0.81936  1.0000
  N   N5        1.0  0.5631200000000002  0.51749  0.9030800000000001  1.0000
  N   N6        1.0  0.59794  0.42379999999999984  0.9056799999999999  1.0000
  N   N7        1.0  0.8145  0.4792299999999999  0.61812  1.0000
  N   N8        1.0  0.9119700000000001  0.06804  0.34596  1.0000
  N   N9        1.0  0.64573  0.62445  0.82781  1.0000
  N   N10       1.0  0.8071800000000002  0.5577999999999999  0.49368  1.0000
  N   N11       1.0  0.13856  0.38282  0.72999  1.0000
  N   N12       1.0  0.061870000000000015  0.46988  0.77654  1.0000
  N   N13       1.0  0.25035  0.5260799999999999  0.87353  1.0000
  N   N14       1.0  0.25889000000000006  0.18066  0.53306  1.0000
  N   N15       1.0  0.43686000000000014  0.09692999999999999  0.48251  1.0000
  N   N16       1.0  0.40204000000000006  0.09434999999999995  0.57621  1.0000
  N   N17       1.0  0.18549000000000004  0.38193  0.52079  1.0000
  N   N18       1.0  0.08802000000000001  0.6540499999999998  0.93197  1.0000
  N   N19       1.0  0.35423000000000004  0.17216999999999993  0.37554  1.0000
  N   N20       1.0  0.19281  0.50632  0.44215000000000004  1.0000
  N   N21       1.0  0.15015000000000003  0.72452  0.38855999999999996  1.0000
  N   N22       1.0  0.06945999999999998  0.7851599999999997  0.46823  1.0000
  N   N23       1.0  0.26419  0.86909  0.52843  1.0000
  N   N24       1.0  0.25632  0.53452  0.19265  1.0000
  N   N25       1.0  0.42941  0.4816299999999999  0.1029  1.0000
  N   N26       1.0  0.38918  0.5711999999999998  0.09513  1.0000
  N   N27       1.0  0.09226  0.4888899999999999  0.36917  1.0000
  N   N28       1.0  0.09612  0.9478299999999997  0.64775  1.0000
  N   N29       1.0  0.36178  0.3867  0.19578  1.0000
  N   N30       1.0  0.8498000000000002  0.6113999999999998  0.27549  1.0000
  N   N31       1.0  0.93049  0.53174  0.21484  1.0000
  N   N32       1.0  0.7357500000000002  0.47154  0.13092  1.0000
  N   N33       1.0  0.7436500000000001  0.80732  0.4655  1.0000
  N   N34       1.0  0.57058  0.89709  0.51839  1.0000
  N   N35       1.0  0.6108100000000001  0.9048499999999998  0.42881  1.0000
  N   N36       1.0  0.9077100000000001  0.6308099999999999  0.51112  1.0000
  N   N37       1.0  0.9038000000000002  0.35221  0.05218  1.0000
  N   N38       1.0  0.6381799999999999  0.8042299999999998  0.61333  1.0000
  N   N39       1.0  0.10120000000000001  0.6540999999999999  0.63311  1.0000
  N   N40       1.0  0.89881  0.36688  0.34592  1.0000
  O   O1        1.0  0.44466000000000006  0.7417599999999998  0.95976  1.0000
  O   O2        1.0  0.29998  0.78586  0.08169  1.0000
  O   O3        1.0  0.04766000000000001  0.11083999999999997  0.1986  1.0000
  O   O4        1.0  0.55529  0.04020999999999998  0.25824  1.0000
  O   O5        1.0  0.7000000000000001  0.9182999999999998  0.21415  1.0000
  O   O6        1.0  0.9523500000000003  0.8014399999999999  0.88919  1.0000
  O   O7        1.0  0.54317  0.25712999999999997  0.0487  1.0000
  O   O8        1.0  0.68171  0.21769  0.92309  1.0000
  O   O9        1.0  0.92583  0.8952099999999998  0.7763199999999999  1.0000
  O   O10       1.0  0.45684000000000013  0.9513399999999997  0.7428699999999999  1.0000
  O   O11       1.0  0.31822  0.07690000000000001  0.7822900000000002  1.0000
  O   O12       1.0  0.07415000000000001  0.22369999999999995  0.10483  1.0000
  O   O13       1.0  0.22405000000000003  0.25533  0.25911  1.0000
  O   O14       1.0  0.77598  0.74089  0.74466  1.0000
