data_image0
_chemical_formula_structural       Mg4H32C48O20
_chemical_formula_sum              "Mg4 H32 C48 O20"
_cell_length_a       6.99351
_cell_length_b       12.9253
_cell_length_c       17.3691
_cell_angle_alpha    90.00234
_cell_angle_beta     90.91211
_cell_angle_gamma    89.99324

_space_group_name_H-M_alt    "P 1"
_space_group_IT_number       1

loop_
  _space_group_symop_operation_xyz
  'x, y, z'

loop_
  _atom_site_type_symbol
  _atom_site_label
  _atom_site_symmetry_multiplicity
  _atom_site_fract_x
  _atom_site_fract_y
  _atom_site_fract_z
  _atom_site_occupancy
  Mg  Mg1       1.0  0.5  0.5  0.0  1.0000
  Mg  Mg2       1.0  0.5  0.0  0.5  1.0000
  Mg  Mg3       1.0  0.0  0.5  0.0  1.0000
  Mg  Mg4       1.0  0.0  0.0  0.5  1.0000
  H   H1        1.0  0.74738  0.36183000000000004  0.94691  1.0000
  H   H2        1.0  0.8007600000000002  0.35258  0.03538  1.0000
  H   H3        1.0  0.9846800000000002  0.352  0.21035  1.0000
  H   H4        1.0  0.98322  0.24267000000000005  0.32885  1.0000
  H   H5        1.0  0.54635  0.25010000000000004  0.07706999999999999  1.0000
  H   H6        1.0  0.8056300000000001  0.12221000000000003  0.09955  1.0000
  H   H7        1.0  0.80714  0.014370000000000004  0.21896  1.0000
  H   H8        1.0  0.55325  0.03363  0.31367  1.0000
  H   H9        1.0  0.25289  0.8618600000000002  0.55311  1.0000
  H   H10       1.0  0.19915  0.8526300000000001  0.46467  1.0000
  H   H11       1.0  0.01535  0.85204  0.28971  1.0000
  H   H12       1.0  0.01663  0.7428000000000001  0.17125  1.0000
  H   H13       1.0  0.4536500000000001  0.7502  0.42292  1.0000
  H   H14       1.0  0.19457000000000002  0.6222200000000002  0.40043  1.0000
  H   H15       1.0  0.19300000000000003  0.51435  0.28104  1.0000
  H   H16       1.0  0.4468400000000001  0.5336400000000001  0.18636  1.0000
  H   H17       1.0  0.25263  0.63817  0.05308999999999999  1.0000
  H   H18       1.0  0.19924  0.6474200000000002  0.96462  1.0000
  H   H19       1.0  0.01533  0.648  0.78965  1.0000
  H   H20       1.0  0.016789999999999996  0.7573200000000002  0.67116  1.0000
  H   H21       1.0  0.4536600000000001  0.7499000000000002  0.9229299999999999  1.0000
  H   H22       1.0  0.19437  0.8777800000000002  0.90045  1.0000
  H   H23       1.0  0.19286000000000006  0.9856200000000003  0.78104  1.0000
  H   H24       1.0  0.4467600000000001  0.96636  0.68633  1.0000
  H   H25       1.0  0.74711  0.13814  0.44689  1.0000
  H   H26       1.0  0.80085  0.14737000000000003  0.53533  1.0000
  H   H27       1.0  0.9846500000000002  0.14795  0.71029  1.0000
  H   H28       1.0  0.9833700000000001  0.2572  0.82876  1.0000
  H   H29       1.0  0.54635  0.24980000000000005  0.57708  1.0000
  H   H30       1.0  0.80543  0.37778  0.59957  1.0000
  H   H31       1.0  0.807  0.48564000000000007  0.71896  1.0000
  H   H32       1.0  0.55317  0.4663500000000001  0.81364  1.0000
  C   C1        1.0  0.24471000000000007  0.3628400000000001  0.10249999999999997  1.0000
  C   C2        1.0  0.23799  0.10727000000000002  0.37879  1.0000
  C   C3        1.0  0.24833  0.2900400000000001  0.16977  1.0000
  C   C4        1.0  0.10037  0.29756000000000005  0.22178  1.0000
  C   C5        1.0  0.10028  0.23643000000000006  0.28868  1.0000
  C   C6        1.0  0.24721  0.16722000000000006  0.30481  1.0000
  C   C7        1.0  0.40237  0.15612  0.25218  1.0000
  C   C8        1.0  0.40199  0.21866000000000005  0.18336  1.0000
  C   C9        1.0  0.55068  0.20408000000000007  0.12933  1.0000
  C   C10       1.0  0.6934300000000002  0.13188  0.14165  1.0000
  C   C11       1.0  0.69445  0.07108000000000002  0.20909999999999995  1.0000
  C   C12       1.0  0.55275  0.08280000000000003  0.263  1.0000
  C   C13       1.0  0.75537  0.86269  0.39757  1.0000
  C   C14       1.0  0.76207  0.6074500000000002  0.12121  1.0000
  C   C15       1.0  0.7516  0.79006  0.3302399999999999  1.0000
  C   C16       1.0  0.89961  0.79763  0.27828  1.0000
  C   C17       1.0  0.89959  0.73652  0.21139  1.0000
  C   C18       1.0  0.7527000000000001  0.66733  0.19522  1.0000
  C   C19       1.0  0.5976200000000003  0.65615  0.24784999999999996  1.0000
  C   C20       1.0  0.5979900000000001  0.7187  0.31665  1.0000
  C   C21       1.0  0.44937  0.7041300000000001  0.37068  1.0000
  C   C22       1.0  0.30670000000000003  0.6319200000000003  0.35834  1.0000
  C   C23       1.0  0.30564  0.57108  0.29091  1.0000
  C   C24       1.0  0.44734000000000007  0.58279  0.23702999999999996  1.0000
  C   C25       1.0  0.7553000000000002  0.63716  0.8975  1.0000
  C   C26       1.0  0.76202  0.8927300000000002  0.62121  1.0000
  C   C27       1.0  0.7516700000000002  0.7099600000000003  0.83023  1.0000
  C   C28       1.0  0.89963  0.70243  0.77822  1.0000
  C   C29       1.0  0.89972  0.76357  0.71132  1.0000
  C   C30       1.0  0.75279  0.8327700000000002  0.6952  1.0000
  C   C31       1.0  0.59763  0.8438800000000002  0.7478199999999999  1.0000
  C   C32       1.0  0.59801  0.7813300000000002  0.8166399999999998  1.0000
  C   C33       1.0  0.44932  0.79591  0.87067  1.0000
  C   C34       1.0  0.30657  0.86811  0.85835  1.0000
  C   C35       1.0  0.30555  0.92891  0.7908999999999998  1.0000
  C   C36       1.0  0.44725000000000004  0.9172000000000002  0.7369999999999999  1.0000
  C   C37       1.0  0.24464  0.1373  0.6024299999999999  1.0000
  C   C38       1.0  0.23793  0.39255  0.8787899999999997  1.0000
  C   C39       1.0  0.2484  0.20993  0.66976  1.0000
  C   C40       1.0  0.1004  0.20236000000000004  0.72172  1.0000
  C   C41       1.0  0.10041  0.26348  0.78861  1.0000
  C   C42       1.0  0.24730000000000005  0.33266  0.8047799999999999  1.0000
  C   C43       1.0  0.40239000000000014  0.34385  0.75215  1.0000
  C   C44       1.0  0.4020100000000001  0.28129  0.6833499999999999  1.0000
  C   C45       1.0  0.55063  0.29587  0.62933  1.0000
  C   C46       1.0  0.6933000000000002  0.36808  0.6416599999999998  1.0000
  C   C47       1.0  0.69436  0.42891  0.7090899999999999  1.0000
  C   C48       1.0  0.55266  0.4172  0.76297  1.0000
  O   O1        1.0  0.08567000000000002  0.37533  0.06646  1.0000
  O   O2        1.0  0.39819  0.4110000000000001  0.08717  1.0000
  O   O3        1.0  0.07502  0.07287  0.39859  1.0000
  O   O4        1.0  0.3922300000000001  0.09598  0.41777999999999993  1.0000
  O   O5        1.0  0.7514300000000003  0.4002700000000001  0.9954999999999999  1.0000
  O   O6        1.0  0.9146  0.87514  0.43352  1.0000
  O   O7        1.0  0.60207  0.9108900000000002  0.41302  1.0000
  O   O8        1.0  0.9249700000000002  0.5729600000000001  0.10144999999999998  1.0000
  O   O9        1.0  0.60783  0.5963400000000001  0.08212  1.0000
  O   O10       1.0  0.24873  0.90028  0.50451  1.0000
  O   O11       1.0  0.91433  0.62466  0.9335399999999999  1.0000
  O   O12       1.0  0.60181  0.5889900000000001  0.91283  1.0000
  O   O13       1.0  0.92498  0.92712  0.60141  1.0000
  O   O14       1.0  0.6077700000000003  0.90402  0.58222  1.0000
  O   O15       1.0  0.24857  0.59972  0.0045  1.0000
  O   O16       1.0  0.0854  0.12485  0.56648  1.0000
  O   O17       1.0  0.39793  0.08911000000000001  0.58698  1.0000
  O   O18       1.0  0.07502999999999999  0.42704  0.8985499999999997  1.0000
  O   O19       1.0  0.39218  0.4036500000000001  0.91788  1.0000
  O   O20       1.0  0.75127  0.09972  0.49549999999999994  1.0000
