data_image0
_chemical_formula_structural       Mg6H24C48O50
_chemical_formula_sum              "Mg6 H24 C48 O50"
_cell_length_a       15.93374
_cell_length_b       15.934099999999999
_cell_length_c       16.81511
_cell_angle_alpha    90.0055
_cell_angle_beta     89.99137
_cell_angle_gamma    120.04566

_space_group_name_H-M_alt    "P 1"
_space_group_IT_number       1

loop_
  _space_group_symop_operation_xyz
  'x, y, z'

loop_
  _atom_site_type_symbol
  _atom_site_label
  _atom_site_symmetry_multiplicity
  _atom_site_fract_x
  _atom_site_fract_y
  _atom_site_fract_z
  _atom_site_occupancy
  Mg  Mg1       1.0  0.7325000000000003  0.26739  0.7499799999999998  1.0000
  Mg  Mg2       1.0  0.5347900000000002  0.26741  0.75001  1.0000
  Mg  Mg3       1.0  0.73269  0.46521  0.7499899999999999  1.0000
  Mg  Mg4       1.0  0.26749  0.73261  0.25002  1.0000
  Mg  Mg5       1.0  0.46522000000000013  0.73259  0.24998999999999996  1.0000
  Mg  Mg6       1.0  0.26731  0.53479  0.25001  1.0000
  H   H1        1.0  0.8948700000000003  0.31063  0.60727  1.0000
  H   H2        1.0  0.41582  0.10501  0.60732  1.0000
  H   H3        1.0  0.68939  0.5843  0.60722  1.0000
  H   H4        1.0  0.10506000000000001  0.68926  0.10740999999999999  1.0000
  H   H5        1.0  0.58425  0.89495  0.1071  1.0000
  H   H6        1.0  0.3107200000000001  0.41575  0.10738999999999997  1.0000
  H   H7        1.0  0.58432  0.68944  0.39287  1.0000
  H   H8        1.0  0.31052  0.8948  0.39293  1.0000
  H   H9        1.0  0.10509999999999997  0.41576  0.39293  1.0000
  H   H10       1.0  0.41567  0.31048  0.89297  1.0000
  H   H11       1.0  0.68941  0.10517  0.89276  1.0000
  H   H12       1.0  0.89484  0.5842499999999999  0.8930299999999998  1.0000
  H   H13       1.0  0.10510999999999994  0.68937  0.39275  1.0000
  H   H14       1.0  0.5842  0.89499  0.39272  1.0000
  H   H15       1.0  0.31062  0.41569  0.39279  1.0000
  H   H16       1.0  0.89494  0.31077  0.89249  1.0000
  H   H17       1.0  0.41577  0.10507  0.89285  1.0000
  H   H18       1.0  0.6892800000000002  0.58423  0.89259  1.0000
  H   H19       1.0  0.41569999999999996  0.31056999999999996  0.60715  1.0000
  H   H20       1.0  0.68948  0.10521  0.6070899999999998  1.0000
  H   H21       1.0  0.8948800000000005  0.58422  0.6071  1.0000
  H   H22       1.0  0.5843500000000003  0.68952  0.10700999999999998  1.0000
  H   H23       1.0  0.3105899999999999  0.8948599999999999  0.10719999999999998  1.0000
  H   H24       1.0  0.10512999999999995  0.4157299999999999  0.10693999999999997  1.0000
  C   C1        1.0  0.9675  0.40684999999999993  0.5332  1.0000
  C   C2        1.0  0.43930000000000025  0.03236  0.53326  1.0000
  C   C3        1.0  0.5931900000000002  0.56071  0.53316  1.0000
  C   C4        1.0  0.032379999999999964  0.59307  0.03331  1.0000
  C   C5        1.0  0.5606300000000001  0.9674999999999999  0.033059999999999985  1.0000
  C   C6        1.0  0.40688000000000013  0.43924  0.03329  1.0000
  C   C7        1.0  0.5607100000000003  0.59319  0.46688  1.0000
  C   C8        1.0  0.40678999999999993  0.9674  0.46696  1.0000
  C   C9        1.0  0.032479999999999995  0.43936  0.4669199999999999  1.0000
  C   C10       1.0  0.43933  0.40674  0.9669799999999998  1.0000
  C   C11       1.0  0.59314  0.03249  0.9667799999999999  1.0000
  C   C12       1.0  0.96741  0.5606  0.96701  1.0000
  C   C13       1.0  0.03248999999999991  0.5931399999999998  0.4668199999999999  1.0000
  C   C14       1.0  0.56069  0.96764  0.46676  1.0000
  C   C15       1.0  0.40681999999999996  0.4392899999999999  0.46685  1.0000
  C   C16       1.0  0.96763  0.40692  0.96662  1.0000
  C   C17       1.0  0.4393700000000001  0.0325  0.96689  1.0000
  C   C18       1.0  0.59313  0.56075  0.96669  1.0000
  C   C19       1.0  0.43930000000000013  0.40681  0.53314  1.0000
  C   C20       1.0  0.59321  0.03261  0.53306  1.0000
  C   C21       1.0  0.96751  0.56063  0.5331  1.0000
  C   C22       1.0  0.56067  0.59325  0.03299999999999999  1.0000
  C   C23       1.0  0.4068599999999999  0.9675199999999998  0.03318  1.0000
  C   C24       1.0  0.03255999999999994  0.4393799999999999  0.03295  1.0000
  C   C25       1.0  0.9353300000000002  0.46765  0.56637  1.0000
  C   C26       1.0  0.86814  0.43405  0.6350599999999998  1.0000
  C   C27       1.0  0.5323700000000002  0.06466  0.56637  1.0000
  C   C28       1.0  0.56598  0.13186  0.6350599999999998  1.0000
  C   C29       1.0  0.53232  0.46768  0.56636  1.0000
  C   C30       1.0  0.56592  0.43409  0.63503  1.0000
  C   C31       1.0  0.06464000000000007  0.53229  0.06636  1.0000
  C   C32       1.0  0.13183  0.56588  0.13505  1.0000
  C   C33       1.0  0.46766000000000013  0.93535  0.06636  1.0000
  C   C34       1.0  0.43408000000000013  0.86817  0.13505  1.0000
  C   C35       1.0  0.46771  0.53235  0.06635  1.0000
  C   C36       1.0  0.43413  0.56597  0.13504  1.0000
  C   C37       1.0  0.46769  0.53232  0.43364  1.0000
  C   C38       1.0  0.43409000000000003  0.56591  0.36497  1.0000
  C   C39       1.0  0.46764  0.93535  0.43363  1.0000
  C   C40       1.0  0.4340199999999999  0.8681599999999998  0.3649399999999999  1.0000
  C   C41       1.0  0.06465000000000004  0.53234  0.43363  1.0000
  C   C42       1.0  0.13183999999999996  0.56594  0.3649399999999999  1.0000
  C   C43       1.0  0.53229  0.46764  0.9336399999999998  1.0000
  C   C44       1.0  0.5658800000000003  0.43402  0.8649599999999997  1.0000
  C   C45       1.0  0.53235  0.06468  0.93362  1.0000
  C   C46       1.0  0.56593  0.13186  0.86494  1.0000
  C   C47       1.0  0.9353300000000002  0.46768999999999994  0.93362  1.0000
  C   C48       1.0  0.86814  0.4341  0.86493  1.0000
  O   O1        1.0  0.84095  0.34891  0.66296  1.0000
  O   O2        1.0  0.9394800000000001  0.31828  0.5612499999999998  1.0000
  O   O3        1.0  0.508  0.15897  0.6629699999999997  1.0000
  O   O4        1.0  0.37872  0.06025  0.5613999999999998  1.0000
  O   O5        1.0  0.6511000000000002  0.49208  0.66291  1.0000
  O   O6        1.0  0.6818  0.6212799999999999  0.56118  1.0000
  O   O7        1.0  0.15898000000000007  0.65101  0.16298999999999994  1.0000
  O   O8        1.0  0.06026000000000002  0.68155  0.06153  1.0000
  O   O9        1.0  0.49203  0.841  0.16291  1.0000
  O   O10       1.0  0.6211600000000003  0.93945  0.06098  1.0000
  O   O11       1.0  0.34897  0.50795  0.16295  1.0000
  O   O12       1.0  0.31837999999999994  0.37860999999999995  0.06151000000000001  1.0000
  O   O13       1.0  0.49207  0.65109  0.33709999999999996  1.0000
  O   O14       1.0  0.6212300000000002  0.68187  0.43897  1.0000
  O   O15       1.0  0.3488400000000001  0.84088  0.33709999999999996  1.0000
  O   O16       1.0  0.31808  0.93915  0.4391299999999999  1.0000
  O   O17       1.0  0.15904  0.508  0.33709  1.0000
  O   O18       1.0  0.060640000000000006  0.37888  0.43906  1.0000
  O   O19       1.0  0.5079200000000003  0.34882  0.83713  1.0000
  O   O20       1.0  0.37885000000000013  0.31799  0.9391799999999999  1.0000
  O   O21       1.0  0.65108  0.15906  0.8370399999999998  1.0000
  O   O22       1.0  0.68177  0.06060999999999998  0.9388099999999998  1.0000
  O   O23       1.0  0.84091  0.49202  0.83712  1.0000
  O   O24       1.0  0.9391599999999999  0.62104  0.93926  1.0000
  O   O25       1.0  0.15903000000000006  0.65108  0.33704  1.0000
  O   O26       1.0  0.06052999999999998  0.68173  0.4387999999999999  1.0000
  O   O27       1.0  0.49200000000000005  0.84105  0.33704  1.0000
  O   O28       1.0  0.62126  0.93971  0.4386699999999999  1.0000
  O   O29       1.0  0.34891000000000005  0.50792  0.33709  1.0000
  O   O30       1.0  0.3182  0.37872  0.43884  1.0000
  O   O31       1.0  0.8409900000000003  0.34898  0.837  1.0000
  O   O32       1.0  0.93983  0.3185  0.9383099999999998  1.0000
  O   O33       1.0  0.5079900000000003  0.15903  0.83708  1.0000
  O   O34       1.0  0.37883  0.06050999999999999  0.93893  1.0000
  O   O35       1.0  0.65103  0.49204  0.8370399999999998  1.0000
  O   O36       1.0  0.6816100000000003  0.62139  0.93845  1.0000
  O   O37       1.0  0.50794  0.34891  0.6629  1.0000
  O   O38       1.0  0.3787700000000001  0.31813  0.56106  1.0000
  O   O39       1.0  0.6511600000000002  0.15913  0.6629  1.0000
  O   O40       1.0  0.6819100000000002  0.06085  0.5609  1.0000
  O   O41       1.0  0.8409599999999999  0.49198999999999987  0.66291  1.0000
  O   O42       1.0  0.93937  0.62112  0.56098  1.0000
  O   O43       1.0  0.49209000000000014  0.65118  0.16287  1.0000
  O   O44       1.0  0.6211500000000002  0.682  0.06078999999999999  1.0000
  O   O45       1.0  0.34893  0.84097  0.16295  1.0000
  O   O46       1.0  0.31822  0.93938  0.06112999999999999  1.0000
  O   O47       1.0  0.15905999999999995  0.50797  0.16288  1.0000
  O   O48       1.0  0.06082000000000001  0.37894  0.06069999999999999  1.0000
  O   O49       1.0  0.66666  0.33334  0.7499899999999999  1.0000
  O   O50       1.0  0.33334  0.66666  0.25  1.0000
