data_image0
_chemical_formula_structural       Zn7H28C44N18O16
_chemical_formula_sum              "Zn7 H28 C44 N18 O16"
_cell_length_a       9.75319
_cell_length_b       11.9718
_cell_length_c       15.298939999999998
_cell_angle_alpha    95.25733000000001
_cell_angle_beta     98.88144
_cell_angle_gamma    113.50147

_space_group_name_H-M_alt    "P 1"
_space_group_IT_number       1

loop_
  _space_group_symop_operation_xyz
  'x, y, z'

loop_
  _atom_site_type_symbol
  _atom_site_label
  _atom_site_symmetry_multiplicity
  _atom_site_fract_x
  _atom_site_fract_y
  _atom_site_fract_z
  _atom_site_occupancy
  Zn  Zn1       1.0  0.005680000000000038  0.92653  0.2027  1.0000
  Zn  Zn2       1.0  0.5534100000000001  0.8881900000000001  0.43385  1.0000
  Zn  Zn3       1.0  0.10855999999999998  0.80865  0.82883  1.0000
  Zn  Zn4       1.0  0.9943200000000001  0.07346000000000001  0.7973  1.0000
  Zn  Zn5       1.0  0.44659000000000004  0.11180000000000007  0.5661500000000002  1.0000
  Zn  Zn6       1.0  0.8914400000000001  0.19135  0.17117  1.0000
  Zn  Zn7       1.0  0.5  0.0  0.0  1.0000
  H   H1        1.0  0.33576  0.04299  0.15251  1.0000
  H   H2        1.0  0.9152300000000001  0.81612  0.9801300000000001  1.0000
  H   H3        1.0  0.82338  0.85099  0.35922  1.0000
  H   H4        1.0  0.6405  0.10614000000000001  0.29893  1.0000
  H   H5        1.0  0.26299  0.81432  0.26896  1.0000
  H   H6        1.0  0.18679  0.10042  0.40423000000000003  1.0000
  H   H7        1.0  0.8180500000000002  0.51051  0.16441  1.0000
  H   H8        1.0  0.4547300000000001  0.62371  0.09712  1.0000
  H   H9        1.0  0.26422  0.40375  0.06842  1.0000
  H   H10       1.0  0.35496000000000005  0.2362  0.07722  1.0000
  H   H11       1.0  0.2978  0.4999  0.31693  1.0000
  H   H12       1.0  0.7428199999999999  0.55125  0.45327  1.0000
  H   H13       1.0  0.68097  0.33019  0.39725  1.0000
  H   H14       1.0  0.42537  0.19625  0.29759  1.0000
  H   H15       1.0  0.6642400000000002  0.9570100000000002  0.8474900000000002  1.0000
  H   H16       1.0  0.08477  0.18388  0.01987  1.0000
  H   H17       1.0  0.17662  0.149  0.64078  1.0000
  H   H18       1.0  0.3595000000000002  0.89386  0.70107  1.0000
  H   H19       1.0  0.73701  0.18568  0.73104  1.0000
  H   H20       1.0  0.81321  0.8995799999999999  0.59577  1.0000
  H   H21       1.0  0.18194000000000005  0.4894800000000001  0.83559  1.0000
  H   H22       1.0  0.54527  0.37629  0.90288  1.0000
  H   H23       1.0  0.7357799999999999  0.59624  0.93158  1.0000
  H   H24       1.0  0.64504  0.7637900000000001  0.92278  1.0000
  H   H25       1.0  0.7022000000000002  0.5000900000000001  0.6830700000000002  1.0000
  H   H26       1.0  0.2571800000000001  0.44875000000000004  0.54673  1.0000
  H   H27       1.0  0.31903000000000004  0.66981  0.60275  1.0000
  H   H28       1.0  0.57463  0.80375  0.70241  1.0000
  C   C1        1.0  0.25001999999999996  0.98242  0.0952  1.0000
  C   C2        1.0  0.03674999999999994  0.86758  0.007000000000000002  1.0000
  C   C3        1.0  0.8022899999999998  0.92379  0.33062  1.0000
  C   C4        1.0  0.70725  0.052199999999999996  0.30001  1.0000
  C   C5        1.0  0.2713  0.88932  0.31799  1.0000
  C   C6        1.0  0.23065  0.03327999999999999  0.38629  1.0000
  C   C7        1.0  0.6476  0.26495  0.13035  1.0000
  C   C8        1.0  0.7629600000000002  0.7128  0.14481  1.0000
  C   C9        1.0  0.59141  0.36277  0.12153000000000003  1.0000
  C   C10       1.0  0.69719  0.48725  0.14217  1.0000
  C   C11       1.0  0.6481899999999999  0.5810499999999998  0.13181  1.0000
  C   C12       1.0  0.49138  0.54996  0.10533  1.0000
  C   C13       1.0  0.3855300000000001  0.42663000000000006  0.08811  1.0000
  C   C14       1.0  0.43531000000000003  0.33278  0.09371000000000002  1.0000
  C   C15       1.0  0.19282  0.25924  0.24357  1.0000
  C   C16       1.0  0.56562  0.67255  0.41872  1.0000
  C   C17       1.0  0.34555  0.33924  0.30195  1.0000
  C   C18       1.0  0.38163  0.46293  0.33423  1.0000
  C   C19       1.0  0.52529  0.53921  0.38779  1.0000
  C   C20       1.0  0.6326  0.4906  0.4107000000000001  1.0000
  C   C21       1.0  0.59694  0.36701999999999996  0.37917  1.0000
  C   C22       1.0  0.4545600000000001  0.29205000000000003  0.32429000000000013  1.0000
  C   C23       1.0  0.74998  0.017579999999999988  0.9048  1.0000
  C   C24       1.0  0.9632500000000003  0.1324200000000001  0.9930000000000002  1.0000
  C   C25       1.0  0.19771  0.07620999999999999  0.66938  1.0000
  C   C26       1.0  0.2927500000000001  0.9478  0.7  1.0000
  C   C27       1.0  0.7287  0.11067000000000002  0.68201  1.0000
  C   C28       1.0  0.7693500000000001  0.9667200000000001  0.61371  1.0000
  C   C29       1.0  0.3524  0.73505  0.86965  1.0000
  C   C30       1.0  0.23703999999999997  0.28719  0.85519  1.0000
  C   C31       1.0  0.40858999999999995  0.6372299999999997  0.87847  1.0000
  C   C32       1.0  0.30280000000000007  0.51275  0.8578300000000002  1.0000
  C   C33       1.0  0.3518000000000001  0.4189400000000001  0.8681900000000002  1.0000
  C   C34       1.0  0.50862  0.45004  0.89467  1.0000
  C   C35       1.0  0.61447  0.57337  0.91189  1.0000
  C   C36       1.0  0.56469  0.66722  0.90629  1.0000
  C   C37       1.0  0.80718  0.7407599999999999  0.75643  1.0000
  C   C38       1.0  0.43438000000000004  0.32745  0.58128  1.0000
  C   C39       1.0  0.65445  0.66076  0.69805  1.0000
  C   C40       1.0  0.61837  0.53706  0.66577  1.0000
  C   C41       1.0  0.47470999999999997  0.4607899999999999  0.6122200000000002  1.0000
  C   C42       1.0  0.3674000000000001  0.5094  0.5893000000000003  1.0000
  C   C43       1.0  0.40306  0.63298  0.62083  1.0000
  C   C44       1.0  0.54544  0.70794  0.67571  1.0000
  N   N1        1.0  0.2828399999999999  0.9522600000000001  0.0172  1.0000
  N   N2        1.0  0.14472999999999997  0.87844  0.96011  1.0000
  N   N3        1.0  0.09805999999999991  0.9309  0.09179  1.0000
  N   N4        1.0  0.87206  0.9828100000000001  0.2695300000000001  1.0000
  N   N5        1.0  0.8109700000000001  0.06493  0.24956  1.0000
  N   N6        1.0  0.6982200000000001  0.96477  0.35189  1.0000
  N   N7        1.0  0.3743800000000001  0.93295  0.39537  1.0000
  N   N8        1.0  0.3475  0.025330000000000012  0.43936  1.0000
  N   N9        1.0  0.18002000000000004  0.94986  0.30955  1.0000
  N   N10       1.0  0.7171600000000002  0.04773000000000007  0.9828000000000002  1.0000
  N   N11       1.0  0.8552699999999999  0.12155  0.03989  1.0000
  N   N12       1.0  0.90194  0.06909000000000005  0.9082100000000002  1.0000
  N   N13       1.0  0.12794  0.017190000000000004  0.73047  1.0000
  N   N14       1.0  0.18902999999999998  0.93507  0.75044  1.0000
  N   N15       1.0  0.30178  0.03522999999999999  0.64811  1.0000
  N   N16       1.0  0.62562  0.06705  0.60464  1.0000
  N   N17       1.0  0.6525000000000001  0.9746700000000001  0.56064  1.0000
  N   N18       1.0  0.81998  0.050140000000000004  0.69045  1.0000
  O   O1        1.0  0.55781  0.15128  0.0979  1.0000
  O   O2        1.0  0.78512  0.30048  0.17306  1.0000
  O   O3        1.0  0.89552  0.74045  0.1957  1.0000
  O   O4        1.0  0.72998  0.79042  0.10652000000000003  1.0000
  O   O5        1.0  0.16007  0.14806  0.21291  1.0000
  O   O6        1.0  0.09928000000000001  0.31078  0.22685  1.0000
  O   O7        1.0  0.45783000000000007  0.70932  0.39581  1.0000
  O   O8        1.0  0.6971999999999999  0.7449599999999998  0.4620500000000001  1.0000
  O   O9        1.0  0.44219000000000025  0.84872  0.9021000000000002  1.0000
  O   O10       1.0  0.21488000000000007  0.69951  0.8269400000000002  1.0000
  O   O11       1.0  0.1044800000000001  0.25954000000000005  0.8043000000000002  1.0000
  O   O12       1.0  0.27002000000000004  0.20958000000000002  0.89349  1.0000
  O   O13       1.0  0.83992  0.8519299999999999  0.78709  1.0000
  O   O14       1.0  0.9007200000000001  0.68922  0.77315  1.0000
  O   O15       1.0  0.5421700000000002  0.29067  0.60419  1.0000
  O   O16       1.0  0.3028  0.25504  0.53795  1.0000
