data_image0
_chemical_formula_structural       Gd4H18C48N6O36
_chemical_formula_sum              "Gd4 H18 C48 N6 O36"
_cell_length_a       13.74221
_cell_length_b       13.7364
_cell_length_c       16.3987
_cell_angle_alpha    66.79113
_cell_angle_beta     66.72952
_cell_angle_gamma    71.37479

_space_group_name_H-M_alt    "P 1"
_space_group_IT_number       1

loop_
  _space_group_symop_operation_xyz
  'x, y, z'

loop_
  _atom_site_type_symbol
  _atom_site_label
  _atom_site_symmetry_multiplicity
  _atom_site_fract_x
  _atom_site_fract_y
  _atom_site_fract_z
  _atom_site_occupancy
  Gd  Gd1       1.0  0.5614299999999999  0.8510099999999999  0.99884  1.0000
  Gd  Gd2       1.0  0.14988  0.43850999999999996  0.50076  1.0000
  Gd  Gd3       1.0  0.4385700000000001  0.149  0.00116  1.0000
  Gd  Gd4       1.0  0.85013  0.5615  0.4992399999999999  1.0000
  H   H1        1.0  0.6432600000000006  0.91297  0.45573  1.0000
  H   H2        1.0  0.8709199999999999  0.9197  0.85933  1.0000
  H   H3        1.0  0.65766  0.75583  0.26837  1.0000
  H   H4        1.0  0.54253  0.10092  0.21203  1.0000
  H   H5        1.0  0.08796000000000001  0.35559  0.04456  1.0000
  H   H6        1.0  0.08115  0.12934000000000007  0.6405099999999999  1.0000
  H   H7        1.0  0.24311000000000002  0.34191  0.23303  1.0000
  H   H8        1.0  0.8986200000000004  0.45895  0.28696  1.0000
  H   H9        1.0  0.35675  0.08703999999999999  0.54427  1.0000
  H   H10       1.0  0.1290900000000001  0.08031000000000003  0.14066999999999996  1.0000
  H   H11       1.0  0.34235  0.24418000000000006  0.7316299999999998  1.0000
  H   H12       1.0  0.4574800000000002  0.8990899999999997  0.78797  1.0000
  H   H13       1.0  0.9120400000000003  0.6444200000000001  0.9554399999999997  1.0000
  H   H14       1.0  0.91886  0.8706699999999999  0.35949  1.0000
  H   H15       1.0  0.7569000000000005  0.6581  0.76697  1.0000
  H   H16       1.0  0.10138999999999994  0.54105  0.71304  1.0000
  H   H17       1.0  0.74221  0.25861  0.74946  1.0000
  H   H18       1.0  0.2577900000000001  0.7414  0.25054  1.0000
  C   C1        1.0  0.7945900000000002  0.08804999999999998  0.81261  1.0000
  C   C2        1.0  0.6309300000000004  0.91685  0.393  1.0000
  C   C3        1.0  0.6853800000000001  0.07099  0.8797999999999999  1.0000
  C   C4        1.0  0.57463  0.9329999999999999  0.14790999999999999  1.0000
  C   C5        1.0  0.8815800000000003  9.000000000007792e-05  0.8120299999999998  1.0000
  C   C6        1.0  0.6384300000000002  0.82882  0.28743999999999986  1.0000
  C   C7        1.0  0.5962300000000005  0.92844  0.23165  1.0000
  C   C8        1.0  0.65544  0.8233200000000003  0.36793  1.0000
  C   C9        1.0  0.70404  0.71985  0.42648  1.0000
  C   C10       1.0  0.5737600000000003  0.02285  0.25506  1.0000
  C   C11       1.0  0.59166  0.01496000000000005  0.33550999999999986  1.0000
  C   C12       1.0  0.9126400000000001  0.20568000000000003  0.68697  1.0000
  C   C13       1.0  0.08362000000000003  0.36843999999999993  0.10721  1.0000
  C   C14       1.0  0.9295100000000001  0.3148  0.61956  1.0000
  C   C15       1.0  0.06602000000000001  0.42680000000000007  0.35175  1.0000
  C   C16       1.0  0.000680000000000048  0.11878000000000002  0.6878099999999998  1.0000
  C   C17       1.0  0.17062999999999998  0.36129  0.21325999999999995  1.0000
  C   C18       1.0  0.07091  0.40432999999999997  0.26836  1.0000
  C   C19       1.0  0.1766699999999999  0.34374  0.13285  1.0000
  C   C20       1.0  0.28043  0.29444  0.07506  1.0000
  C   C21       1.0  0.9768500000000003  0.42702  0.24449  1.0000
  C   C22       1.0  0.9853  0.40836  0.16425  1.0000
  C   C23       1.0  0.20542000000000007  0.91195  0.18738999999999997  1.0000
  C   C24       1.0  0.36906999999999995  0.08315999999999998  0.607  1.0000
  C   C25       1.0  0.3146300000000001  0.9290199999999998  0.12019999999999999  1.0000
  C   C26       1.0  0.4253800000000002  0.06699999999999999  0.85209  1.0000
  C   C27       1.0  0.11843000000000004  0.99992  0.18796999999999994  1.0000
  C   C28       1.0  0.36158  0.17118999999999998  0.71256  1.0000
  C   C29       1.0  0.40378  0.07157000000000001  0.76835  1.0000
  C   C30       1.0  0.34457000000000004  0.17667999999999995  0.63207  1.0000
  C   C31       1.0  0.29597000000000007  0.28015  0.57352  1.0000
  C   C32       1.0  0.42624999999999996  0.97716  0.74494  1.0000
  C   C33       1.0  0.40835000000000005  0.98504  0.66449  1.0000
  C   C34       1.0  0.08736  0.79432  0.3130299999999999  1.0000
  C   C35       1.0  0.91639  0.6315599999999998  0.8927999999999998  1.0000
  C   C36       1.0  0.07049999999999992  0.6852100000000002  0.38044  1.0000
  C   C37       1.0  0.9339900000000004  0.5732  0.6482499999999999  1.0000
  C   C38       1.0  0.99933  0.88122  0.31219  1.0000
  C   C39       1.0  0.8293700000000002  0.63871  0.78674  1.0000
  C   C40       1.0  0.9291000000000001  0.5956699999999999  0.73164  1.0000
  C   C41       1.0  0.8233400000000001  0.65627  0.8671499999999998  1.0000
  C   C42       1.0  0.7195799999999997  0.7055699999999998  0.92494  1.0000
  C   C43       1.0  0.023150000000000122  0.5729899999999998  0.75551  1.0000
  C   C44       1.0  0.014709999999999987  0.59165  0.83575  1.0000
  C   C45       1.0  0.80993  0.19059000000000006  0.7497299999999999  1.0000
  C   C46       1.0  0.98313  0.01740000000000001  0.75003  1.0000
  C   C47       1.0  0.19007000000000004  0.8094099999999997  0.25027  1.0000
  C   C48       1.0  0.01688000000000008  0.9825999999999998  0.24996999999999994  1.0000
  N   N1        1.0  0.56731  0.11390000000000002  0.36138  1.0000
  N   N2        1.0  0.8868300000000002  0.43221  0.13811  1.0000
  N   N3        1.0  0.43270000000000014  0.8861  0.63862  1.0000
  N   N4        1.0  0.11318000000000004  0.5678000000000002  0.8618899999999999  1.0000
  N   N5        1.0  0.07564000000000008  0.9246799999999997  0.7501299999999999  1.0000
  N   N6        1.0  0.9243700000000002  0.07532  0.24986999999999995  1.0000
  O   O1        1.0  0.6126700000000004  0.15317000000000008  0.8934799999999999  1.0000
  O   O2        1.0  0.6717900000000001  0.9734100000000002  0.9198799999999998  1.0000
  O   O3        1.0  0.59919  0.84623  0.12748  1.0000
  O   O4        1.0  0.5318200000000002  0.023990000000000015  0.09974999999999998  1.0000
  O   O5        1.0  0.7134000000000001  0.71783  0.50184  1.0000
  O   O6        1.0  0.7426000000000004  0.6353399999999999  0.39885  1.0000
  O   O7        1.0  0.05585000000000005  0.8337  0.7997399999999999  1.0000
  O   O8        1.0  0.57833  0.10286999999999999  0.43637  1.0000
  O   O9        1.0  0.537  0.20092000000000002  0.30688  1.0000
  O   O10       1.0  0.84707  0.38727999999999996  0.60643  1.0000
  O   O11       1.0  0.02703999999999999  0.32847  0.57891  1.0000
  O   O12       1.0  0.15305  0.40447999999999995  0.37116  1.0000
  O   O13       1.0  0.9745700000000003  0.46815999999999997  0.40048  1.0000
  O   O14       1.0  0.2846100000000001  0.2872500000000001  0.9981099999999999  1.0000
  O   O15       1.0  0.36324000000000006  0.25328  0.10476999999999997  1.0000
  O   O16       1.0  0.16673999999999997  0.94424  0.7005  1.0000
  O   O17       1.0  0.8986800000000003  0.42012999999999995  0.06334  1.0000
  O   O18       1.0  0.79951  0.46302  0.19220999999999996  1.0000
  O   O19       1.0  0.3873400000000001  0.84684  0.10651999999999998  1.0000
  O   O20       1.0  0.32822  0.0266  0.08012  1.0000
  O   O21       1.0  0.4008200000000001  0.1537700000000001  0.8725199999999997  1.0000
  O   O22       1.0  0.4681900000000001  0.97602  0.9002499999999999  1.0000
  O   O23       1.0  0.2866099999999999  0.28218  0.49816  1.0000
  O   O24       1.0  0.25741000000000025  0.36466000000000004  0.60115  1.0000
  O   O25       1.0  0.9441500000000002  0.16629999999999998  0.20026  1.0000
  O   O26       1.0  0.42168  0.89713  0.56363  1.0000
  O   O27       1.0  0.46301  0.79909  0.69312  1.0000
  O   O28       1.0  0.1529400000000001  0.6127199999999999  0.39357  1.0000
  O   O29       1.0  0.9729700000000002  0.67153  0.42109  1.0000
  O   O30       1.0  0.84696  0.5955299999999998  0.62884  1.0000
  O   O31       1.0  0.025439999999999997  0.53184  0.59952  1.0000
  O   O32       1.0  0.7154000000000001  0.71275  0.00189  1.0000
  O   O33       1.0  0.63677  0.7467200000000002  0.8952299999999997  1.0000
  O   O34       1.0  0.83327  0.05575999999999998  0.2995  1.0000
  O   O35       1.0  0.10132999999999999  0.57987  0.93666  1.0000
  O   O36       1.0  0.2005000000000001  0.5369899999999999  0.80779  1.0000
