data_image0
_chemical_formula_structural       Cd6H28C60O24
_chemical_formula_sum              "Cd6 H28 C60 O24"
_cell_length_a       10.16925
_cell_length_b       11.21978
_cell_length_c       16.806150000000002
_cell_angle_alpha    96.40087
_cell_angle_beta     89.9118
_cell_angle_gamma    117.04443

_space_group_name_H-M_alt    "P 1"
_space_group_IT_number       1

loop_
  _space_group_symop_operation_xyz
  'x, y, z'

loop_
  _atom_site_type_symbol
  _atom_site_label
  _atom_site_symmetry_multiplicity
  _atom_site_fract_x
  _atom_site_fract_y
  _atom_site_fract_z
  _atom_site_occupancy
  Cd  Cd1       1.0  0.14624  0.18822999999999998  0.027769999999999993  1.0000
  Cd  Cd2       1.0  0.9591599999999998  0.81187  0.47289  1.0000
  Cd  Cd3       1.0  0.85376  0.81177  0.97223  1.0000
  Cd  Cd4       1.0  0.040839999999999994  0.18812999999999996  0.52711  1.0000
  Cd  Cd5       1.0  0.4999999999999999  0.5  0.0  1.0000
  Cd  Cd6       1.0  0.0  0.5  0.5  1.0000
  H   H1        1.0  0.09634999999999992  0.4655699999999998  0.2549399999999999  1.0000
  H   H2        1.0  0.5332399999999999  0.62769  0.16685  1.0000
  H   H3        1.0  0.16889999999999997  0.6771199999999999  0.3459699999999999  1.0000
  H   H4        1.0  0.6050899999999998  0.8394599999999999  0.25404  1.0000
  H   H5        1.0  0.2040399999999999  0.88024  0.3476399999999999  1.0000
  H   H6        1.0  0.6629199999999997  0.9683  0.37473  1.0000
  H   H7        1.0  0.51738  0.25082999999999994  0.48188999999999993  1.0000
  H   H8        1.0  0.62842  0.53327  0.24618999999999996  1.0000
  H   H9        1.0  0.9053499999999998  0.3737599999999999  0.3336099999999999  1.0000
  H   H10       1.0  0.49179  0.32241  0.15421999999999994  1.0000
  H   H11       1.0  0.76668  0.16202999999999998  0.24602999999999997  1.0000
  H   H12       1.0  0.32390999999999986  0.11904999999999998  0.15253999999999995  1.0000
  H   H13       1.0  0.69527  0.03175  0.12599  1.0000
  H   H14       1.0  0.26775  0.7499  0.01729  1.0000
  H   H15       1.0  0.9036499999999998  0.53443  0.74506  1.0000
  H   H16       1.0  0.46675999999999995  0.3723099999999999  0.8331499999999997  1.0000
  H   H17       1.0  0.8310999999999998  0.3228799999999999  0.6540299999999998  1.0000
  H   H18       1.0  0.3949099999999999  0.16053999999999993  0.7459599999999997  1.0000
  H   H19       1.0  0.79597  0.11976  0.65236  1.0000
  H   H20       1.0  0.33708  0.031699999999999985  0.62527  1.0000
  H   H21       1.0  0.48261999999999994  0.74917  0.51811  1.0000
  H   H22       1.0  0.37157999999999997  0.4667299999999999  0.75381  1.0000
  H   H23       1.0  0.09466  0.62624  0.6663899999999998  1.0000
  H   H24       1.0  0.5082199999999999  0.6775899999999999  0.8457799999999998  1.0000
  H   H25       1.0  0.2333199999999998  0.8379699999999999  0.75397  1.0000
  H   H26       1.0  0.6761  0.8809499999999999  0.84747  1.0000
  H   H27       1.0  0.30473999999999996  0.96825  0.8740099999999997  1.0000
  H   H28       1.0  0.7322499999999997  0.2501  0.98271  1.0000
  C   C1        1.0  0.25514000000000003  0.40496999999999994  0.14864  1.0000
  C   C2        1.0  0.30824  0.53186  0.2042  1.0000
  C   C3        1.0  0.20749  0.54807  0.25597  1.0000
  C   C4        1.0  0.45233999999999996  0.63771  0.20567  1.0000
  C   C5        1.0  0.2485499999999999  0.6679599999999999  0.30586  1.0000
  C   C6        1.0  0.49371999999999994  0.75812  0.25574  1.0000
  C   C7        1.0  0.39135999999999993  0.77638  0.3055999999999999  1.0000
  C   C8        1.0  0.4284899999999999  0.90645  0.35485  1.0000
  C   C9        1.0  0.31658  0.9446699999999999  0.3720599999999999  1.0000
  C   C10       1.0  0.57349  0.9951299999999998  0.38505  1.0000
  C   C11       1.0  0.34718  0.06648  0.41887  1.0000
  C   C12       1.0  0.60593  0.11958  0.42939  1.0000
  C   C13       1.0  0.49270999999999987  0.15511  0.44671  1.0000
  C   C14       1.0  0.22604  0.10074  0.4425999999999999  1.0000
  C   C15       1.0  0.76165  0.21818999999999997  0.45646  1.0000
  C   C16       1.0  0.84837  0.5942999999999999  0.3529299999999999  1.0000
  C   C17       1.0  0.7747499999999999  0.46794  0.29687  1.0000
  C   C18       1.0  0.65787  0.45138  0.24505  1.0000
  C   C19       1.0  0.81408  0.36293  0.29487  1.0000
  C   C20       1.0  0.58016  0.3318  0.19463  1.0000
  C   C21       1.0  0.73581  0.24271  0.24452999999999997  1.0000
  C   C22       1.0  0.61513  0.22382  0.19467999999999994  1.0000
  C   C23       1.0  0.52258  0.09356  0.14535  1.0000
  C   C24       1.0  0.37245999999999996  0.055119999999999995  0.12798  1.0000
  C   C25       1.0  0.5790299999999999  0.004889999999999994  0.11533999999999997  1.0000
  C   C26       1.0  0.2815699999999999  0.9336  0.08081999999999998  1.0000
  C   C27       1.0  0.48711  0.88054  0.07067  1.0000
  C   C28       1.0  0.3385699999999999  0.8452499999999998  0.0529  1.0000
  C   C29       1.0  0.12649999999999997  0.8996399999999999  0.05693  1.0000
  C   C30       1.0  0.54402  0.78188  0.04345  1.0000
  C   C31       1.0  0.7448699999999997  0.59503  0.85136  1.0000
  C   C32       1.0  0.6917699999999999  0.46814  0.7958  1.0000
  C   C33       1.0  0.79251  0.45193  0.74403  1.0000
  C   C34       1.0  0.5476699999999999  0.36229  0.79433  1.0000
  C   C35       1.0  0.7514599999999999  0.33203999999999995  0.6941399999999999  1.0000
  C   C36       1.0  0.50628  0.24187999999999998  0.74426  1.0000
  C   C37       1.0  0.60864  0.22361999999999999  0.6944  1.0000
  C   C38       1.0  0.5715099999999999  0.09354999999999998  0.64515  1.0000
  C   C39       1.0  0.68342  0.05532999999999999  0.62794  1.0000
  C   C40       1.0  0.4265099999999999  0.004869999999999985  0.6149499999999999  1.0000
  C   C41       1.0  0.65282  0.93352  0.58113  1.0000
  C   C42       1.0  0.3940799999999999  0.88042  0.57061  1.0000
  C   C43       1.0  0.50729  0.84489  0.55329  1.0000
  C   C44       1.0  0.7739599999999998  0.8992599999999998  0.5574  1.0000
  C   C45       1.0  0.23835999999999993  0.7818099999999999  0.54354  1.0000
  C   C46       1.0  0.15162999999999996  0.40569999999999995  0.64707  1.0000
  C   C47       1.0  0.22526  0.53206  0.70313  1.0000
  C   C48       1.0  0.34214  0.54862  0.7549499999999999  1.0000
  C   C49       1.0  0.18591999999999995  0.6370699999999999  0.7051299999999998  1.0000
  C   C50       1.0  0.4198399999999999  0.6681999999999999  0.80538  1.0000
  C   C51       1.0  0.26419  0.75729  0.75547  1.0000
  C   C52       1.0  0.3848799999999999  0.77618  0.8053199999999998  1.0000
  C   C53       1.0  0.4774199999999999  0.9064399999999999  0.85465  1.0000
  C   C54       1.0  0.62754  0.94488  0.87202  1.0000
  C   C55       1.0  0.42096999999999996  0.99511  0.88466  1.0000
  C   C56       1.0  0.71843  0.06639999999999997  0.91918  1.0000
  C   C57       1.0  0.5129  0.11946000000000001  0.92933  1.0000
  C   C58       1.0  0.6614399999999998  0.15474999999999997  0.9470999999999999  1.0000
  C   C59       1.0  0.8735099999999999  0.10035999999999996  0.9430699999999997  1.0000
  C   C60       1.0  0.45597999999999994  0.21811999999999993  0.9565499999999998  1.0000
  O   O1        1.0  0.3386699999999999  0.39323  0.09158  1.0000
  O   O2        1.0  0.13017  0.30742  0.15466  1.0000
  O   O3        1.0  0.07904999999999983  0.98816  0.07159  1.0000
  O   O4        1.0  0.9567099999999997  0.2171  0.97969  1.0000
  O   O5        1.0  0.32084999999999997  0.18732999999999997  0.94062  1.0000
  O   O6        1.0  0.44696999999999987  0.6674999999999999  0.00815  1.0000
  O   O7        1.0  0.9465099999999999  0.60687  0.40837  1.0000
  O   O8        1.0  0.81868  0.6907899999999999  0.34869  1.0000
  O   O9        1.0  0.08954  0.01231  0.42824  1.0000
  O   O10       1.0  0.73983  0.78238  0.521  1.0000
  O   O11       1.0  0.13389  0.81238  0.55953  1.0000
  O   O12       1.0  0.7791699999999999  0.33255999999999997  0.49171999999999993  1.0000
  O   O13       1.0  0.6613299999999999  0.60677  0.90842  1.0000
  O   O14       1.0  0.86983  0.69258  0.84534  1.0000
  O   O15       1.0  0.9209499999999999  0.011839999999999958  0.9284099999999997  1.0000
  O   O16       1.0  0.04329999999999999  0.7829  0.020309999999999995  1.0000
  O   O17       1.0  0.6791500000000001  0.81267  0.059389999999999984  1.0000
  O   O18       1.0  0.55303  0.3325  0.99185  1.0000
  O   O19       1.0  0.05349000000000001  0.3931299999999999  0.59163  1.0000
  O   O20       1.0  0.18132999999999996  0.30921  0.65131  1.0000
  O   O21       1.0  0.9104699999999998  0.9876899999999997  0.57176  1.0000
  O   O22       1.0  0.2601699999999999  0.21761999999999995  0.47899999999999987  1.0000
  O   O23       1.0  0.86611  0.18762  0.44047  1.0000
  O   O24       1.0  0.22082999999999997  0.6674399999999999  0.50828  1.0000
