data_image0
_chemical_formula_structural       Mn4H32C48N8O16
_chemical_formula_sum              "Mn4 H32 C48 N8 O16"
_cell_length_a       10.0078
_cell_length_b       10.513340000000001
_cell_length_c       13.43819
_cell_angle_alpha    90.0
_cell_angle_beta     90.0
_cell_angle_gamma    105.77350000000001

_space_group_name_H-M_alt    "P 1"
_space_group_IT_number       1

loop_
  _space_group_symop_operation_xyz
  'x, y, z'

loop_
  _atom_site_type_symbol
  _atom_site_label
  _atom_site_symmetry_multiplicity
  _atom_site_fract_x
  _atom_site_fract_y
  _atom_site_fract_z
  _atom_site_occupancy
  Mn  Mn1       1.0  0.3714  0.7531000000000001  0.8862100000000003  1.0000
  Mn  Mn2       1.0  0.8773099999999999  0.7458  0.88808  1.0000
  Mn  Mn3       1.0  0.6286  0.2469  0.38621  1.0000
  Mn  Mn4       1.0  0.12268999999999998  0.2542  0.38808  1.0000
  H   H1        1.0  0.5941899999999999  0.6737800000000002  0.18081000000000005  1.0000
  H   H2        1.0  0.38595000000000007  0.4658700000000001  0.82863  1.0000
  H   H3        1.0  0.10967  0.49089  0.63126  1.0000
  H   H4        1.0  0.3093099999999999  0.36770000000000014  0.20432  1.0000
  H   H5        1.0  0.05865000000000006  0.8596500000000002  0.07658  1.0000
  H   H6        1.0  0.6237899999999998  0.28172  0.61946  1.0000
  H   H7        1.0  0.08654000000000008  0.6213000000000002  0.78426  1.0000
  H   H8        1.0  0.94892  0.004170000000000001  0.72986  1.0000
  H   H9        1.0  0.68843  0.8364  0.5956700000000003  1.0000
  H   H10       1.0  0.6681  0.9721300000000002  0.44532  1.0000
  H   H11       1.0  0.05108000000000003  0.9958300000000001  0.22986000000000004  1.0000
  H   H12       1.0  0.62592  0.1537  0.77705  1.0000
  H   H13       1.0  0.37621  0.71827  0.11946000000000002  1.0000
  H   H14       1.0  0.61405  0.53412  0.3286300000000001  1.0000
  H   H15       1.0  0.3319  0.02787  0.9453200000000003  1.0000
  H   H16       1.0  0.9134599999999998  0.37869  0.28426000000000007  1.0000
  H   H17       1.0  0.37759  0.65127  0.4940000000000001  1.0000
  H   H18       1.0  0.62241  0.3487200000000001  0.9940000000000001  1.0000
  H   H19       1.0  0.40581  0.32622000000000007  0.68081  1.0000
  H   H20       1.0  0.31157  0.16359  0.09567  1.0000
  H   H21       1.0  0.9413399999999997  0.14035  0.57658  1.0000
  H   H22       1.0  0.89033  0.50911  0.13126000000000002  1.0000
  H   H23       1.0  0.70005  0.5053700000000001  0.54625  1.0000
  H   H24       1.0  0.6906899999999999  0.6323000000000001  0.7043200000000001  1.0000
  H   H25       1.0  0.36715  0.7803  0.6503100000000003  1.0000
  H   H26       1.0  0.29995  0.4946200000000001  0.04625  1.0000
  H   H27       1.0  0.66687  0.87657  0.98953  1.0000
  H   H28       1.0  0.35938999999999993  0.9948  0.6414900000000002  1.0000
  H   H29       1.0  0.33313  0.12342000000000003  0.48953000000000013  1.0000
  H   H30       1.0  0.64061  0.005190000000000001  0.14149  1.0000
  H   H31       1.0  0.3740799999999999  0.8463000000000002  0.27705  1.0000
  H   H32       1.0  0.63285  0.2197  0.15031  1.0000
  C   C1        1.0  0.99599  0.4050000000000001  0.22923000000000004  1.0000
  C   C2        1.0  0.6167599999999999  0.39166000000000006  0.06709  1.0000
  C   C3        1.0  0.63785  0.11103000000000003  0.7049100000000003  1.0000
  C   C4        1.0  0.38323999999999997  0.60834  0.56709  1.0000
  C   C5        1.0  0.03198  0.10597  0.59375  1.0000
  C   C6        1.0  0.78804  0.5319300000000001  0.59684  1.0000
  C   C7        1.0  0.67033  0.93336  0.6037800000000002  1.0000
  C   C8        1.0  0.9632599999999999  0.96816  0.17906  1.0000
  C   C9        1.0  0.9070899999999998  0.49058  0.57678  1.0000
  C   C10       1.0  0.36445999999999995  0.81805  0.11786  1.0000
  C   C11       1.0  0.09291  0.50942  0.07678  1.0000
  C   C12       1.0  0.3392899999999999  0.99144  0.02028  1.0000
  C   C13       1.0  0.6031999999999998  0.52045  0.07524000000000003  1.0000
  C   C14       1.0  0.16789999999999997  0.9085500000000001  0.7886000000000002  1.0000
  C   C15       1.0  0.21752000000000002  0.3983400000000001  0.18387000000000006  1.0000
  C   C16       1.0  0.6607  0.00856  0.52028  1.0000
  C   C17       1.0  0.7353600000000001  0.9757900000000002  0.12897  1.0000
  C   C18       1.0  0.39778  0.42667000000000005  0.6709  1.0000
  C   C19       1.0  0.016620000000000017  0.52268  0.6448200000000001  1.0000
  C   C20       1.0  0.6355399999999999  0.18195000000000003  0.61786  1.0000
  C   C21       1.0  0.21196  0.46807  0.09684  1.0000
  C   C22       1.0  0.98337  0.47732  0.14482  1.0000
  C   C23       1.0  0.60222  0.57333  0.1709  1.0000
  C   C24       1.0  0.3621500000000001  0.8889600000000002  0.20491000000000006  1.0000
  C   C25       1.0  0.03674  0.031830000000000004  0.67906  1.0000
  C   C26       1.0  0.66354  0.90524  0.79096  1.0000
  C   C27       1.0  0.39680000000000004  0.4795500000000001  0.57524  1.0000
  C   C28       1.0  0.62308  0.32014  0.15338000000000002  1.0000
  C   C29       1.0  0.5858  0.5968200000000001  0.98316  1.0000
  C   C30       1.0  0.78248  0.6016500000000001  0.68387  1.0000
  C   C31       1.0  0.004010000000000005  0.595  0.7292300000000003  1.0000
  C   C32       1.0  0.38725999999999994  0.50373  0.75323  1.0000
  C   C33       1.0  0.9680199999999999  0.89403  0.09375000000000003  1.0000
  C   C34       1.0  0.2513599999999999  0.09753000000000002  0.54525  1.0000
  C   C35       1.0  0.37692  0.6798500000000001  0.65338  1.0000
  C   C36       1.0  0.6561900000000002  0.9839000000000001  0.6984200000000002  1.0000
  C   C37       1.0  0.08361000000000002  0.58864  0.9849  1.0000
  C   C38       1.0  0.3438  0.01609  0.19842  1.0000
  C   C39       1.0  0.15554  0.9892500000000001  0.6975700000000002  1.0000
  C   C40       1.0  0.91639  0.41135  0.4849  1.0000
  C   C41       1.0  0.26463999999999993  0.024210000000000002  0.62897  1.0000
  C   C42       1.0  0.7486399999999999  0.90246  0.04525  1.0000
  C   C43       1.0  0.32967  0.06663000000000001  0.10378000000000003  1.0000
  C   C44       1.0  0.33645999999999987  0.09475  0.29096  1.0000
  C   C45       1.0  0.83209  0.09145  0.2886000000000001  1.0000
  C   C46       1.0  0.61274  0.4962600000000001  0.25323000000000007  1.0000
  C   C47       1.0  0.8444599999999998  0.01074  0.19757000000000005  1.0000
  C   C48       1.0  0.41419999999999996  0.40318  0.4831600000000001  1.0000
  N   N1        1.0  0.37967  0.62976  0.74572  1.0000
  N   N2        1.0  0.13678  0.13855  0.52705  1.0000
  N   N3        1.0  0.62033  0.37024  0.24572  1.0000
  N   N4        1.0  0.8632199999999999  0.86145  0.02705  1.0000
  N   N5        1.0  0.11119999999999997  0.36614  0.24923000000000003  1.0000
  N   N6        1.0  0.35573  0.86837  0.02634  1.0000
  N   N7        1.0  0.8888  0.6338500000000001  0.74923  1.0000
  N   N8        1.0  0.64427  0.13163000000000002  0.52634  1.0000
  O   O1        1.0  0.23176999999999998  0.14016  0.29761000000000004  1.0000
  O   O2        1.0  0.97367  0.6254900000000001  0.97497  1.0000
  O   O3        1.0  0.43337  0.10576000000000002  0.35412  1.0000
  O   O4        1.0  0.72178  0.13027  0.29303  1.0000
  O   O5        1.0  0.81458  0.3895400000000001  0.42421  1.0000
  O   O6        1.0  0.07248  0.88781  0.8536100000000001  1.0000
  O   O7        1.0  0.51994  0.35744  0.48385  1.0000
  O   O8        1.0  0.32737  0.39433  0.4133900000000001  1.0000
  O   O9        1.0  0.56663  0.89423  0.8541200000000002  1.0000
  O   O10       1.0  0.9275199999999998  0.11218  0.35361  1.0000
  O   O11       1.0  0.27822  0.86973  0.7930300000000002  1.0000
  O   O12       1.0  0.48006  0.64256  0.98385  1.0000
  O   O13       1.0  0.18541  0.61046  0.9242100000000001  1.0000
  O   O14       1.0  0.7682300000000001  0.85984  0.7976100000000002  1.0000
  O   O15       1.0  0.6726299999999998  0.6056600000000002  0.9133900000000003  1.0000
  O   O16       1.0  0.026330000000000017  0.37450000000000006  0.4749700000000001  1.0000
