data_image0
_chemical_formula_structural       Cu6H39C81N3O24
_chemical_formula_sum              "Cu6 H39 C81 N3 O24"
_cell_length_a       17.64055
_cell_length_b       17.64052
_cell_length_c       17.64043
_cell_angle_alpha    97.33912
_cell_angle_beta     97.32946
_cell_angle_gamma    97.32943

_space_group_name_H-M_alt    "P 1"
_space_group_IT_number       1

loop_
  _space_group_symop_operation_xyz
  'x, y, z'

loop_
  _atom_site_type_symbol
  _atom_site_label
  _atom_site_symmetry_multiplicity
  _atom_site_fract_x
  _atom_site_fract_y
  _atom_site_fract_z
  _atom_site_occupancy
  Cu  Cu1       1.0  0.40492999999999996  0.7267899999999999  0.40492  1.0000
  Cu  Cu2       1.0  0.45782  0.86064  0.45783  1.0000
  Cu  Cu3       1.0  0.40492999999999996  0.40492  0.7268  1.0000
  Cu  Cu4       1.0  0.45782  0.45783  0.86065  1.0000
  Cu  Cu5       1.0  0.72679  0.40493  0.40493  1.0000
  Cu  Cu6       1.0  0.86064  0.45782  0.45783  1.0000
  H   H1        1.0  0.37748  0.73382  0.16488999999999998  1.0000
  H   H2        1.0  0.3743899999999999  0.76099  0.030229999999999996  1.0000
  H   H3        1.0  0.47650999999999993  0.9963  0.11363  1.0000
  H   H4        1.0  0.47846  0.96883  0.25  1.0000
  H   H5        1.0  0.43943  0.77735  0.93993  1.0000
  H   H6        1.0  0.44073  0.69298  0.85643  1.0000
  H   H7        1.0  0.16490999999999997  0.37747999999999987  0.73382  1.0000
  H   H8        1.0  0.03024999999999999  0.37439  0.76099  1.0000
  H   H9        1.0  0.11361  0.47651999999999994  0.9963200000000001  1.0000
  H   H10       1.0  0.24997999999999998  0.47845999999999994  0.9688299999999999  1.0000
  H   H11       1.0  0.9399300000000002  0.43943  0.7773499999999998  1.0000
  H   H12       1.0  0.85643  0.44073  0.69298  1.0000
  H   H13       1.0  0.73382  0.16491  0.37749  1.0000
  H   H14       1.0  0.7609899999999998  0.030239999999999993  0.37439  1.0000
  H   H15       1.0  0.9962999999999999  0.11362  0.47652000000000005  1.0000
  H   H16       1.0  0.96882  0.24998999999999996  0.47845999999999994  1.0000
  H   H17       1.0  0.77734  0.9399299999999999  0.43944  1.0000
  H   H18       1.0  0.69297  0.85643  0.44073  1.0000
  H   H19       1.0  0.16491  0.73381  0.37748  1.0000
  H   H20       1.0  0.030250000000000013  0.76099  0.37439  1.0000
  H   H21       1.0  0.11361  0.99631  0.47652000000000005  1.0000
  H   H22       1.0  0.24997999999999998  0.96882  0.47847  1.0000
  H   H23       1.0  0.9399300000000002  0.77734  0.43944  1.0000
  H   H24       1.0  0.85643  0.69297  0.44073  1.0000
  H   H25       1.0  0.73382  0.37747999999999987  0.16490999999999997  1.0000
  H   H26       1.0  0.7609899999999998  0.37439  0.03024  1.0000
  H   H27       1.0  0.9962999999999999  0.47651999999999994  0.11362  1.0000
  H   H28       1.0  0.96882  0.47845999999999994  0.24999  1.0000
  H   H29       1.0  0.77734  0.43943  0.93994  1.0000
  H   H30       1.0  0.69297  0.44073  0.85644  1.0000
  H   H31       1.0  0.37748  0.16489  0.73383  1.0000
  H   H32       1.0  0.37438999999999983  0.03023  0.76099  1.0000
  H   H33       1.0  0.47652  0.11362999999999998  0.99631  1.0000
  H   H34       1.0  0.47846  0.25  0.9688299999999999  1.0000
  H   H35       1.0  0.43942999999999993  0.93992  0.7773499999999998  1.0000
  H   H36       1.0  0.44073  0.8564199999999996  0.69299  1.0000
  H   H37       1.0  0.4180599999999999  0.61361  0.61362  1.0000
  H   H38       1.0  0.6136299999999998  0.41807  0.61363  1.0000
  H   H39       1.0  0.61363  0.61363  0.41807  1.0000
  C   C1        1.0  0.43219  0.83116  0.29611  1.0000
  C   C2        1.0  0.42961  0.84925  0.21571  1.0000
  C   C3        1.0  0.39991  0.79086  0.15331  1.0000
  C   C4        1.0  0.39912999999999993  0.80633  0.07791  1.0000
  C   C5        1.0  0.4283  0.88013  0.06283999999999998  1.0000
  C   C6        1.0  0.45559999999999995  0.9389800000000001  0.12562  1.0000
  C   C7        1.0  0.45660000000000006  0.92374  0.20127  1.0000
  C   C8        1.0  0.43129999999999996  0.8953099999999999  0.98245  1.0000
  C   C9        1.0  0.4359799999999998  0.8345099999999999  0.9243699999999998  1.0000
  C   C10       1.0  0.43723  0.70766  0.79827  1.0000
  C   C11       1.0  0.4306099999999999  0.6467  0.73758  1.0000
  C   C12       1.0  0.42999999999999994  0.56638  0.7560999999999998  1.0000
  C   C13       1.0  0.2961099999999999  0.4321899999999999  0.83116  1.0000
  C   C14       1.0  0.21571  0.42961  0.8492499999999997  1.0000
  C   C15       1.0  0.15332  0.3998999999999999  0.7908599999999998  1.0000
  C   C16       1.0  0.07791999999999999  0.39913999999999994  0.80633  1.0000
  C   C17       1.0  0.06284  0.42830999999999997  0.88014  1.0000
  C   C18       1.0  0.12559999999999993  0.45561  0.9389899999999999  1.0000
  C   C19       1.0  0.20126  0.45660000000000006  0.92374  1.0000
  C   C20       1.0  0.98244  0.43131  0.89531  1.0000
  C   C21       1.0  0.92437  0.43597999999999987  0.8345099999999999  1.0000
  C   C22       1.0  0.79827  0.43722999999999995  0.7076699999999999  1.0000
  C   C23       1.0  0.73758  0.4306099999999999  0.6467  1.0000
  C   C24       1.0  0.7561  0.43  0.56638  1.0000
  C   C25       1.0  0.8311499999999998  0.29611  0.43219  1.0000
  C   C26       1.0  0.84925  0.21570999999999999  0.42960999999999994  1.0000
  C   C27       1.0  0.7908499999999998  0.15331999999999996  0.39991  1.0000
  C   C28       1.0  0.8063299999999998  0.07791  0.39914  1.0000
  C   C29       1.0  0.88013  0.06283999999999998  0.42831  1.0000
  C   C30       1.0  0.93898  0.12559999999999996  0.45561  1.0000
  C   C31       1.0  0.9237299999999999  0.20126  0.4566  1.0000
  C   C32       1.0  0.8953  0.98244  0.43131  1.0000
  C   C33       1.0  0.8345  0.92437  0.4359799999999999  1.0000
  C   C34       1.0  0.7076599999999997  0.7982699999999999  0.43723  1.0000
  C   C35       1.0  0.6467  0.73758  0.4306099999999999  1.0000
  C   C36       1.0  0.5663799999999998  0.7561  0.43  1.0000
  C   C37       1.0  0.2961099999999999  0.83115  0.43219  1.0000
  C   C38       1.0  0.21571  0.84925  0.42960999999999994  1.0000
  C   C39       1.0  0.15332  0.79085  0.39991  1.0000
  C   C40       1.0  0.07792  0.80633  0.39914  1.0000
  C   C41       1.0  0.06284  0.88013  0.42831  1.0000
  C   C42       1.0  0.1256  0.93899  0.45561  1.0000
  C   C43       1.0  0.20125999999999997  0.92374  0.4566  1.0000
  C   C44       1.0  0.98244  0.8953  0.43131  1.0000
  C   C45       1.0  0.92437  0.8345099999999999  0.4359799999999999  1.0000
  C   C46       1.0  0.79827  0.7076599999999998  0.43723  1.0000
  C   C47       1.0  0.73758  0.6467  0.4306099999999999  1.0000
  C   C48       1.0  0.7561  0.56638  0.43  1.0000
  C   C49       1.0  0.8311499999999998  0.43219  0.29611  1.0000
  C   C50       1.0  0.84925  0.42961  0.21571  1.0000
  C   C51       1.0  0.7908499999999998  0.39991  0.15332  1.0000
  C   C52       1.0  0.8063299999999998  0.39914  0.07791  1.0000
  C   C53       1.0  0.88013  0.42831  0.06283999999999998  1.0000
  C   C54       1.0  0.93898  0.45561  0.12561  1.0000
  C   C55       1.0  0.9237299999999999  0.45660000000000006  0.20126  1.0000
  C   C56       1.0  0.8953  0.43131  0.98245  1.0000
  C   C57       1.0  0.8345  0.43597999999999987  0.9243699999999998  1.0000
  C   C58       1.0  0.7076599999999997  0.43723  0.79828  1.0000
  C   C59       1.0  0.6467  0.4306099999999999  0.73759  1.0000
  C   C60       1.0  0.5663799999999998  0.43  0.75611  1.0000
  C   C61       1.0  0.4321900000000001  0.29611  0.83116  1.0000
  C   C62       1.0  0.42961  0.21571  0.84926  1.0000
  C   C63       1.0  0.39990999999999993  0.15330999999999995  0.7908599999999998  1.0000
  C   C64       1.0  0.39913  0.07791  0.80634  1.0000
  C   C65       1.0  0.4283  0.06283999999999997  0.88014  1.0000
  C   C66       1.0  0.45559999999999995  0.12562  0.9389899999999999  1.0000
  C   C67       1.0  0.45660000000000006  0.20127000000000003  0.92374  1.0000
  C   C68       1.0  0.4313  0.98245  0.89532  1.0000
  C   C69       1.0  0.43598000000000003  0.92437  0.8345199999999998  1.0000
  C   C70       1.0  0.43722999999999995  0.79826  0.7076699999999999  1.0000
  C   C71       1.0  0.4306099999999999  0.7375699999999998  0.6467  1.0000
  C   C72       1.0  0.43  0.75609  0.56638  1.0000
  C   C73       1.0  0.4375599999999999  0.84797  0.84798  1.0000
  C   C74       1.0  0.43825  0.78435  0.78436  1.0000
  C   C75       1.0  0.42506  0.661  0.66101  1.0000
  C   C76       1.0  0.84797  0.43755999999999995  0.84797  1.0000
  C   C77       1.0  0.78435  0.43825  0.78436  1.0000
  C   C78       1.0  0.6610099999999995  0.42505999999999994  0.6610199999999998  1.0000
  C   C79       1.0  0.84797  0.84797  0.43757  1.0000
  C   C80       1.0  0.78435  0.78435  0.43825  1.0000
  C   C81       1.0  0.66101  0.66101  0.42506  1.0000
  N   N1        1.0  0.4296899999999999  0.9686099999999999  0.9686200000000001  1.0000
  N   N2        1.0  0.9686  0.42969999999999997  0.9686099999999999  1.0000
  N   N3        1.0  0.9686  0.9686  0.4297  1.0000
  O   O1        1.0  0.40868  0.76091  0.30329  1.0000
  O   O2        1.0  0.45796999999999993  0.88613  0.35204  1.0000
  O   O3        1.0  0.45441  0.5601499999999999  0.82633  1.0000
  O   O4        1.0  0.40567  0.51086  0.70093  1.0000
  O   O5        1.0  0.30329  0.40868  0.76091  1.0000
  O   O6        1.0  0.35203  0.45797  0.88613  1.0000
  O   O7        1.0  0.82633  0.45441  0.56015  1.0000
  O   O8        1.0  0.7009199999999999  0.40567000000000003  0.51087  1.0000
  O   O9        1.0  0.7609099999999998  0.30329  0.40868  1.0000
  O   O10       1.0  0.88613  0.35204  0.45797  1.0000
  O   O11       1.0  0.56014  0.8263299999999997  0.45441  1.0000
  O   O12       1.0  0.51087  0.70093  0.4056699999999999  1.0000
  O   O13       1.0  0.30329  0.76091  0.40868  1.0000
  O   O14       1.0  0.35203  0.88613  0.45797  1.0000
  O   O15       1.0  0.82633  0.5601499999999999  0.45442  1.0000
  O   O16       1.0  0.7009199999999999  0.51086  0.40568  1.0000
  O   O17       1.0  0.7609099999999998  0.40868  0.3033  1.0000
  O   O18       1.0  0.88613  0.4579599999999999  0.35204  1.0000
  O   O19       1.0  0.56014  0.45441  0.82634  1.0000
  O   O20       1.0  0.51087  0.4056699999999999  0.70093  1.0000
  O   O21       1.0  0.4086799999999999  0.30329  0.7609199999999999  1.0000
  O   O22       1.0  0.45796999999999993  0.35204  0.88614  1.0000
  O   O23       1.0  0.45441  0.82632  0.56015  1.0000
  O   O24       1.0  0.4056699999999999  0.70092  0.51086  1.0000
