data_image0
_chemical_formula_structural       Cd4H40C48S4N24O16
_chemical_formula_sum              "Cd4 H40 C48 S4 N24 O16"
_cell_length_a       4.68668
_cell_length_b       9.72057
_cell_length_c       30.21335
_cell_angle_alpha    90.0
_cell_angle_beta     89.93571
_cell_angle_gamma    90.0

_space_group_name_H-M_alt    "P 1"
_space_group_IT_number       1

loop_
  _space_group_symop_operation_xyz
  'x, y, z'

loop_
  _atom_site_type_symbol
  _atom_site_label
  _atom_site_symmetry_multiplicity
  _atom_site_fract_x
  _atom_site_fract_y
  _atom_site_fract_z
  _atom_site_occupancy
  Cd  Cd1       1.0  0.72477  0.9947999999999999  0.7610500000000002  1.0000
  Cd  Cd2       1.0  0.77131  0.009899999999999999  0.26116  1.0000
  Cd  Cd3       1.0  0.27524  0.4948  0.73895  1.0000
  Cd  Cd4       1.0  0.22869999999999996  0.5099  0.23885000000000006  1.0000
  H   H1        1.0  0.34506  0.15678  0.8274200000000003  1.0000
  H   H2        1.0  0.21775  0.17316  0.9077000000000002  1.0000
  H   H3        1.0  0.9877099999999999  0.9438099999999998  0.9344900000000003  1.0000
  H   H4        1.0  0.06029999999999999  0.9201599999999999  0.85485  1.0000
  H   H5        1.0  0.00147  0.9307199999999999  0.08774000000000003  1.0000
  H   H6        1.0  0.09027999999999997  0.9215199999999999  0.16883  1.0000
  H   H7        1.0  0.24983999999999998  0.17252  0.11493000000000003  1.0000
  H   H8        1.0  0.37753999999999993  0.1639  0.19438  1.0000
  H   H9        1.0  0.7842  0.82763  0.9850500000000002  1.0000
  H   H10       1.0  0.04336  0.92722  0.003380000000000001  1.0000
  H   H11       1.0  0.15260999999999997  0.8464599999999999  0.3268  1.0000
  H   H12       1.0  0.27952  0.8283099999999998  0.4070600000000001  1.0000
  H   H13       1.0  0.50898  0.05671  0.4344800000000001  1.0000
  H   H14       1.0  0.4370899999999999  0.08233999999999997  0.35484  1.0000
  H   H15       1.0  0.4964799999999999  0.07055  0.5873400000000002  1.0000
  H   H16       1.0  0.40873  0.08212  0.66842  1.0000
  H   H17       1.0  0.24886  0.82988  0.61476  1.0000
  H   H18       1.0  0.12257  0.84106  0.6942600000000002  1.0000
  H   H19       1.0  0.71435  0.17324999999999996  0.48459  1.0000
  H   H20       1.0  0.45502  0.07428999999999998  0.5033100000000003  1.0000
  H   H21       1.0  0.6549599999999999  0.65678  0.67258  1.0000
  H   H22       1.0  0.7822699999999998  0.67316  0.5923  1.0000
  H   H23       1.0  0.0123  0.4438099999999999  0.56552  1.0000
  H   H24       1.0  0.9397199999999999  0.4201599999999999  0.6451600000000002  1.0000
  H   H25       1.0  0.99855  0.43072  0.4122600000000001  1.0000
  H   H26       1.0  0.90973  0.42152  0.33117  1.0000
  H   H27       1.0  0.7501599999999998  0.6725199999999999  0.38507  1.0000
  H   H28       1.0  0.62247  0.6639  0.3056200000000001  1.0000
  H   H29       1.0  0.21582  0.3276299999999999  0.5149600000000001  1.0000
  H   H30       1.0  0.95664  0.42721999999999993  0.49662  1.0000
  H   H31       1.0  0.8474  0.34646  0.17321000000000006  1.0000
  H   H32       1.0  0.72049  0.3283099999999999  0.09294000000000002  1.0000
  H   H33       1.0  0.49103  0.55671  0.06552000000000001  1.0000
  H   H34       1.0  0.5629199999999999  0.58234  0.14516000000000004  1.0000
  H   H35       1.0  0.50353  0.57055  0.9126600000000002  1.0000
  H   H36       1.0  0.5912799999999999  0.5821199999999999  0.8315800000000002  1.0000
  H   H37       1.0  0.75115  0.32987999999999995  0.8852400000000002  1.0000
  H   H38       1.0  0.87745  0.34106  0.80575  1.0000
  H   H39       1.0  0.28565  0.67325  0.015410000000000004  1.0000
  H   H40       1.0  0.54499  0.5742899999999997  0.9966900000000002  1.0000
  C   C1        1.0  0.47646999999999995  0.10818999999999998  0.8525800000000001  1.0000
  C   C2        1.0  0.39830999999999994  0.11191999999999999  0.8970800000000002  1.0000
  C   C3        1.0  0.57686  0.04676  0.9286000000000002  1.0000
  C   C4        1.0  0.82405  0.98421  0.9127900000000002  1.0000
  C   C5        1.0  0.8823  0.98097  0.8673600000000001  1.0000
  C   C6        1.0  0.5034599999999999  0.05814999999999999  0.9752200000000002  1.0000
  C   C7        1.0  0.5178599999999999  0.054039999999999984  0.04856000000000001  1.0000
  C   C8        1.0  0.60351  0.04205  0.09462000000000001  1.0000
  C   C9        1.0  0.85091  0.9789999999999999  0.1101  1.0000
  C   C10       1.0  0.9144499999999999  0.98139  0.15557000000000007  1.0000
  C   C11       1.0  0.42939999999999995  0.11114  0.12584  1.0000
  C   C12       1.0  0.50901  0.11109  0.17007  1.0000
  C   C13       1.0  0.02113  0.8944299999999997  0.35211000000000003  1.0000
  C   C14       1.0  0.09925  0.8899  0.39658  1.0000
  C   C15       1.0  0.9205499999999999  0.9544899999999997  0.4282800000000001  1.0000
  C   C16       1.0  0.67316  0.01714  0.41265  1.0000
  C   C17       1.0  0.6149499999999999  0.021289999999999996  0.36725  1.0000
  C   C18       1.0  0.9942199999999999  0.9427  0.4748600000000001  1.0000
  C   C19       1.0  0.98058  0.9472599999999999  0.5482000000000002  1.0000
  C   C20       1.0  0.8951699999999999  0.95991  0.5942900000000002  1.0000
  C   C21       1.0  0.64769  0.02319  0.60975  1.0000
  C   C22       1.0  0.5847499999999999  0.02208  0.6552500000000001  1.0000
  C   C23       1.0  0.06946  0.8916299999999999  0.6255900000000002  1.0000
  C   C24       1.0  0.99055  0.8930899999999999  0.66988  1.0000
  C   C25       1.0  0.52355  0.60819  0.6474300000000002  1.0000
  C   C26       1.0  0.6017  0.61192  0.60293  1.0000
  C   C27       1.0  0.42314999999999997  0.5467699999999999  0.5714000000000002  1.0000
  C   C28       1.0  0.17596  0.48421999999999993  0.58722  1.0000
  C   C29       1.0  0.11770999999999998  0.48096999999999995  0.63264  1.0000
  C   C30       1.0  0.49655  0.55815  0.52478  1.0000
  C   C31       1.0  0.48214  0.55404  0.4514400000000001  1.0000
  C   C32       1.0  0.39649  0.54205  0.40538000000000013  1.0000
  C   C33       1.0  0.1491  0.4789999999999999  0.3899  1.0000
  C   C34       1.0  0.08555999999999997  0.48138999999999993  0.34443  1.0000
  C   C35       1.0  0.5706099999999998  0.61115  0.3741600000000001  1.0000
  C   C36       1.0  0.491  0.6110899999999999  0.32994  1.0000
  C   C37       1.0  0.97888  0.39441999999999994  0.14789000000000005  1.0000
  C   C38       1.0  0.90076  0.3899  0.10342  1.0000
  C   C39       1.0  0.07945  0.45449  0.07172  1.0000
  C   C40       1.0  0.32685  0.51714  0.08735  1.0000
  C   C41       1.0  0.38506  0.52129  0.13276  1.0000
  C   C42       1.0  0.005789999999999998  0.4427  0.025140000000000003  1.0000
  C   C43       1.0  0.01944  0.44726  0.9518  1.0000
  C   C44       1.0  0.10484999999999996  0.4599  0.90572  1.0000
  C   C45       1.0  0.35232  0.52319  0.8902600000000002  1.0000
  C   C46       1.0  0.41526999999999986  0.52208  0.84475  1.0000
  C   C47       1.0  0.93056  0.39162  0.8744100000000002  1.0000
  C   C48       1.0  0.00946  0.39308999999999994  0.8301200000000001  1.0000
  S   S1        1.0  0.2103099999999999  0.81491  0.7795900000000002  1.0000
  S   S2        1.0  0.28263  0.18906999999999996  0.27957  1.0000
  S   S3        1.0  0.7896999999999997  0.31491  0.72042  1.0000
  S   S4        1.0  0.71739  0.68907  0.22044000000000005  1.0000
  N   N1        1.0  0.70951  0.04232  0.8375700000000003  1.0000
  N   N2        1.0  0.74276  0.04555  0.18516000000000005  1.0000
  N   N3        1.0  0.8447  0.88937  0.01079  1.0000
  N   N4        1.0  0.28839999999999993  0.13406  0.9906000000000003  1.0000
  N   N5        1.0  0.2983  0.13194  0.03600000000000001  1.0000
  N   N6        1.0  0.65424  0.00315  0.01105  1.0000
  N   N7        1.0  0.78791  0.96046  0.33731  1.0000
  N   N8        1.0  0.7568399999999998  0.9589299999999997  0.6849500000000001  1.0000
  N   N9        1.0  0.65404  0.11196999999999999  0.5104900000000002  1.0000
  N   N10       1.0  0.20942  0.86685  0.49014000000000013  1.0000
  N   N11       1.0  0.19998999999999997  0.8692199999999999  0.5355700000000001  1.0000
  N   N12       1.0  0.84389  0.9979599999999998  0.51074  1.0000
  N   N13       1.0  0.2905  0.54232  0.66243  1.0000
  N   N14       1.0  0.25725  0.54555  0.31484  1.0000
  N   N15       1.0  0.15530999999999995  0.38936  0.4892100000000001  1.0000
  N   N16       1.0  0.71161  0.63406  0.50941  1.0000
  N   N17       1.0  0.7017  0.63194  0.46400000000000013  1.0000
  N   N18       1.0  0.34576  0.50315  0.48895  1.0000
  N   N19       1.0  0.2121  0.46045  0.16269000000000003  1.0000
  N   N20       1.0  0.24316999999999997  0.45893  0.81505  1.0000
  N   N21       1.0  0.3459699999999999  0.61197  0.9895100000000002  1.0000
  N   N22       1.0  0.79059  0.36684999999999995  0.00986  1.0000
  N   N23       1.0  0.80003  0.36922  0.96443  1.0000
  N   N24       1.0  0.15613  0.49795999999999996  0.9892600000000003  1.0000
  O   O1        1.0  0.89843  0.78461  0.7812300000000002  1.0000
  O   O2        1.0  0.24058  0.967  0.76376  1.0000
  O   O3        1.0  0.34424999999999994  0.72823  0.7434900000000002  1.0000
  O   O4        1.0  0.34238  0.79861  0.8236500000000002  1.0000
  O   O5        1.0  0.59365  0.22174  0.28124  1.0000
  O   O6        1.0  0.25756  0.036789999999999996  0.26351  1.0000
  O   O7        1.0  0.14437  0.27657  0.24399000000000007  1.0000
  O   O8        1.0  0.14941999999999994  0.20201  0.32374000000000014  1.0000
  O   O9        1.0  0.10157999999999999  0.28461  0.7187800000000002  1.0000
  O   O10       1.0  0.7594299999999998  0.46699999999999997  0.7362500000000002  1.0000
  O   O11       1.0  0.65577  0.22823  0.7565200000000001  1.0000
  O   O12       1.0  0.6576299999999999  0.29860999999999993  0.67636  1.0000
  O   O13       1.0  0.40638  0.7217399999999998  0.21876000000000004  1.0000
  O   O14       1.0  0.74245  0.5367899999999998  0.23649000000000006  1.0000
  O   O15       1.0  0.8556399999999998  0.7765599999999999  0.25601  1.0000
  O   O16       1.0  0.8506199999999999  0.702  0.17626  1.0000
