data_image0
_chemical_formula_structural       Cu24H32C56N28
_chemical_formula_sum              "Cu24 H32 C56 N28"
_cell_length_a       8.16098
_cell_length_b       15.698780000000001
_cell_length_c       20.22516
_cell_angle_alpha    114.34858
_cell_angle_beta     102.71811000000001
_cell_angle_gamma    89.61141000000002

_space_group_name_H-M_alt    "P 1"
_space_group_IT_number       1

loop_
  _space_group_symop_operation_xyz
  'x, y, z'

loop_
  _atom_site_type_symbol
  _atom_site_label
  _atom_site_symmetry_multiplicity
  _atom_site_fract_x
  _atom_site_fract_y
  _atom_site_fract_z
  _atom_site_occupancy
  Cu  Cu1       1.0  0.37577  0.4109799999999999  0.45036  1.0000
  Cu  Cu2       1.0  0.8024800000000002  0.25109  0.19525  1.0000
  Cu  Cu3       1.0  0.26723000000000013  0.08225  0.06094  1.0000
  Cu  Cu4       1.0  0.04759999999999987  0.8783999999999996  0.8848099999999998  1.0000
  Cu  Cu5       1.0  0.69113  0.7448299999999998  0.73365  1.0000
  Cu  Cu6       1.0  0.41276  0.09181  0.71189  1.0000
  Cu  Cu7       1.0  0.94313  0.09518000000000004  0.54546  1.0000
  Cu  Cu8       1.0  0.63504  0.23867000000000005  0.79785  1.0000
  Cu  Cu9       1.0  0.2445399999999999  0.40267  0.933  1.0000
  Cu  Cu10      1.0  0.11296  0.60159  0.11671  1.0000
  Cu  Cu11      1.0  0.9851699999999999  0.75824  0.28683  1.0000
  Cu  Cu12      1.0  0.6841099999999998  0.41092999999999996  0.2893999999999999  1.0000
  Cu  Cu13      1.0  0.65993  0.59685  0.6065699999999999  1.0000
  Cu  Cu14      1.0  0.24487  0.69744  0.72364  1.0000
  Cu  Cu15      1.0  0.5940699999999999  0.85265  0.8494499999999998  1.0000
  Cu  Cu16      1.0  0.85771  0.10379999999999998  0.08731  1.0000
  Cu  Cu17      1.0  0.31549  0.21533  0.31728  1.0000
  Cu  Cu18      1.0  0.59628  0.9824899999999995  0.39744  1.0000
  Cu  Cu19      1.0  0.07884999999999999  0.91351  0.39205999999999996  1.0000
  Cu  Cu20      1.0  0.5452  0.83073  0.27396  1.0000
  Cu  Cu21      1.0  0.78651  0.61475  0.11781999999999998  1.0000
  Cu  Cu22      1.0  0.81665  0.3721499999999999  0.9109199999999998  1.0000
  Cu  Cu23      1.0  0.007979999999999961  0.2854299999999999  0.6766799999999998  1.0000
  Cu  Cu24      1.0  0.1844199999999999  0.5196499999999998  0.5987499999999998  1.0000
  H   H1        1.0  0.19855  0.48480000000000006  0.33259  1.0000
  H   H2        1.0  0.3479  0.47845999999999994  0.27875  1.0000
  H   H3        1.0  0.24532000000000004  0.58219  0.31233999999999995  1.0000
  H   H4        1.0  0.8850300000000001  0.71688  0.47546999999999995  1.0000
  H   H5        1.0  0.76403  0.79676  0.53189  1.0000
  H   H6        1.0  0.8804400000000001  0.7194099999999998  0.56455  1.0000
  H   H7        1.0  0.6292299999999998  0.7395499999999997  0.3888099999999999  1.0000
  H   H8        1.0  0.62988  0.63204  0.3226799999999999  1.0000
  H   H9        1.0  0.87125  0.012130000000000037  0.65741  1.0000
  H   H10       1.0  0.07341000000000002  0.017500000000000022  0.71521  1.0000
  H   H11       1.0  0.9379  0.9121799999999999  0.67483  1.0000
  H   H12       1.0  0.43329  0.7916  0.52587  1.0000
  H   H13       1.0  0.25507  0.71388  0.46258  1.0000
  H   H14       1.0  0.34473999999999994  0.7966599999999999  0.43813999999999986  1.0000
  H   H15       1.0  0.26062  0.76462  0.60769  1.0000
  H   H16       1.0  0.3304299999999999  0.8725599999999998  0.6743499999999998  1.0000
  H   H17       1.0  0.83458  0.54672  0.73877  1.0000
  H   H18       1.0  0.6482000000000002  0.5601  0.77303  1.0000
  H   H19       1.0  0.76957  0.46332  0.76881  1.0000
  H   H20       1.0  0.24093  0.2533499999999999  0.55835  1.0000
  H   H21       1.0  0.39646  0.19042000000000006  0.51347  1.0000
  H   H22       1.0  0.2624  0.2543899999999999  0.47211  1.0000
  H   H23       1.0  0.53485  0.27944  0.68743  1.0000
  H   H24       1.0  0.48679  0.3862  0.7412  1.0000
  H   H25       1.0  0.07968999999999997  0.9570699999999998  0.25326  1.0000
  H   H26       1.0  0.85648  0.93013  0.22794  1.0000
  H   H27       1.0  0.9431  0.02901  0.22061  1.0000
  H   H28       1.0  0.68888  0.25659  0.4389  1.0000
  H   H29       1.0  0.8957800000000001  0.31585  0.47878  1.0000
  H   H30       1.0  0.81087  0.25663999999999976  0.5239799999999998  1.0000
  H   H31       1.0  0.6512900000000001  0.1513  0.29672  1.0000
  H   H32       1.0  0.81414  0.22952  0.31655  1.0000
  C   C1        1.0  0.4337  0.5645599999999998  0.3952799999999999  1.0000
  C   C2        1.0  0.29783  0.52523  0.32608  1.0000
  C   C3        1.0  0.65978  0.65313  0.47869999999999996  1.0000
  C   C4        1.0  0.8055599999999999  0.72551  0.51483  1.0000
  C   C5        1.0  0.89736  0.3423099999999999  0.29198  1.0000
  C   C6        1.0  0.49151  0.12540999999999994  0.08924  1.0000
  C   C7        1.0  0.060269999999999935  0.9746999999999998  0.9813599999999999  1.0000
  C   C8        1.0  0.72653  0.9073  0.78841  1.0000
  C   C9        1.0  0.51452  0.003039999999999999  0.73921  1.0000
  C   C10       1.0  0.4823700000000001  0.67241  0.67927  1.0000
  C   C11       1.0  0.98996  0.37665  0.35691  1.0000
  C   C12       1.0  0.64398  0.15947  0.11473999999999998  1.0000
  C   C13       1.0  0.030890000000000004  0.03961  0.0395  1.0000
  C   C14       1.0  0.82239  0.8602099999999998  0.81876  1.0000
  C   C15       1.0  0.62564  0.95829  0.7608  1.0000
  C   C16       1.0  0.3451  0.62318  0.63784  1.0000
  C   C17       1.0  0.66723  0.08489999999999995  0.56559  1.0000
  C   C18       1.0  0.050660000000000024  0.9374399999999999  0.59873  1.0000
  C   C19       1.0  0.9780899999999997  0.9717599999999997  0.6649899999999997  1.0000
  C   C20       1.0  0.20361  0.85576  0.51981  1.0000
  C   C21       1.0  0.31581  0.78574  0.48467999999999994  1.0000
  C   C22       1.0  0.61588  0.15351000000000006  0.69884  1.0000
  C   C23       1.0  0.4382700000000001  0.3630499999999999  0.90281  1.0000
  C   C24       1.0  0.10435000000000003  0.51222  0.020669999999999997  1.0000
  C   C25       1.0  0.9321000000000003  0.61073  0.23462999999999998  1.0000
  C   C26       1.0  0.75605  0.5096  0.27275  1.0000
  C   C27       1.0  0.8239199999999999  0.82895  0.33867  1.0000
  C   C28       1.0  0.63954  0.12049  0.6342  1.0000
  C   C29       1.0  0.56662  0.32902  0.87982  1.0000
  C   C30       1.0  0.03828999999999995  0.4406699999999999  0.9610699999999999  1.0000
  C   C31       1.0  0.011289999999999979  0.63969  0.19787999999999997  1.0000
  C   C32       1.0  0.84596  0.56118  0.25868  1.0000
  C   C33       1.0  0.71504  0.8765099999999998  0.37142  1.0000
  C   C34       1.0  0.088  0.4153  0.42669  1.0000
  C   C35       1.0  0.62594  0.4517199999999999  0.66339  1.0000
  C   C36       1.0  0.7247700000000002  0.5086  0.7405  1.0000
  C   C37       1.0  0.45003  0.33943000000000006  0.56759  1.0000
  C   C38       1.0  0.33035  0.25448  0.52527  1.0000
  C   C39       1.0  0.71133  0.015979999999999994  0.00192  1.0000
  C   C40       1.0  0.4485  0.33921  0.35676  1.0000
  C   C41       1.0  0.8598699999999999  0.67147  0.6790599999999999  1.0000
  C   C42       1.0  0.22930999999999996  0.82061  0.8439  1.0000
  C   C43       1.0  0.020610000000000003  0.17877999999999994  0.18229  1.0000
  C   C44       1.0  0.40324  0.12482  0.35011  1.0000
  C   C45       1.0  0.69377  0.05361999999999999  0.50099  1.0000
  C   C46       1.0  0.95135  0.04883999999999997  0.33115  1.0000
  C   C47       1.0  0.95867  0.9877  0.25365  1.0000
  C   C48       1.0  0.8864400000000002  0.16628  0.42711  1.0000
  C   C49       1.0  0.8162700000000002  0.25362999999999997  0.46942999999999996  1.0000
  C   C50       1.0  0.7579  0.43198  0.0015499999999999995  1.0000
  C   C51       1.0  0.10696  0.16247  0.64131  1.0000
  C   C52       1.0  0.20066999999999996  0.8416299999999999  0.31527999999999995  1.0000
  C   C53       1.0  0.56895  0.75795  0.17557  1.0000
  C   C54       1.0  0.86767  0.31284  0.81243  1.0000
  C   C55       1.0  0.04513999999999997  0.37876999999999994  0.64545  1.0000
  C   C56       1.0  0.16855999999999993  0.45333  0.49424  1.0000
  N   N1        1.0  0.55654  0.63361  0.40976  1.0000
  N   N2        1.0  0.4615100000000001  0.54185  0.45292999999999994  1.0000
  N   N3        1.0  0.56363  0.6743299999999997  0.36035999999999996  1.0000
  N   N4        1.0  0.60116  0.59844  0.50576  1.0000
  N   N5        1.0  0.008859999999999956  0.6705999999999999  0.6927099999999999  1.0000
  N   N6        1.0  0.36106  0.8018  0.82657  1.0000
  N   N7        1.0  0.14505999999999997  0.1913799999999999  0.22918999999999998  1.0000
  N   N8        1.0  0.46437999999999996  0.06603  0.36659  1.0000
  N   N9        1.0  0.63144  0.95492  0.94795  1.0000
  N   N10       1.0  0.22647999999999993  0.1453799999999999  0.6777599999999999  1.0000
  N   N11       1.0  0.16435  0.87073  0.58615  1.0000
  N   N12       1.0  0.023580000000000018  0.9633  0.54276  1.0000
  N   N13       1.0  0.22566000000000003  0.83022  0.63582  1.0000
  N   N14       1.0  0.11743999999999995  0.9113500000000001  0.49299  1.0000
  N   N15       1.0  0.32531  0.8455999999999997  0.29504  1.0000
  N   N16       1.0  0.63191  0.7072299999999998  0.12842  1.0000
  N   N17       1.0  0.9338100000000001  0.3041  0.76393  1.0000
  N   N18       1.0  0.07759000000000002  0.44082  0.63072  1.0000
  N   N19       1.0  0.72723  0.48221999999999987  0.05826  1.0000
  N   N20       1.0  0.53782  0.35498  0.32319  1.0000
  N   N21       1.0  0.5199  0.37292  0.6429  1.0000
  N   N22       1.0  0.61828  0.4673299999999998  0.60288  1.0000
  N   N23       1.0  0.46848  0.33572  0.68777  1.0000
  N   N24       1.0  0.5099  0.3960099999999999  0.54262  1.0000
  N   N25       1.0  0.86834  0.12853  0.35091  1.0000
  N   N26       1.0  0.016610000000000003  0.037260000000000015  0.39284  1.0000
  N   N27       1.0  0.77735  0.15963999999999998  0.29939999999999994  1.0000
  N   N28       1.0  0.9758199999999999  0.11092999999999997  0.45308999999999994  1.0000
