data_image0
_chemical_formula_structural       Zn4H32C64O16
_chemical_formula_sum              "Zn4 H32 C64 O16"
_cell_length_a       7.42311
_cell_length_b       12.067520000000002
_cell_length_c       17.62211
_cell_angle_alpha    90.0
_cell_angle_beta     90.0
_cell_angle_gamma    90.28988999999999

_space_group_name_H-M_alt    "P 1"
_space_group_IT_number       1

loop_
  _space_group_symop_operation_xyz
  'x, y, z'

loop_
  _atom_site_type_symbol
  _atom_site_label
  _atom_site_symmetry_multiplicity
  _atom_site_fract_x
  _atom_site_fract_y
  _atom_site_fract_z
  _atom_site_occupancy
  Zn  Zn1       1.0  0.75022  0.25144  0.75  1.0000
  Zn  Zn2       1.0  0.7500300000000001  0.7496800000000001  0.25  1.0000
  Zn  Zn3       1.0  0.24978  0.74855  0.25  1.0000
  Zn  Zn4       1.0  0.24996  0.25032000000000004  0.75  1.0000
  H   H1        1.0  0.36232  0.5479000000000002  0.81161  1.0000
  H   H2        1.0  0.25609  0.7411600000000002  0.81105  1.0000
  H   H3        1.0  0.25992  0.85263  0.92975  1.0000
  H   H4        1.0  0.36233  0.7712000000000002  0.04953  1.0000
  H   H5        1.0  0.13864  0.04712  0.18842  1.0000
  H   H6        1.0  0.24465  0.24117000000000002  0.18966  1.0000
  H   H7        1.0  0.2413  0.35345  0.07139  1.0000
  H   H8        1.0  0.13727  0.27251  0.95147  1.0000
  H   H9        1.0  0.63768  0.4521  0.31161  1.0000
  H   H10       1.0  0.74391  0.25884  0.31105  1.0000
  H   H11       1.0  0.74008  0.14736  0.42975  1.0000
  H   H12       1.0  0.6376600000000001  0.2288  0.54953  1.0000
  H   H13       1.0  0.86136  0.9528800000000001  0.68841  1.0000
  H   H14       1.0  0.75535  0.75883  0.68966  1.0000
  H   H15       1.0  0.7587  0.64654  0.5713900000000001  1.0000
  H   H16       1.0  0.86273  0.7274800000000001  0.45147  1.0000
  H   H17       1.0  0.63768  0.4521  0.18839000000000003  1.0000
  H   H18       1.0  0.74391  0.25884  0.18895  1.0000
  H   H19       1.0  0.74008  0.14736  0.07025  1.0000
  H   H20       1.0  0.6376600000000001  0.2288  0.95047  1.0000
  H   H21       1.0  0.86136  0.9528800000000001  0.8115800000000001  1.0000
  H   H22       1.0  0.75535  0.75883  0.81034  1.0000
  H   H23       1.0  0.75869  0.64654  0.9286100000000002  1.0000
  H   H24       1.0  0.86273  0.7274800000000001  0.048530000000000004  1.0000
  H   H25       1.0  0.36232000000000003  0.5478900000000001  0.68839  1.0000
  H   H26       1.0  0.25609  0.7411600000000002  0.68895  1.0000
  H   H27       1.0  0.25992  0.85263  0.57025  1.0000
  H   H28       1.0  0.36233  0.7712000000000002  0.45047  1.0000
  H   H29       1.0  0.13863  0.04712  0.31159  1.0000
  H   H30       1.0  0.24465  0.24117000000000002  0.31034  1.0000
  H   H31       1.0  0.2413  0.35345  0.42861  1.0000
  H   H32       1.0  0.13727  0.27252  0.54852  1.0000
  C   C1        1.0  0.50102  0.43768  0.93228  1.0000
  C   C2        1.0  0.4292  0.54578  0.9315900000000001  1.0000
  C   C3        1.0  0.36404000000000003  0.59626  0.86357  1.0000
  C   C4        1.0  0.30499  0.7039300000000001  0.86332  1.0000
  C   C5        1.0  0.30646  0.7673900000000001  0.93106  1.0000
  C   C6        1.0  0.36396  0.7215700000000002  0.99805  1.0000
  C   C7        1.0  0.42801  0.61007  0.0009500000000000001  1.0000
  C   C8        1.0  0.50053  0.37092  0.86041  1.0000
  C   C9        1.0  0.99984  0.9369200000000002  0.0675  1.0000
  C   C10       1.0  0.07108  0.04563  0.0685  1.0000
  C   C11       1.0  0.13657  0.09596000000000002  0.13666  1.0000
  C   C12       1.0  0.19563  0.20400000000000001  0.1373  1.0000
  C   C13       1.0  0.19407  0.26805  0.06983  1.0000
  C   C14       1.0  0.13588  0.22247000000000003  0.00275  1.0000
  C   C15       1.0  0.07157  0.11065  0.99943  1.0000
  C   C16       1.0  9e-05  0.87025  0.13954  1.0000
  C   C17       1.0  0.49897  0.56232  0.43228  1.0000
  C   C18       1.0  0.57079  0.45421  0.43159  1.0000
  C   C19       1.0  0.63596  0.40374000000000004  0.36358  1.0000
  C   C20       1.0  0.69501  0.29607  0.36332  1.0000
  C   C21       1.0  0.69354  0.23261  0.43106  1.0000
  C   C22       1.0  0.63604  0.27843000000000007  0.49805000000000005  1.0000
  C   C23       1.0  0.57199  0.38992000000000004  0.50095  1.0000
  C   C24       1.0  0.49946  0.62907  0.36042  1.0000
  C   C25       1.0  0.00016000000000000004  0.06308  0.5675  1.0000
  C   C26       1.0  0.92892  0.9543700000000002  0.5685  1.0000
  C   C27       1.0  0.86343  0.9040400000000001  0.63666  1.0000
  C   C28       1.0  0.80437  0.7959900000000002  0.63729  1.0000
  C   C29       1.0  0.80592  0.73195  0.56982  1.0000
  C   C30       1.0  0.8641100000000002  0.77753  0.50275  1.0000
  C   C31       1.0  0.92843  0.8893500000000002  0.49942  1.0000
  C   C32       1.0  0.99992  0.12975  0.63954  1.0000
  C   C33       1.0  0.49897  0.56232  0.06772  1.0000
  C   C34       1.0  0.57079  0.45421  0.06841  1.0000
  C   C35       1.0  0.63596  0.40374000000000004  0.13642  1.0000
  C   C36       1.0  0.69501  0.29607  0.13667  1.0000
  C   C37       1.0  0.69354  0.23261  0.06894  1.0000
  C   C38       1.0  0.63604  0.27843000000000007  0.0019500000000000001  1.0000
  C   C39       1.0  0.57199  0.38992000000000004  0.9990499999999999  1.0000
  C   C40       1.0  0.49946  0.62907  0.13958  1.0000
  C   C41       1.0  0.00016000000000000004  0.06308  0.9325  1.0000
  C   C42       1.0  0.92892  0.9543700000000002  0.9315000000000001  1.0000
  C   C43       1.0  0.86344  0.9040400000000001  0.86334  1.0000
  C   C44       1.0  0.80437  0.7959900000000002  0.8627  1.0000
  C   C45       1.0  0.80593  0.73195  0.93017  1.0000
  C   C46       1.0  0.86412  0.77753  0.9972399999999999  1.0000
  C   C47       1.0  0.92843  0.8893500000000002  0.00057  1.0000
  C   C48       1.0  0.99993  0.12975  0.86046  1.0000
  C   C49       1.0  0.50103  0.43768  0.56772  1.0000
  C   C50       1.0  0.42921  0.54578  0.5684  1.0000
  C   C51       1.0  0.36404000000000003  0.59626  0.63642  1.0000
  C   C52       1.0  0.30499  0.7039300000000001  0.63667  1.0000
  C   C53       1.0  0.30646  0.7673900000000001  0.56894  1.0000
  C   C54       1.0  0.36396  0.7215700000000002  0.50195  1.0000
  C   C55       1.0  0.42801  0.61007  0.49905  1.0000
  C   C56       1.0  0.50053  0.37092  0.63958  1.0000
  C   C57       1.0  0.99984  0.9369200000000002  0.4325  1.0000
  C   C58       1.0  0.07107  0.04563  0.43150000000000005  1.0000
  C   C59       1.0  0.13656  0.09596000000000002  0.36334  1.0000
  C   C60       1.0  0.19562  0.20400000000000001  0.3627  1.0000
  C   C61       1.0  0.19407  0.26805  0.43017  1.0000
  C   C62       1.0  0.13588  0.22247000000000003  0.49725  1.0000
  C   C63       1.0  0.07156  0.11065  0.50057  1.0000
  C   C64       1.0  7.99999999999997e-05  0.87025  0.36046  1.0000
  O   O1        1.0  0.65391  0.34518000000000004  0.83342  1.0000
  O   O2        1.0  0.34648  0.34496000000000004  0.83353  1.0000
  O   O3        1.0  0.84639  0.84459  0.16664  1.0000
  O   O4        1.0  0.15373  0.8446  0.16663000000000003  1.0000
  O   O5        1.0  0.34609  0.65481  0.33343  1.0000
  O   O6        1.0  0.65352  0.6550400000000001  0.33353  1.0000
  O   O7        1.0  0.1536  0.15541  0.66664  1.0000
  O   O8        1.0  0.84626  0.15540000000000004  0.66663  1.0000
  O   O9        1.0  0.34609  0.65481  0.16657  1.0000
  O   O10       1.0  0.65352  0.6550400000000001  0.16647  1.0000
  O   O11       1.0  0.1536  0.15541  0.83336  1.0000
  O   O12       1.0  0.84626  0.15540000000000004  0.83337  1.0000
  O   O13       1.0  0.65392  0.34518000000000004  0.66657  1.0000
  O   O14       1.0  0.3464900000000001  0.34496000000000004  0.66647  1.0000
  O   O15       1.0  0.84639  0.84459  0.33336  1.0000
  O   O16       1.0  0.15373  0.8446  0.33337  1.0000
