data_image0
_chemical_formula_structural       Cd5Mo12P8H16C20N4O50
_chemical_formula_sum              "Cd5 Mo12 P8 H16 C20 N4 O50"
_cell_length_a       12.83696
_cell_length_b       13.95725
_cell_length_c       14.502189999999999
_cell_angle_alpha    113.29822000000001
_cell_angle_beta     96.48921
_cell_angle_gamma    106.38704

_space_group_name_H-M_alt    "P 1"
_space_group_IT_number       1

loop_
  _space_group_symop_operation_xyz
  'x, y, z'

loop_
  _atom_site_type_symbol
  _atom_site_label
  _atom_site_symmetry_multiplicity
  _atom_site_fract_x
  _atom_site_fract_y
  _atom_site_fract_z
  _atom_site_occupancy
  Cd  Cd1       1.0  0.9106800000000003  0.7623300000000001  0.1929  1.0000
  Cd  Cd2       1.0  0.5125900000000001  0.6373600000000003  0.08220999999999999  1.0000
  Cd  Cd3       1.0  0.08835  0.23817000000000005  0.80631  1.0000
  Cd  Cd4       1.0  0.48683  0.36298000000000014  0.91743  1.0000
  Cd  Cd5       1.0  0.0005600000000000143  0.49754000000000004  0.49801  1.0000
  Mo  Mo1       1.0  0.07821000000000002  0.45312  0.23754  1.0000
  Mo  Mo2       1.0  0.8274800000000002  0.39391999999999994  0.20670999999999998  1.0000
  Mo  Mo3       1.0  0.7464300000000001  0.36009  0.57912  1.0000
  Mo  Mo4       1.0  0.78902  0.19265000000000002  0.39209999999999995  1.0000
  Mo  Mo5       1.0  0.047180000000000014  0.21965000000000007  0.43015  1.0000
  Mo  Mo6       1.0  0.21756  0.40741  0.61088  1.0000
  Mo  Mo7       1.0  0.9250900000000002  0.57227  0.77567  1.0000
  Mo  Mo8       1.0  0.1649500000000001  0.6011200000000002  0.79319  1.0000
  Mo  Mo9       1.0  0.2745300000000001  0.6398600000000001  0.43327  1.0000
  Mo  Mo10      1.0  0.18698000000000006  0.79979  0.5879  1.0000
  Mo  Mo11      1.0  0.9564000000000002  0.7811000000000001  0.57134  1.0000
  Mo  Mo12      1.0  0.7857600000000001  0.5982200000000002  0.39168  1.0000
  P   P1        1.0  0.028729999999999985  0.68742  0.34318999999999994  1.0000
  P   P2        1.0  0.8640300000000001  0.9764800000000001  0.36718  1.0000
  P   P3        1.0  0.2850900000000001  0.60651  0.19314  1.0000
  P   P4        1.0  0.6792900000000001  0.5333000000000001  0.15165  1.0000
  P   P5        1.0  0.9718300000000002  0.3082500000000001  0.64921  1.0000
  P   P6        1.0  0.13528  0.02383  0.63311  1.0000
  P   P7        1.0  0.71545  0.39386  0.80749  1.0000
  P   P8        1.0  0.32009  0.4675  0.84875  1.0000
  H   H1        1.0  0.32185000000000014  0.36456  0.06638  1.0000
  H   H2        1.0  0.20413000000000003  0.24478000000000005  0.12876  1.0000
  H   H3        1.0  0.2705300000000001  0.9660300000000003  0.9081899999999999  1.0000
  H   H4        1.0  0.38656  0.09626999999999998  0.85455  1.0000
  H   H5        1.0  0.11672000000000007  0.7663500000000002  0.07179  1.0000
  H   H6        1.0  0.23796000000000012  0.8905000000000002  0.01445  1.0000
  H   H7        1.0  0.05922  0.11652000000000003  0.128  1.0000
  H   H8        1.0  0.9463800000000002  0.98351  0.18232  1.0000
  H   H9        1.0  0.67814  0.63552  0.93363  1.0000
  H   H10       1.0  0.7963  0.7551300000000002  0.87133  1.0000
  H   H11       1.0  0.7292400000000002  0.03392  0.09206  1.0000
  H   H12       1.0  0.6134500000000003  0.9038900000000001  0.14549  1.0000
  H   H13       1.0  0.8832  0.2336  0.92801  1.0000
  H   H14       1.0  0.7620300000000002  0.10945999999999996  0.98555  1.0000
  H   H15       1.0  0.9405700000000005  0.8830600000000001  0.8716499999999999  1.0000
  H   H16       1.0  0.05350000000000002  0.016370000000000023  0.81763  1.0000
  C   C1        1.0  0.31053  0.27604  0.03369  1.0000
  C   C2        1.0  0.24314000000000005  0.20693000000000006  0.06822  1.0000
  C   C3        1.0  0.22862000000000005  0.09291000000000003  0.0275  1.0000
  C   C4        1.0  0.2814900000000001  0.05392000000000002  0.94816  1.0000
  C   C5        1.0  0.34704  0.12708999999999995  0.9168399999999999  1.0000
  C   C6        1.0  0.10481000000000007  0.84378  0.08102  1.0000
  C   C7        1.0  0.17353000000000013  0.9153100000000002  0.04939  1.0000
  C   C8        1.0  0.16001  0.016550000000000002  0.06389  1.0000
  C   C9        1.0  0.07674000000000002  0.0409  0.11396999999999999  1.0000
  C   C10       1.0  0.010830000000000058  0.9657900000000003  0.14315  1.0000
  C   C11       1.0  0.6894400000000002  0.72404  0.96632  1.0000
  C   C12       1.0  0.75683  0.793  0.93164  1.0000
  C   C13       1.0  0.77136  0.9071000000000002  0.97256  1.0000
  C   C14       1.0  0.71845  0.9460700000000002  0.05188  1.0000
  C   C15       1.0  0.65289  0.8729000000000001  0.08321  1.0000
  C   C16       1.0  0.8950899999999999  0.15617000000000006  0.9189  1.0000
  C   C17       1.0  0.8265  0.08472000000000002  0.95062  1.0000
  C   C18       1.0  0.84003  0.9834200000000001  0.93617  1.0000
  C   C19       1.0  0.92322  0.9589000000000001  0.8859799999999999  1.0000
  C   C20       1.0  0.9890800000000003  0.03410999999999999  0.85684  1.0000
  N   N1        1.0  0.3645100000000002  0.23740000000000006  0.95983  1.0000
  N   N2        1.0  0.023120000000000043  0.8676400000000002  0.12619  1.0000
  N   N3        1.0  0.63542  0.7625900000000001  0.04021  1.0000
  N   N4        1.0  0.97693  0.13233000000000006  0.87388  1.0000
  O   O1        1.0  0.2376900000000001  0.6860700000000002  0.17682  1.0000
  O   O2        1.0  0.5564000000000002  0.4891800000000001  0.08695  1.0000
  O   O3        1.0  0.82625  0.87671  0.25886  1.0000
  O   O4        1.0  0.059820000000000054  0.7563800000000002  0.46653  1.0000
  O   O5        1.0  0.05229000000000005  0.7648200000000002  0.2943  1.0000
  O   O6        1.0  0.77969  0.04178999999999996  0.35219999999999996  1.0000
  O   O7        1.0  0.37673  0.5768500000000001  0.14118  1.0000
  O   O8        1.0  0.8668500000000002  0.9646000000000002  0.46418  1.0000
  O   O9        1.0  0.33356  0.64436  0.31679  1.0000
  O   O10       1.0  0.7042700000000002  0.20183000000000004  0.4928699999999999  1.0000
  O   O11       1.0  0.7477800000000001  0.6265  0.12839  1.0000
  O   O12       1.0  0.9029900000000001  0.6123800000000001  0.31427  1.0000
  O   O13       1.0  0.67497  0.5785300000000001  0.26954  1.0000
  O   O14       1.0  0.9849  0.06049  0.36938  1.0000
  O   O15       1.0  0.9428000000000001  0.43071000000000004  0.14149  1.0000
  O   O16       1.0  0.72327  0.4337900000000002  0.12309999999999999  1.0000
  O   O17       1.0  0.18673000000000003  0.4840300000000001  0.15925999999999998  1.0000
  O   O18       1.0  0.10332000000000005  0.61422  0.32249  1.0000
  O   O19       1.0  0.19381000000000004  0.4794300000000002  0.35317  1.0000
  O   O20       1.0  0.75927  0.4324000000000001  0.31182999999999994  1.0000
  O   O21       1.0  0.11494000000000001  0.3882800000000001  0.48754  1.0000
  O   O22       1.0  0.91727  0.22318000000000002  0.34254  1.0000
  O   O23       1.0  0.96021  0.40466000000000013  0.30037  1.0000
  O   O24       1.0  0.17525  0.25218  0.53065  1.0000
  O   O25       1.0  0.82145  0.3555700000000001  0.46622  1.0000
  O   O26       1.0  0.7625600000000002  0.31411000000000006  0.8236799999999997  1.0000
  O   O27       1.0  0.44274  0.51176  0.91382  1.0000
  O   O28       1.0  0.17191000000000004  0.12237999999999999  0.74118  1.0000
  O   O29       1.0  0.9458500000000002  0.23707000000000003  0.52944  1.0000
  O   O30       1.0  0.9515000000000002  0.23936000000000004  0.7069  1.0000
  O   O31       1.0  0.2204500000000001  0.9572400000000002  0.64709  1.0000
  O   O32       1.0  0.6244  0.42420000000000013  0.86008  1.0000
  O   O33       1.0  0.1331  0.035180000000000024  0.53602  1.0000
  O   O34       1.0  0.6665400000000002  0.35559  0.68294  1.0000
  O   O35       1.0  0.29601  0.79292  0.50223  1.0000
  O   O36       1.0  0.25165000000000004  0.37408000000000013  0.87176  1.0000
  O   O37       1.0  0.09615000000000003  0.39380000000000004  0.6889799999999999  1.0000
  O   O38       1.0  0.3264000000000001  0.4224500000000001  0.73141  1.0000
  O   O39       1.0  0.014290000000000127  0.9385300000000001  0.62895  1.0000
  O   O40       1.0  0.053100000000000036  0.5636600000000002  0.859  1.0000
  O   O41       1.0  0.2756700000000001  0.5670000000000001  0.87643  1.0000
  O   O42       1.0  0.8137  0.5158000000000001  0.83937  1.0000
  O   O43       1.0  0.89323  0.37845000000000006  0.6647899999999999  1.0000
  O   O44       1.0  0.81114  0.52161  0.6519499999999999  1.0000
  O   O45       1.0  0.23868000000000003  0.56592  0.68956  1.0000
  O   O46       1.0  0.8862  0.60931  0.51073  1.0000
  O   O47       1.0  0.08001  0.77548  0.6651  1.0000
  O   O48       1.0  0.03873000000000001  0.59654  0.70266  1.0000
  O   O49       1.0  0.82187  0.7512400000000002  0.47198  1.0000
  O   O50       1.0  0.17873000000000003  0.6414000000000001  0.53188  1.0000
