data_image0
_chemical_formula_structural       Gd4H24C60N4O36
_chemical_formula_sum              "Gd4 H24 C60 N4 O36"
_cell_length_a       14.39763
_cell_length_b       14.44452
_cell_length_c       15.3051
_cell_angle_alpha    97.08686999999999
_cell_angle_beta     116.76521000000001
_cell_angle_gamma    113.13346

_space_group_name_H-M_alt    "P 1"
_space_group_IT_number       1

loop_
  _space_group_symop_operation_xyz
  'x, y, z'

loop_
  _atom_site_type_symbol
  _atom_site_label
  _atom_site_symmetry_multiplicity
  _atom_site_fract_x
  _atom_site_fract_y
  _atom_site_fract_z
  _atom_site_occupancy
  Gd  Gd1       1.0  0.48821  0.008990000000000005  0.87511  1.0000
  Gd  Gd2       1.0  0.63472  0.61355  0.62522  1.0000
  Gd  Gd3       1.0  0.51179  0.99101  0.12489  1.0000
  Gd  Gd4       1.0  0.36527999999999994  0.38645  0.37478  1.0000
  H   H1        1.0  0.47155999999999987  0.7534599999999999  0.62015  1.0000
  H   H2        1.0  0.1854799999999999  0.82748  0.52959  1.0000
  H   H3        1.0  0.11888  0.53285  0.34064  1.0000
  H   H4        1.0  0.80171  0.36931  0.04784  1.0000
  H   H5        1.0  0.75726  0.31204  0.29975  1.0000
  H   H6        1.0  0.90177  0.50969  0.4104  1.0000
  H   H7        1.0  0.6325899999999999  0.8507199999999999  0.8797899999999997  1.0000
  H   H8        1.0  0.7989900000000002  0.65719  0.97038  1.0000
  H   H9        1.0  0.6918299999999998  0.77862  0.15897999999999995  1.0000
  H   H10       1.0  0.8210299999999999  0.7537399999999997  0.45155  1.0000
  H   H11       1.0  0.5132  0.45583  0.19955  1.0000
  H   H12       1.0  0.6000700000000001  0.49136  0.08917999999999998  1.0000
  H   H13       1.0  0.52844  0.24653999999999998  0.37985  1.0000
  H   H14       1.0  0.8145200000000001  0.17252  0.4704  1.0000
  H   H15       1.0  0.88112  0.46715  0.65935  1.0000
  H   H16       1.0  0.19828999999999988  0.6306799999999999  0.9521599999999999  1.0000
  H   H17       1.0  0.24273  0.68796  0.70025  1.0000
  H   H18       1.0  0.09822999999999996  0.4903  0.58959  1.0000
  H   H19       1.0  0.36741  0.14927  0.12021  1.0000
  H   H20       1.0  0.20100999999999997  0.34279999999999994  0.02961  1.0000
  H   H21       1.0  0.30816999999999994  0.22137000000000004  0.84102  1.0000
  H   H22       1.0  0.17896999999999996  0.24625999999999995  0.54845  1.0000
  H   H23       1.0  0.4868  0.54417  0.80045  1.0000
  H   H24       1.0  0.39993000000000006  0.50863  0.91082  1.0000
  C   C1        1.0  0.29926  0.63715  0.47532  1.0000
  C   C2        1.0  0.37886  0.73204  0.56496  1.0000
  C   C3        1.0  0.3363199999999999  0.7996199999999998  0.58372  1.0000
  C   C4        1.0  0.21702999999999992  0.7739099999999999  0.51448  1.0000
  C   C5        1.0  0.13882999999999998  0.67727  0.42737  1.0000
  C   C6        1.0  0.17857999999999993  0.6084899999999999  0.40785  1.0000
  C   C7        1.0  0.9379099999999999  0.5469999999999999  0.29418  1.0000
  C   C8        1.0  0.90686  0.50764  0.19044  1.0000
  C   C9        1.0  0.82384  0.39852999999999994  0.12744  1.0000
  C   C10       1.0  0.77336  0.32742  0.16822  1.0000
  C   C11       1.0  0.79974  0.36761  0.26991  1.0000
  C   C12       1.0  0.88017  0.47675000000000006  0.33155  1.0000
  C   C13       1.0  0.33581999999999995  0.5622899999999997  0.44539999999999996  1.0000
  C   C14       1.0  0.41558000000000006  0.8974  0.68183  1.0000
  C   C15       1.0  0.69229  0.20881999999999998  0.10577999999999997  1.0000
  C   C16       1.0  0.6614799999999997  0.8238399999999999  0.02461  1.0000
  C   C17       1.0  0.66667  0.81368  0.93501  1.0000
  C   C18       1.0  0.71609  0.75294  0.91639  1.0000
  C   C19       1.0  0.7600399999999999  0.7033899999999998  0.9855499999999999  1.0000
  C   C20       1.0  0.75022  0.71215  0.07246  1.0000
  C   C21       1.0  0.7004699999999998  0.771  0.09193999999999998  1.0000
  C   C22       1.0  0.75315  0.64431  0.20536  1.0000
  C   C23       1.0  0.81729  0.71672  0.30922  1.0000
  C   C24       1.0  0.77097  0.6962299999999998  0.37201  1.0000
  C   C25       1.0  0.6592499999999999  0.60433  0.3312  1.0000
  C   C26       1.0  0.5982999999999999  0.52894  0.22962  1.0000
  C   C27       1.0  0.64584  0.54855  0.16803999999999997  1.0000
  C   C28       1.0  0.61691  0.89049  0.05489  1.0000
  C   C29       1.0  0.7159899999999999  0.73413  0.8184699999999999  1.0000
  C   C30       1.0  0.60343  0.5854  0.39396999999999993  1.0000
  C   C31       1.0  0.70074  0.36285  0.52468  1.0000
  C   C32       1.0  0.62114  0.26795  0.43503  1.0000
  C   C33       1.0  0.66368  0.20037  0.41628  1.0000
  C   C34       1.0  0.7829699999999999  0.22609  0.48552  1.0000
  C   C35       1.0  0.86117  0.32273  0.57263  1.0000
  C   C36       1.0  0.82142  0.39151  0.59215  1.0000
  C   C37       1.0  0.062089999999999965  0.45299999999999996  0.70582  1.0000
  C   C38       1.0  0.09314  0.49236  0.80956  1.0000
  C   C39       1.0  0.17615999999999993  0.6014699999999997  0.87256  1.0000
  C   C40       1.0  0.22664  0.67257  0.83178  1.0000
  C   C41       1.0  0.2002600000000001  0.63239  0.73009  1.0000
  C   C42       1.0  0.11982999999999998  0.52325  0.66845  1.0000
  C   C43       1.0  0.66418  0.43771  0.5546  1.0000
  C   C44       1.0  0.58442  0.1026  0.31817  1.0000
  C   C45       1.0  0.3077100000000001  0.79117  0.89422  1.0000
  C   C46       1.0  0.3385200000000001  0.17616  0.97539  1.0000
  C   C47       1.0  0.33333  0.18631999999999999  0.06498  1.0000
  C   C48       1.0  0.28391  0.24705999999999995  0.08361  1.0000
  C   C49       1.0  0.23995999999999998  0.29661  0.01445  1.0000
  C   C50       1.0  0.24978  0.28785  0.92754  1.0000
  C   C51       1.0  0.29953  0.22899000000000005  0.90806  1.0000
  C   C52       1.0  0.24684999999999996  0.35568999999999995  0.79463  1.0000
  C   C53       1.0  0.1827100000000001  0.28328  0.69077  1.0000
  C   C54       1.0  0.22902999999999998  0.30376999999999993  0.62799  1.0000
  C   C55       1.0  0.34075  0.39566  0.6688  1.0000
  C   C56       1.0  0.4017  0.47105  0.77038  1.0000
  C   C57       1.0  0.35415999999999986  0.4514399999999999  0.83196  1.0000
  C   C58       1.0  0.38309  0.10951000000000001  0.9451  1.0000
  C   C59       1.0  0.28401  0.26587  0.18152  1.0000
  C   C60       1.0  0.3965699999999999  0.41459  0.60603  1.0000
  N   N1        1.0  0.9622100000000001  0.57771  0.14512  1.0000
  N   N2        1.0  0.9333300000000001  0.8172  0.35545  1.0000
  N   N3        1.0  0.03778999999999993  0.42229  0.8548699999999999  1.0000
  N   N4        1.0  0.06667000000000001  0.18279  0.64455  1.0000
  O   O1        1.0  0.2576599999999999  0.47731999999999986  0.36291999999999996  1.0000
  O   O2        1.0  0.4456  0.5824900000000001  0.502  1.0000
  O   O3        1.0  0.51043  0.90647  0.75985  1.0000
  O   O4        1.0  0.3836000000000001  0.9673500000000002  0.69188  1.0000
  O   O5        1.0  0.06525  0.65664  0.20592  1.0000
  O   O6        1.0  0.90107  0.55113  0.04812  1.0000
  O   O7        1.0  0.65216  0.17489999999999997  0.008  1.0000
  O   O8        1.0  0.6678699999999997  0.14865999999999993  0.1558  1.0000
  O   O9        1.0  0.02055000000000001  0.65362  0.36123  1.0000
  O   O10       1.0  0.61364  0.89437  0.13692  1.0000
  O   O11       1.0  0.58178  0.9445  0.9991699999999999  1.0000
  O   O12       1.0  0.6472899999999997  0.7509699999999999  0.7405199999999997  1.0000
  O   O13       1.0  0.7762  0.69221  0.80869  1.0000
  O   O14       1.0  0.9512999999999998  0.8608499999999998  0.29555  1.0000
  O   O15       1.0  0.004569999999999977  0.85149  0.45225  1.0000
  O   O16       1.0  0.66786  0.64273  0.49199  1.0000
  O   O17       1.0  0.49271999999999994  0.51113  0.34373  1.0000
  O   O18       1.0  0.7929700000000001  0.6604499999999999  0.13849  1.0000
  O   O19       1.0  0.74234  0.52268  0.63708  1.0000
  O   O20       1.0  0.5544  0.41750999999999994  0.498  1.0000
  O   O21       1.0  0.48957  0.09351999999999998  0.24014999999999997  1.0000
  O   O22       1.0  0.6164  0.03264999999999999  0.30812  1.0000
  O   O23       1.0  0.93475  0.34336  0.79408  1.0000
  O   O24       1.0  0.09893  0.44887  0.95188  1.0000
  O   O25       1.0  0.3478399999999999  0.8250899999999999  0.9919899999999999  1.0000
  O   O26       1.0  0.3321300000000001  0.85134  0.84419  1.0000
  O   O27       1.0  0.9794499999999999  0.34637999999999997  0.6387699999999998  1.0000
  O   O28       1.0  0.38636  0.10561999999999999  0.86308  1.0000
  O   O29       1.0  0.41822  0.05549  0.00082  1.0000
  O   O30       1.0  0.35271  0.24903000000000003  0.25948  1.0000
  O   O31       1.0  0.2238  0.30778  0.19131  1.0000
  O   O32       1.0  0.04870000000000003  0.13913999999999996  0.70445  1.0000
  O   O33       1.0  0.99543  0.14851  0.54774  1.0000
  O   O34       1.0  0.33214  0.35727  0.50801  1.0000
  O   O35       1.0  0.50727  0.48886  0.65627  1.0000
  O   O36       1.0  0.20702999999999994  0.3395499999999999  0.8615099999999999  1.0000
