data_image0
_chemical_formula_structural       Na12H36C72O24
_chemical_formula_sum              "Na12 H36 C72 O24"
_cell_length_a       8.68728
_cell_length_b       18.45809
_cell_length_c       18.48663
_cell_angle_alpha    120.16703
_cell_angle_beta     90.00045
_cell_angle_gamma    90.0

_symmetry_space_group_name_H-M    'P 1'
_symmetry_Int_Tables_number       1

loop_
  _symmetry_equiv_pos_as_xyz
  'x,y,z'

loop_
  _atom_site_type_symbol
  _atom_site_label
  _atom_site_symmetry_multiplicity
  _atom_site_fract_x
  _atom_site_fract_y
  _atom_site_fract_z
  _atom_site_occupancy
  Na  Na1       1.0  0.8258399999999999  0.73033  0.36205  1.0000
  Na  Na2       1.0  0.81846  0.5162800000000001  0.2549500000000001  1.0000
  Na  Na3       1.0  0.15903  0.63578  0.26912  1.0000
  Na  Na4       1.0  0.15874  0.7450500000000001  0.4800500000000001  1.0000
  Na  Na5       1.0  0.4996999999999999  0.6326600000000001  0.36331000000000013  1.0000
  Na  Na6       1.0  0.49975999999999987  0.74539  0.26554  1.0000
  Na  Na7       1.0  0.32585999999999987  0.26948  0.63945  1.0000
  Na  Na8       1.0  0.3184399999999999  0.48373  0.74508  1.0000
  Na  Na9       1.0  0.65903  0.36423000000000016  0.7308800000000002  1.0000
  Na  Na10      1.0  0.6587399999999998  0.2549500000000002  0.5199500000000002  1.0000
  Na  Na11      1.0  0.9997  0.36733  0.63669  1.0000
  Na  Na12      1.0  0.99976  0.2546200000000002  0.7344600000000002  1.0000
  H   H1        1.0  0.89312  0.4868800000000001  0.42748000000000014  1.0000
  H   H2        1.0  0.55348  0.6158800000000001  0.7483800000000003  1.0000
  H   H3        1.0  0.66437  0.7574800000000004  0.5858  1.0000
  H   H4        1.0  0.46533  0.76134  0.8007400000000002  1.0000
  H   H5        1.0  0.51845  0.8321100000000001  0.7179  1.0000
  H   H6        1.0  0.8368199999999998  0.41516000000000003  0.50691  1.0000
  H   H7        1.0  0.22638  0.94012  0.5125300000000003  1.0000
  H   H8        1.0  0.88728  0.1330500000000001  0.3838600000000001  1.0000
  H   H9        1.0  0.99775  0.8278200000000002  0.24211000000000005  1.0000
  H   H10       1.0  0.79908  0.03954000000000003  0.23889000000000005  1.0000
  H   H11       1.0  0.85205  0.8854500000000001  0.16782000000000005  1.0000
  H   H12       1.0  0.17059  0.09176000000000008  0.5845400000000002  1.0000
  H   H13       1.0  0.55896  0.57312  0.06025  1.0000
  H   H14       1.0  0.21973999999999994  0.25100000000000006  0.8673400000000002  1.0000
  H   H15       1.0  0.3306199999999999  0.41472  0.17219  1.0000
  H   H16       1.0  0.13195999999999997  0.19909999999999997  0.96036  1.0000
  H   H17       1.0  0.18561  0.28234000000000004  0.11425  1.0000
  H   H18       1.0  0.5037899999999997  0.49269000000000013  0.9085500000000002  1.0000
  H   H19       1.0  0.39311  0.51312  0.57251  1.0000
  H   H20       1.0  0.05347999999999999  0.38412  0.2516100000000001  1.0000
  H   H21       1.0  0.16437  0.2425300000000001  0.4142000000000001  1.0000
  H   H22       1.0  0.96533  0.23866  0.19925000000000007  1.0000
  H   H23       1.0  0.01845  0.1678900000000001  0.28210000000000013  1.0000
  H   H24       1.0  0.33682  0.58485  0.4930900000000001  1.0000
  H   H25       1.0  0.72638  0.05987999999999996  0.48747  1.0000
  H   H26       1.0  0.38728  0.8669500000000001  0.6161300000000002  1.0000
  H   H27       1.0  0.4977599999999999  0.17218000000000006  0.75789  1.0000
  H   H28       1.0  0.29909  0.9604600000000001  0.7611100000000002  1.0000
  H   H29       1.0  0.3520499999999999  0.11455000000000012  0.8321800000000003  1.0000
  H   H30       1.0  0.6706099999999998  0.90823  0.4154600000000001  1.0000
  H   H31       1.0  0.05896  0.4268800000000002  0.9397500000000002  1.0000
  H   H32       1.0  0.71975  0.7490000000000002  0.13266000000000006  1.0000
  H   H33       1.0  0.83062  0.5852800000000002  0.8278100000000003  1.0000
  H   H34       1.0  0.6319599999999999  0.8009  0.039640000000000016  1.0000
  H   H35       1.0  0.68562  0.7176600000000002  0.8857400000000002  1.0000
  H   H36       1.0  0.00378  0.50732  0.09144000000000002  1.0000
  C   C1        1.0  0.81301  0.64186  0.4620800000000001  1.0000
  C   C2        1.0  0.77755  0.60074  0.5136  1.0000
  C   C3        1.0  0.65784  0.60087  0.6362400000000002  1.0000
  C   C4        1.0  0.69221  0.6431000000000002  0.5900100000000003  1.0000
  C   C5        1.0  0.8274199999999998  0.5195800000000002  0.48531000000000013  1.0000
  C   C6        1.0  0.57608  0.64695  0.71291  1.0000
  C   C7        1.0  0.6384999999999997  0.7263800000000002  0.62114  1.0000
  C   C8        1.0  0.52715  0.7281  0.7416  1.0000
  C   C9        1.0  0.5572799999999998  0.7682  0.6951500000000003  1.0000
  C   C10       1.0  0.79521  0.47872000000000003  0.53062  1.0000
  C   C11       1.0  0.7095299999999998  0.5159200000000002  0.6041400000000002  1.0000
  C   C12       1.0  0.6723  0.46289000000000013  0.6435  1.0000
  C   C13       1.0  0.14494  0.8207099999999999  0.35719  1.0000
  C   C14       1.0  0.11054999999999997  0.9132200000000001  0.39894  1.0000
  C   C15       1.0  0.99127  0.03549000000000001  0.39888  1.0000
  C   C16       1.0  0.02523  0.94696  0.3566  1.0000
  C   C17       1.0  0.16092  0.9654700000000003  0.4800500000000001  1.0000
  C   C18       1.0  0.9095  0.06629000000000004  0.35311  1.0000
  C   C19       1.0  0.9717299999999999  0.89445  0.27338  1.0000
  C   C20       1.0  0.86054  0.013560000000000004  0.27206  1.0000
  C   C21       1.0  0.89058  0.9267100000000003  0.23176000000000005  1.0000
  C   C22       1.0  0.12907  0.05175000000000002  0.52099  1.0000
  C   C23       1.0  0.04410999999999999  0.08783000000000002  0.4835  1.0000
  C   C24       1.0  0.00734  0.17979  0.53593  1.0000
  C   C25       1.0  0.47566  0.53863  0.17935000000000006  1.0000
  C   C26       1.0  0.44213999999999987  0.48681  0.08700000000000002  1.0000
  C   C27       1.0  0.32397  0.36358000000000007  0.9648800000000002  1.0000
  C   C28       1.0  0.35777  0.41017  0.05334000000000001  1.0000
  C   C29       1.0  0.49348999999999993  0.5151400000000002  0.03471000000000001  1.0000
  C   C30       1.0  0.24224999999999997  0.2868100000000002  0.9339700000000002  1.0000
  C   C31       1.0  0.30464  0.37933000000000006  0.10562  1.0000
  C   C32       1.0  0.19361  0.2583700000000002  0.9864400000000002  1.0000
  C   C33       1.0  0.22389  0.30508  0.07316  1.0000
  C   C34       1.0  0.46207999999999994  0.46938000000000024  0.9485500000000002  1.0000
  C   C35       1.0  0.3764099999999999  0.39579000000000014  0.9125800000000002  1.0000
  C   C36       1.0  0.3380999999999999  0.3569800000000001  0.82093  1.0000
  C   C37       1.0  0.31301  0.3581100000000001  0.5379400000000002  1.0000
  C   C38       1.0  0.2775499999999999  0.39925000000000016  0.4864100000000001  1.0000
  C   C39       1.0  0.15782999999999994  0.39913  0.3637600000000001  1.0000
  C   C40       1.0  0.1922  0.35691  0.40999000000000013  1.0000
  C   C41       1.0  0.32742  0.48042000000000024  0.5146800000000002  1.0000
  C   C42       1.0  0.07608  0.35305  0.28709  1.0000
  C   C43       1.0  0.13849  0.27363  0.37886  1.0000
  C   C44       1.0  0.02714  0.2719  0.2584  1.0000
  C   C45       1.0  0.05728  0.23181  0.3048500000000001  1.0000
  C   C46       1.0  0.29521  0.5212800000000001  0.46938  1.0000
  C   C47       1.0  0.20953  0.48408000000000007  0.3958500000000001  1.0000
  C   C48       1.0  0.1723  0.53711  0.3565  1.0000
  C   C49       1.0  0.64502  0.17928000000000013  0.6428000000000003  1.0000
  C   C50       1.0  0.6105699999999997  0.0867700000000001  0.6010600000000003  1.0000
  C   C51       1.0  0.49126  0.96451  0.6011100000000003  1.0000
  C   C52       1.0  0.52523  0.05304000000000013  0.6434000000000002  1.0000
  C   C53       1.0  0.6609199999999997  0.03453000000000008  0.5199400000000002  1.0000
  C   C54       1.0  0.4095  0.93371  0.6468900000000002  1.0000
  C   C55       1.0  0.47170999999999996  0.10555000000000002  0.72661  1.0000
  C   C56       1.0  0.3605399999999999  0.98644  0.72794  1.0000
  C   C57       1.0  0.3905799999999999  0.0732900000000001  0.7682300000000002  1.0000
  C   C58       1.0  0.62907  0.9482500000000001  0.47899000000000014  1.0000
  C   C59       1.0  0.5441099999999999  0.9121700000000001  0.5165000000000002  1.0000
  C   C60       1.0  0.50733  0.8202100000000003  0.4640700000000001  1.0000
  C   C61       1.0  0.9756499999999999  0.46137  0.82065  1.0000
  C   C62       1.0  0.9421399999999999  0.5131900000000001  0.9130000000000003  1.0000
  C   C63       1.0  0.8239699999999998  0.6364200000000002  0.03512000000000001  1.0000
  C   C64       1.0  0.8577799999999999  0.58983  0.94666  1.0000
  C   C65       1.0  0.99349  0.4848600000000001  0.9652800000000002  1.0000
  C   C66       1.0  0.74225  0.7131900000000003  0.06602  1.0000
  C   C67       1.0  0.8046399999999998  0.6206700000000003  0.8943700000000002  1.0000
  C   C68       1.0  0.6936  0.74163  0.013550000000000003  1.0000
  C   C69       1.0  0.7238999999999999  0.6949200000000001  0.9268400000000002  1.0000
  C   C70       1.0  0.96208  0.53063  0.05145  1.0000
  C   C71       1.0  0.8764299999999998  0.60422  0.08743000000000002  1.0000
  C   C72       1.0  0.8380999999999998  0.64304  0.17911  1.0000
  O   O1        1.0  0.74321  0.61124  0.3914300000000001  1.0000
  O   O2        1.0  0.90675  0.7022800000000001  0.4888400000000001  1.0000
  O   O3        1.0  0.74964  0.39460000000000023  0.6177200000000003  1.0000
  O   O4        1.0  0.56799  0.48473000000000005  0.69886  1.0000
  O   O5        1.0  0.06884  0.7800000000000002  0.3848300000000001  1.0000
  O   O6        1.0  0.24408  0.7881  0.29963  1.0000
  O   O7        1.0  0.08461999999999999  0.2228400000000001  0.60392  1.0000
  O   O8        1.0  0.9024499999999998  0.21279000000000015  0.5142700000000002  1.0000
  O   O9        1.0  0.40451  0.60874  0.21975  1.0000
  O   O10       1.0  0.57058  0.51186  0.21230000000000004  1.0000
  O   O11       1.0  0.41067  0.38449  0.77884  1.0000
  O   O12       1.0  0.23639  0.30002  0.78706  1.0000
  O   O13       1.0  0.24318  0.38876  0.60857  1.0000
  O   O14       1.0  0.40679  0.2977200000000001  0.51114  1.0000
  O   O15       1.0  0.24961999999999998  0.60541  0.3822800000000001  1.0000
  O   O16       1.0  0.06798  0.51528  0.30115  1.0000
  O   O17       1.0  0.5689  0.2199700000000001  0.6151600000000003  1.0000
  O   O18       1.0  0.74411  0.21189999999999995  0.70039  1.0000
  O   O19       1.0  0.5846599999999997  0.7771600000000001  0.3961000000000001  1.0000
  O   O20       1.0  0.40245  0.7872000000000002  0.4857200000000001  1.0000
  O   O21       1.0  0.9045199999999998  0.39125  0.78025  1.0000
  O   O22       1.0  0.07057  0.48814000000000024  0.7877000000000002  1.0000
  O   O23       1.0  0.91065  0.6154700000000002  0.22118000000000004  1.0000
  O   O24       1.0  0.73634  0.69995  0.21293000000000006  1.0000
