data_image0
_chemical_formula_structural       Ce4H28C60O24
_chemical_formula_sum              "Ce4 H28 C60 O24"
_cell_length_a       14.06882
_cell_length_b       14.039939999999998
_cell_length_c       14.606580000000003
_cell_angle_alpha    94.49192
_cell_angle_beta     89.96278999999998
_cell_angle_gamma    120.07303999999999

_space_group_name_H-M_alt    "P 1"
_space_group_IT_number       1

loop_
  _space_group_symop_operation_xyz
  'x, y, z'

loop_
  _atom_site_type_symbol
  _atom_site_label
  _atom_site_symmetry_multiplicity
  _atom_site_fract_x
  _atom_site_fract_y
  _atom_site_fract_z
  _atom_site_occupancy
  Ce  Ce1       1.0  0.61374  0.65521  0.51616  1.0000
  Ce  Ce2       1.0  0.95858  0.34517  0.9841100000000003  1.0000
  Ce  Ce3       1.0  0.38626  0.34479  0.48384  1.0000
  Ce  Ce4       1.0  0.04142000000000003  0.65483  0.01589  1.0000
  H   H1        1.0  0.38008  0.71443  0.5655600000000001  1.0000
  H   H2        1.0  0.17833  0.42763  0.70991  1.0000
  H   H3        1.0  0.17218999999999993  0.72816  0.77746  1.0000
  H   H4        1.0  0.4716899999999999  0.9043  0.61128  1.0000
  H   H5        1.0  0.13773  0.81335  0.66969  1.0000
  H   H6        1.0  0.49881  0.07711  0.55215  1.0000
  H   H7        1.0  0.16604999999999998  0.98633  0.60995  1.0000
  H   H8        1.0  0.66527  0.2855500000000001  0.93459  1.0000
  H   H9        1.0  0.74989  0.57216  0.79016  1.0000
  H   H10       1.0  0.44376  0.27139  0.7226400000000001  1.0000
  H   H11       1.0  0.56661  0.09500000000000003  0.8886800000000002  1.0000
  H   H12       1.0  0.32414  0.187  0.83139  1.0000
  H   H13       1.0  0.42060000000000003  0.9223300000000001  0.9481000000000003  1.0000
  H   H14       1.0  0.17930999999999994  0.01413  0.89135  1.0000
  H   H15       1.0  0.61992  0.28558  0.43444  1.0000
  H   H16       1.0  0.82167  0.57238  0.29009  1.0000
  H   H17       1.0  0.82781  0.2718400000000001  0.22254000000000002  1.0000
  H   H18       1.0  0.52831  0.09571  0.38873  1.0000
  H   H19       1.0  0.86228  0.18665  0.33031  1.0000
  H   H20       1.0  0.50119  0.9229  0.44785000000000014  1.0000
  H   H21       1.0  0.8339499999999999  0.013670000000000009  0.3900500000000001  1.0000
  H   H22       1.0  0.33473  0.71445  0.06542  1.0000
  H   H23       1.0  0.25011  0.42785  0.20984  1.0000
  H   H24       1.0  0.55625  0.72861  0.27736  1.0000
  H   H25       1.0  0.43339  0.905  0.11132  1.0000
  H   H26       1.0  0.6758599999999999  0.8130000000000001  0.16861  1.0000
  H   H27       1.0  0.5794  0.07767  0.0519  1.0000
  H   H28       1.0  0.8206900000000001  0.9858700000000001  0.10865  1.0000
  C   C1        1.0  0.32371999999999995  0.5011  0.5769900000000002  1.0000
  C   C2        1.0  0.28435  0.566  0.63353  1.0000
  C   C3        1.0  0.32102  0.67636  0.6182800000000002  1.0000
  C   C4        1.0  0.20717999999999995  0.5137  0.69983  1.0000
  C   C5        1.0  0.27772  0.73526  0.6673500000000002  1.0000
  C   C6        1.0  0.16921999999999998  0.57412  0.75289  1.0000
  C   C7        1.0  0.3018  0.84529  0.64287  1.0000
  C   C8        1.0  0.20396  0.68353  0.73585  1.0000
  C   C9        1.0  0.09155999999999999  0.52585  0.8278900000000002  1.0000
  C   C10       1.0  0.40461  0.92192  0.61131  1.0000
  C   C11       1.0  0.21743000000000007  0.8716600000000001  0.64507  1.0000
  C   C12       1.0  0.41999  0.018690000000000026  0.5778900000000002  1.0000
  C   C13       1.0  0.23252000000000006  0.96802  0.6112600000000001  1.0000
  C   C14       1.0  0.33323  0.04081000000000003  0.5747100000000003  1.0000
  C   C15       1.0  0.34599  0.1369  0.5288  1.0000
  C   C16       1.0  0.8222700000000001  0.49858  0.92294  1.0000
  C   C17       1.0  0.7180499999999997  0.43375  0.86637  1.0000
  C   C18       1.0  0.64431  0.32339  0.8817  1.0000
  C   C19       1.0  0.693  0.48601000000000005  0.80024  1.0000
  C   C20       1.0  0.54207  0.26448  0.83279  1.0000
  C   C21       1.0  0.5947  0.4256200000000001  0.74721  1.0000
  C   C22       1.0  0.45602  0.15454  0.85752  1.0000
  C   C23       1.0  0.5201  0.31613  0.76422  1.0000
  C   C24       1.0  0.56537  0.47392000000000006  0.67223  1.0000
  C   C25       1.0  0.48204999999999987  0.07774  0.88893  1.0000
  C   C26       1.0  0.34536  0.12848  0.85577  1.0000
  C   C27       1.0  0.4005900000000001  0.9810300000000002  0.92241  1.0000
  C   C28       1.0  0.26401  0.03218000000000003  0.8896300000000003  1.0000
  C   C29       1.0  0.29183  0.95914  0.92577  1.0000
  C   C30       1.0  0.20852000000000012  0.8629700000000001  0.9715000000000001  1.0000
  C   C31       1.0  0.67628  0.49890000000000007  0.4230100000000001  1.0000
  C   C32       1.0  0.71565  0.43401  0.36648  1.0000
  C   C33       1.0  0.67898  0.3236399999999999  0.38172  1.0000
  C   C34       1.0  0.79282  0.48631  0.3001700000000001  1.0000
  C   C35       1.0  0.7222799999999999  0.26474  0.33265  1.0000
  C   C36       1.0  0.83079  0.42589  0.24711000000000005  1.0000
  C   C37       1.0  0.6981999999999998  0.15472  0.35713  1.0000
  C   C38       1.0  0.79604  0.31648  0.26415  1.0000
  C   C39       1.0  0.9084399999999998  0.47415  0.17211  1.0000
  C   C40       1.0  0.59539  0.07809000000000002  0.3887000000000001  1.0000
  C   C41       1.0  0.7825699999999999  0.12834  0.35493  1.0000
  C   C42       1.0  0.5800099999999999  0.98132  0.4221100000000001  1.0000
  C   C43       1.0  0.76748  0.03198  0.38874  1.0000
  C   C44       1.0  0.6667700000000001  0.9591900000000001  0.42529000000000006  1.0000
  C   C45       1.0  0.6540199999999999  0.8631  0.4712000000000001  1.0000
  C   C46       1.0  0.17773  0.50142  0.07706000000000002  1.0000
  C   C47       1.0  0.28195  0.56625  0.13363  1.0000
  C   C48       1.0  0.35569  0.67662  0.1183  1.0000
  C   C49       1.0  0.307  0.51399  0.19976000000000005  1.0000
  C   C50       1.0  0.45793  0.73552  0.16721  1.0000
  C   C51       1.0  0.4053  0.57438  0.25279  1.0000
  C   C52       1.0  0.54398  0.84546  0.14248000000000005  1.0000
  C   C53       1.0  0.47989999999999994  0.68387  0.23578000000000005  1.0000
  C   C54       1.0  0.43463  0.52608  0.32778  1.0000
  C   C55       1.0  0.51795  0.92226  0.11107  1.0000
  C   C56       1.0  0.65464  0.87152  0.14423  1.0000
  C   C57       1.0  0.59941  0.01897  0.07759  1.0000
  C   C58       1.0  0.73599  0.96782  0.11037  1.0000
  C   C59       1.0  0.70818  0.04086  0.07423000000000002  1.0000
  C   C60       1.0  0.79148  0.13704  0.028510000000000004  1.0000
  O   O1        1.0  0.73095  0.83831  0.46772  1.0000
  O   O2        1.0  0.56642  0.80421  0.51414  1.0000
  O   O3        1.0  0.58115  0.4479699999999999  0.45885  1.0000
  O   O4        1.0  0.73647  0.6035  0.43538  1.0000
  O   O5        1.0  0.6304799999999998  0.5731  0.6535  1.0000
  O   O6        1.0  0.5275  0.59036  0.3705700000000001  1.0000
  O   O7        1.0  0.89325  0.16196  0.03219  1.0000
  O   O8        1.0  0.76274  0.19601000000000002  0.9857400000000001  1.0000
  O   O9        1.0  0.13388999999999995  0.55248  0.04105  1.0000
  O   O10       1.0  0.1329  0.39673  0.06482  1.0000
  O   O11       1.0  0.05738000000000001  0.42667  0.84647  1.0000
  O   O12       1.0  0.9371499999999999  0.40996  0.12925  1.0000
  O   O13       1.0  0.26905  0.16169  0.53228  1.0000
  O   O14       1.0  0.4335800000000001  0.19579000000000002  0.48586  1.0000
  O   O15       1.0  0.41885  0.55203  0.54115  1.0000
  O   O16       1.0  0.26353  0.39651  0.56462  1.0000
  O   O17       1.0  0.36952  0.42690000000000006  0.3465  1.0000
  O   O18       1.0  0.4725099999999999  0.40964000000000006  0.6294300000000003  1.0000
  O   O19       1.0  0.10674999999999996  0.8380399999999999  0.96781  1.0000
  O   O20       1.0  0.23726000000000003  0.8040000000000002  0.01426  1.0000
  O   O21       1.0  0.8661099999999998  0.4475199999999999  0.95895  1.0000
  O   O22       1.0  0.8671  0.60327  0.93518  1.0000
  O   O23       1.0  0.9426200000000001  0.57333  0.15353  1.0000
  O   O24       1.0  0.06284999999999998  0.59005  0.87076  1.0000
