data_image0
_chemical_formula_structural       Ce4H24C60N4O36
_chemical_formula_sum              "Ce4 H24 C60 N4 O36"
_cell_length_a       14.50119
_cell_length_b       14.47958
_cell_length_c       15.4384
_cell_angle_alpha    96.88374999999999
_cell_angle_beta     115.86609
_cell_angle_gamma    113.92548

_symmetry_space_group_name_H-M    'P 1'
_symmetry_Int_Tables_number       1

loop_
  _symmetry_equiv_pos_as_xyz
  'x,y,z'

loop_
  _atom_site_type_symbol
  _atom_site_label
  _atom_site_symmetry_multiplicity
  _atom_site_fract_x
  _atom_site_fract_y
  _atom_site_fract_z
  _atom_site_occupancy
  Ce  Ce1       1.0  0.14129999999999995  0.62126  0.129  1.0000
  Ce  Ce2       1.0  0.9908600000000002  0.012169999999999997  0.36961  1.0000
  Ce  Ce3       1.0  0.8639399999999999  0.3785899999999999  0.8767599999999998  1.0000
  Ce  Ce4       1.0  0.0012799999999998039  0.9876399999999999  0.6218799999999998  1.0000
  H   H1        1.0  0.1421600000000001  0.8546600000000002  0.3829599999999999  1.0000
  H   H2        1.0  0.3138800000000001  0.6702900000000002  0.4789799999999999  1.0000
  H   H3        1.0  0.1957800000000001  0.7837800000000003  0.65885  1.0000
  H   H4        1.0  0.3244599999999999  0.75163  0.9508699999999998  1.0000
  H   H5        1.0  0.009509999999999885  0.46673  0.6952899999999997  1.0000
  H   H6        1.0  0.09889999999999997  0.50477  0.58708  1.0000
  H   H7        1.0  0.96893  0.75791  0.1158  1.0000
  H   H8        1.0  0.6891000000000005  0.8341600000000002  0.02015  1.0000
  H   H9        1.0  0.62364  0.5371300000000001  0.8397599999999998  1.0000
  H   H10       1.0  0.30101000000000006  0.3749300000000001  0.54814  1.0000
  H   H11       1.0  0.2686599999999999  0.3135299999999999  0.8025899999999998  1.0000
  H   H12       1.0  0.4142100000000001  0.51095  0.9112499999999998  1.0000
  H   H13       1.0  0.86243  0.15021  0.6155899999999999  1.0000
  H   H14       1.0  0.69082  0.33583000000000013  0.52557  1.0000
  H   H15       1.0  0.79538  0.21581  0.33592  1.0000
  H   H16       1.0  0.68109  0.25193  0.05311  1.0000
  H   H17       1.0  0.99222  0.5374100000000003  0.31083  1.0000
  H   H18       1.0  0.89717  0.4992700000000001  0.41489  1.0000
  H   H19       1.0  0.034779999999999846  0.24743  0.8830599999999997  1.0000
  H   H20       1.0  0.31058999999999987  0.16625999999999996  0.9729399999999998  1.0000
  H   H21       1.0  0.37822000000000006  0.45888000000000007  0.16328999999999996  1.0000
  H   H22       1.0  0.69498  0.6274200000000002  0.4453199999999999  1.0000
  H   H23       1.0  0.726  0.6822500000000002  0.18862999999999996  1.0000
  H   H24       1.0  0.58389  0.48338  0.08411  1.0000
  C   C1        1.0  0.16636000000000017  0.8276400000000003  0.52522  1.0000
  C   C2        1.0  0.17607000000000006  0.8193300000000002  0.43871  1.0000
  C   C3        1.0  0.22924000000000005  0.7623200000000002  0.42285999999999996  1.0000
  C   C4        1.0  0.2728400000000001  0.7143700000000002  0.4921799999999999  1.0000
  C   C5        1.0  0.2591400000000001  0.7213200000000002  0.57637  1.0000
  C   C6        1.0  0.20662  0.7774  0.59349  1.0000
  C   C7        1.0  0.2566500000000001  0.65156  0.7059  1.0000
  C   C8        1.0  0.32114999999999994  0.71996  0.8095799999999999  1.0000
  C   C9        1.0  0.27365999999999996  0.6975300000000001  0.8711199999999998  1.0000
  C   C10       1.0  0.15993  0.60805  0.8292  1.0000
  C   C11       1.0  0.09702000000000004  0.5374600000000002  0.72679  1.0000
  C   C12       1.0  0.14587000000000003  0.5586000000000001  0.66638  1.0000
  C   C13       1.0  0.11376000000000004  0.8881300000000001  0.54985  1.0000
  C   C14       1.0  0.2313300000000001  0.7443900000000001  0.32672999999999996  1.0000
  C   C15       1.0  0.10501  0.58785  0.89252  1.0000
  C   C16       1.0  0.8005500000000001  0.6407300000000001  0.9734099999999999  1.0000
  C   C17       1.0  0.8781700000000001  0.73645  0.06012  1.0000
  C   C18       1.0  0.83689  0.80536  0.076  1.0000
  C   C19       1.0  0.71992  0.7798600000000002  0.006919999999999998  1.0000
  C   C20       1.0  0.6430400000000002  0.6822500000000002  0.92269  1.0000
  C   C21       1.0  0.6823199999999998  0.6129399999999999  0.9052999999999998  1.0000
  C   C22       1.0  0.4442699999999999  0.55062  0.7931499999999998  1.0000
  C   C23       1.0  0.4101399999999999  0.51208  0.6896699999999998  1.0000
  C   C24       1.0  0.326  0.40329000000000004  0.6277899999999997  1.0000
  C   C25       1.0  0.2774499999999999  0.33114  0.6692  1.0000
  C   C26       1.0  0.3084699999999999  0.36994999999999995  0.7714999999999997  1.0000
  C   C27       1.0  0.38987999999999995  0.47906000000000004  0.8321999999999998  1.0000
  C   C28       1.0  0.8369600000000001  0.5639200000000001  0.9487799999999997  1.0000
  C   C29       1.0  0.9152200000000003  0.9037200000000004  0.17174  1.0000
  C   C30       1.0  0.1937200000000001  0.21312000000000006  0.60538  1.0000
  C   C31       1.0  0.8310400000000002  0.17449  0.4709099999999999  1.0000
  C   C32       1.0  0.8264400000000002  0.18487000000000006  0.56007  1.0000
  C   C33       1.0  0.77561  0.24315  0.57872  1.0000
  C   C34       1.0  0.72999  0.29084  0.5100199999999999  1.0000
  C   C35       1.0  0.7389300000000002  0.28191  0.42339  1.0000
  C   C36       1.0  0.7885400000000001  0.22415000000000004  0.40334  1.0000
  C   C37       1.0  0.74136  0.3518900000000001  0.2948799999999999  1.0000
  C   C38       1.0  0.67935  0.28331000000000006  0.19166999999999998  1.0000
  C   C39       1.0  0.7299000000000001  0.3061200000000001  0.13245999999999997  1.0000
  C   C40       1.0  0.84393  0.39579  0.1761  1.0000
  C   C41       1.0  0.90431  0.46662  0.27795  1.0000
  C   C42       1.0  0.8523599999999999  0.44534999999999997  0.3360199999999999  1.0000
  C   C43       1.0  0.87966  0.11219999999999997  0.44171999999999995  1.0000
  C   C44       1.0  0.77623  0.26150999999999996  0.6761999999999998  1.0000
  C   C45       1.0  0.9013600000000003  0.41561  0.11478999999999998  1.0000
  C   C46       1.0  0.20263000000000003  0.3600000000000001  0.0279  1.0000
  C   C47       1.0  0.12468999999999987  0.26678  0.9386199999999998  1.0000
  C   C48       1.0  0.1645499999999998  0.19762999999999992  0.9197899999999998  1.0000
  C   C49       1.0  0.28073  0.22064  0.98843  1.0000
  C   C50       1.0  0.35777  0.3158300000000001  0.0753  1.0000
  C   C51       1.0  0.3196300000000001  0.38507000000000013  0.0956  1.0000
  C   C52       1.0  0.5557000000000001  0.44676  0.20382  1.0000
  C   C53       1.0  0.5894  0.4875800000000001  0.30683  1.0000
  C   C54       1.0  0.67095  0.5973100000000001  0.36620999999999987  1.0000
  C   C55       1.0  0.7178200000000003  0.6679500000000003  0.32291  1.0000
  C   C56       1.0  0.68753  0.6269  0.22117999999999993  1.0000
  C   C57       1.0  0.60831  0.517  0.1629  1.0000
  C   C58       1.0  0.16820000000000004  0.4370400000000001  0.056029999999999996  1.0000
  C   C59       1.0  0.0852099999999999  0.10104999999999995  0.8222999999999998  1.0000
  C   C60       1.0  0.7997199999999999  0.78654  0.38436999999999993  1.0000
  N   N1        1.0  0.43886000000000003  0.81873  0.8569299999999999  1.0000
  N   N2        1.0  0.46258999999999995  0.58281  0.6427899999999999  1.0000
  N   N3        1.0  0.56163  0.18380000000000002  0.14233999999999997  1.0000
  N   N4        1.0  0.53886  0.4186100000000001  0.35584  1.0000
  O   O1        1.0  0.10408000000000005  0.8881200000000001  0.62791  1.0000
  O   O2        1.0  0.07856000000000002  0.93997  0.4928799999999999  1.0000
  O   O3        1.0  0.16647  0.76456  0.25159999999999993  1.0000
  O   O4        1.0  0.28796000000000005  0.7001400000000002  0.31551  1.0000
  O   O5        1.0  0.4601300000000001  0.8654500000000003  0.80004  1.0000
  O   O6        1.0  0.50789  0.8488500000000001  0.9515099999999999  1.0000
  O   O7        1.0  0.16829999999999987  0.6481100000000001  0.9876999999999998  1.0000
  O   O8        1.0  0.99677  0.5104200000000001  0.84631  1.0000
  O   O9        1.0  0.30003000000000013  0.6698500000000002  0.6418899999999998  1.0000
  O   O10       1.0  0.75936  0.4765  0.8705299999999998  1.0000
  O   O11       1.0  0.9455  0.58564  0.00604  1.0000
  O   O12       1.0  0.009830000000000082  0.9131400000000002  0.24693999999999997  1.0000
  O   O13       1.0  0.8833799999999998  0.9725999999999998  0.18258999999999995  1.0000
  O   O14       1.0  0.56465  0.66251  0.70053  1.0000
  O   O15       1.0  0.4004499999999999  0.55602  0.5476899999999999  1.0000
  O   O16       1.0  0.15789000000000003  0.18206999999999998  0.5099  1.0000
  O   O17       1.0  0.16332999999999992  0.15044  0.6516699999999999  1.0000
  O   O18       1.0  0.5262899999999999  0.6577199999999999  0.8575299999999998  1.0000
  O   O19       1.0  0.88464  0.11062  0.3614099999999999  1.0000
  O   O20       1.0  0.9163300000000001  0.06013999999999997  0.49764999999999987  1.0000
  O   O21       1.0  0.8401600000000001  0.23939  0.75001  1.0000
  O   O22       1.0  0.7212799999999999  0.3068899999999999  0.6890799999999998  1.0000
  O   O23       1.0  0.53684  0.1381  0.19841  1.0000
  O   O24       1.0  0.49617  0.15226000000000006  0.04701999999999999  1.0000
  O   O25       1.0  0.8389800000000002  0.35621  0.01933  1.0000
  O   O26       1.0  0.010369999999999997  0.49173000000000006  0.16253999999999993  1.0000
  O   O27       1.0  0.6964399999999998  0.33261  0.35768  1.0000
  O   O28       1.0  0.24641000000000002  0.5232900000000001  0.13527  1.0000
  O   O29       1.0  0.05987000000000005  0.4162700000000001  0.00025  1.0000
  O   O30       1.0  0.9905500000000003  0.09279000000000004  0.74839  1.0000
  O   O31       1.0  0.11586000000000006  0.031690000000000045  0.80948  1.0000
  O   O32       1.0  0.4372600000000001  0.33807000000000004  0.2997699999999999  1.0000
  O   O33       1.0  0.60241  0.4478900000000001  0.45115  1.0000
  O   O34       1.0  0.8359  0.8196200000000002  0.47988999999999987  1.0000
  O   O35       1.0  0.82885  0.8477  0.3366  1.0000
  O   O36       1.0  0.47401000000000015  0.33909000000000006  0.14098  1.0000
