data_image0
_chemical_formula_structural       Zn8Mo24H16C32O64
_chemical_formula_sum              "Zn8 Mo24 H16 C32 O64"
_cell_length_a       14.84808
_cell_length_b       16.53737
_cell_length_c       25.268870000000003
_cell_angle_alpha    82.5406
_cell_angle_beta     73.17737
_cell_angle_gamma    62.59294

_space_group_name_H-M_alt    "P 1"
_space_group_IT_number       1

loop_
  _space_group_symop_operation_xyz
  'x, y, z'

loop_
  _atom_site_type_symbol
  _atom_site_label
  _atom_site_symmetry_multiplicity
  _atom_site_fract_x
  _atom_site_fract_y
  _atom_site_fract_z
  _atom_site_occupancy
  Zn  Zn1       1.0  0.41832999999999987  0.40061000000000013  0.83506  1.0000
  Zn  Zn2       1.0  0.18248000000000017  0.40437  0.66339  1.0000
  Zn  Zn3       1.0  0.26361  0.09558000000000001  0.84744  1.0000
  Zn  Zn4       1.0  0.7364000000000002  0.9044200000000001  0.15256  1.0000
  Zn  Zn5       1.0  0.63809  0.10094  0.6525000000000001  1.0000
  Zn  Zn6       1.0  0.36191999999999985  0.8990600000000002  0.34749  1.0000
  Zn  Zn7       1.0  0.5816800000000001  0.59939  0.16494  1.0000
  Zn  Zn8       1.0  0.81754  0.5956300000000002  0.3366100000000001  1.0000
  Mo  Mo1       1.0  0.55078  0.82378  0.13641  1.0000
  Mo  Mo2       1.0  0.17219999999999996  0.46475  0.80049  1.0000
  Mo  Mo3       1.0  0.44924  0.17622  0.8635900000000001  1.0000
  Mo  Mo4       1.0  0.5863199999999998  0.94493  0.2929  1.0000
  Mo  Mo5       1.0  0.8278100000000002  0.53525  0.19951  1.0000
  Mo  Mo6       1.0  0.45767999999999986  0.32748  0.6272100000000002  1.0000
  Mo  Mo7       1.0  0.37884  0.17915000000000003  0.6314200000000001  1.0000
  Mo  Mo8       1.0  0.1265899999999999  0.32126  0.8052600000000002  1.0000
  Mo  Mo9       1.0  0.23493999999999993  0.17914  0.70927  1.0000
  Mo  Mo10      1.0  0.54233  0.67252  0.3727800000000001  1.0000
  Mo  Mo11      1.0  0.78323  0.6817500000000001  0.12946  1.0000
  Mo  Mo12      1.0  0.62117  0.82085  0.36857  1.0000
  Mo  Mo13      1.0  0.21677999999999994  0.31825  0.8705400000000001  1.0000
  Mo  Mo14      1.0  0.8734199999999999  0.67874  0.19473  1.0000
  Mo  Mo15      1.0  0.5333199999999999  0.054150000000000004  0.7923900000000001  1.0000
  Mo  Mo16      1.0  0.37082000000000004  0.4444  0.7014200000000002  1.0000
  Mo  Mo17      1.0  0.44639999999999996  0.6741200000000003  0.30372  1.0000
  Mo  Mo18      1.0  0.7650699999999998  0.8208600000000003  0.29072  1.0000
  Mo  Mo19      1.0  0.5536099999999998  0.3258800000000001  0.6962800000000001  1.0000
  Mo  Mo20      1.0  0.5972400000000001  0.17583  0.78864  1.0000
  Mo  Mo21      1.0  0.40277  0.82416  0.21136000000000002  1.0000
  Mo  Mo22      1.0  0.6291899999999999  0.5556000000000002  0.29858000000000007  1.0000
  Mo  Mo23      1.0  0.4666899999999999  0.94584  0.20761000000000004  1.0000
  Mo  Mo24      1.0  0.41368999999999995  0.055070000000000015  0.7071000000000002  1.0000
  H   H1        1.0  0.59398  0.34127000000000013  0.9642000000000002  1.0000
  H   H2        1.0  0.034169999999999943  0.11692000000000002  0.4361500000000001  1.0000
  H   H3        1.0  0.022649999999999948  0.8406800000000001  0.00705  1.0000
  H   H4        1.0  0.6330900000000002  0.3812  0.04522000000000001  1.0000
  H   H5        1.0  0.15317999999999993  0.8824  0.9355700000000002  1.0000
  H   H6        1.0  0.9773600000000002  0.15932  0.9929500000000001  1.0000
  H   H7        1.0  0.013170000000000038  0.619  0.54433  1.0000
  H   H8        1.0  0.14008999999999974  0.8403600000000002  0.4929300000000001  1.0000
  H   H9        1.0  0.9658399999999999  0.88308  0.56385  1.0000
  H   H10       1.0  0.8468300000000002  0.1176  0.06443  1.0000
  H   H11       1.0  0.94058  0.65623  0.4608  1.0000
  H   H12       1.0  0.05942999999999998  0.34376  0.53919  1.0000
  H   H13       1.0  0.40603000000000006  0.65873  0.0358  1.0000
  H   H14       1.0  0.8599300000000001  0.15963  0.50707  1.0000
  H   H15       1.0  0.3669199999999999  0.6188000000000002  0.95478  1.0000
  H   H16       1.0  0.9868399999999999  0.3810000000000001  0.45567  1.0000
  C   C1        1.0  0.9859999999999999  0.09002  0.9966700000000002  1.0000
  C   C2        1.0  0.44628  0.58966  0.01956  1.0000
  C   C3        1.0  0.018219999999999972  0.06659  0.4642200000000001  1.0000
  C   C4        1.0  0.19935999999999984  0.9482000000000003  0.41919  1.0000
  C   C5        1.0  0.9220700000000001  0.09016  0.5033  1.0000
  C   C6        1.0  0.5214799999999999  0.52244  0.04489000000000001  1.0000
  C   C7        1.0  0.006999999999999833  0.5677100000000003  0.52464  1.0000
  C   C8        1.0  0.07204999999999996  0.023160000000000004  0.9605000000000001  1.0000
  C   C9        1.0  0.99301  0.43229000000000006  0.47535000000000005  1.0000
  C   C10       1.0  0.039580000000000025  0.47929  0.5464  1.0000
  C   C11       1.0  0.9157799999999998  0.5459700000000002  0.40503000000000006  1.0000
  C   C12       1.0  0.92796  0.97684  0.03949  1.0000
  C   C13       1.0  0.5752699999999998  0.43246  0.02517  1.0000
  C   C14       1.0  0.45729  0.45034000000000013  0.9079300000000002  1.0000
  C   C15       1.0  0.42475  0.56754  0.97483  1.0000
  C   C16       1.0  0.90357  0.02378  0.53916  1.0000
  C   C17       1.0  0.80066  0.0518  0.5808100000000002  1.0000
  C   C18       1.0  0.55373  0.41034  0.98044  1.0000
  C   C19       1.0  0.09644999999999995  0.97621  0.46084000000000014  1.0000
  C   C20       1.0  0.01400999999999991  0.9099800000000002  0.003330000000000001  1.0000
  C   C21       1.0  0.08423000000000003  0.45403000000000004  0.59497  1.0000
  C   C22       1.0  0.07793999999999994  0.9098400000000001  0.49670000000000003  1.0000
  C   C23       1.0  0.032640000000000016  0.41176  0.52158  1.0000
  C   C24       1.0  0.9817900000000005  0.93341  0.53578  1.0000
  C   C25       1.0  0.47852999999999996  0.47756  0.95511  1.0000
  C   C26       1.0  0.14657000000000006  0.05024000000000001  0.91853  1.0000
  C   C27       1.0  0.91404  0.06705  0.03606  1.0000
  C   C28       1.0  0.54272  0.5496600000000001  0.09206000000000002  1.0000
  C   C29       1.0  0.8534400000000004  0.94976  0.08147000000000001  1.0000
  C   C30       1.0  0.9604299999999998  0.5207100000000001  0.4536000000000001  1.0000
  C   C31       1.0  0.08597000000000003  0.93295  0.96394  1.0000
  C   C32       1.0  0.96738  0.58823  0.47842  1.0000
  O   O1        1.0  0.4634000000000002  0.04795  0.62757  1.0000
  O   O2        1.0  0.5952700000000001  0.9557800000000002  0.21154000000000003  1.0000
  O   O3        1.0  0.16786000000000023  0.45214  0.87536  1.0000
  O   O4        1.0  0.77608  0.007490000000000002  0.11745  1.0000
  O   O5        1.0  0.4547099999999998  0.9453400000000002  0.28819000000000006  1.0000
  O   O6        1.0  0.33222999999999997  0.31264  0.62179  1.0000
  O   O7        1.0  0.31342  0.45586  0.7854500000000002  1.0000
  O   O8        1.0  0.32785000000000003  0.95596  0.22220000000000004  1.0000
  O   O9        1.0  0.77766  0.54361  0.28033  1.0000
  O   O10       1.0  0.6865899999999999  0.54414  0.21454000000000004  1.0000
  O   O11       1.0  0.6677799999999996  0.68735  0.37821  1.0000
  O   O12       1.0  0.4270399999999999  0.8181600000000002  0.1324  1.0000
  O   O13       1.0  0.9446999999999999  0.54425  0.20625000000000004  1.0000
  O   O14       1.0  0.7835400000000002  0.99653  0.61897  1.0000
  O   O15       1.0  0.10978999999999998  0.5078  0.6133800000000001  1.0000
  O   O16       1.0  0.62201  0.54058  0.37562000000000006  1.0000
  O   O17       1.0  0.50757  0.9546800000000002  0.12903  1.0000
  O   O18       1.0  0.5457300000000005  0.30937000000000003  0.77781  1.0000
  O   O19       1.0  0.4914399999999999  0.4562600000000001  0.70582  1.0000
  O   O20       1.0  0.7555499999999999  0.8131200000000002  0.3680100000000001  1.0000
  O   O21       1.0  0.4047399999999999  0.044220000000000016  0.7884600000000003  1.0000
  O   O22       1.0  0.6409  0.69181  0.1351  1.0000
  O   O23       1.0  0.37799999999999995  0.45942  0.62437  1.0000
  O   O24       1.0  0.13266999999999987  0.13244000000000003  0.9178700000000002  1.0000
  O   O25       1.0  0.5729700000000001  0.18184  0.86759  1.0000
  O   O26       1.0  0.29573999999999984  0.19103  0.8782200000000002  1.0000
  O   O27       1.0  0.49244000000000004  0.04532  0.8709600000000002  1.0000
  O   O28       1.0  0.5453  0.05466000000000001  0.71181  1.0000
  O   O29       1.0  0.8902200000000001  0.4921900000000001  0.38662  1.0000
  O   O30       1.0  0.4959199999999999  0.8046500000000002  0.3705700000000001  1.0000
  O   O31       1.0  0.38693999999999995  0.50761  0.8838100000000001  1.0000
  O   O32       1.0  0.27157000000000003  0.86727  0.4206  1.0000
  O   O33       1.0  0.49047999999999997  0.63249  0.10837  1.0000
  O   O34       1.0  0.22235999999999992  0.45639  0.7196700000000003  1.0000
  O   O35       1.0  0.8992999999999999  0.6234100000000002  0.38237000000000004  1.0000
  O   O36       1.0  0.37907000000000013  0.8073400000000001  0.29359  1.0000
  O   O37       1.0  0.40465999999999996  0.6816200000000002  0.38358  1.0000
  O   O38       1.0  0.8321599999999999  0.5478600000000002  0.12464000000000001  1.0000
  O   O39       1.0  0.055309999999999825  0.45575  0.7937400000000002  1.0000
  O   O40       1.0  0.08231999999999996  0.31655  0.88472  1.0000
  O   O41       1.0  0.24447  0.18688000000000005  0.63198  1.0000
  O   O42       1.0  0.8673500000000001  0.86756  0.08213000000000001  1.0000
  O   O43       1.0  0.22393000000000007  0.99251  0.8825500000000001  1.0000
  O   O44       1.0  0.5095399999999999  0.36751  0.8916300000000001  1.0000
  O   O45       1.0  0.8224400000000001  0.80655  0.20434  1.0000
  O   O46       1.0  0.9176999999999998  0.6834500000000001  0.11528  1.0000
  O   O47       1.0  0.35911000000000004  0.30819  0.8649  1.0000
  O   O48       1.0  0.17756999999999998  0.19345  0.79566  1.0000
  O   O49       1.0  0.21646999999999997  0.0034700000000000017  0.3810300000000001  1.0000
  O   O50       1.0  0.6721699999999998  0.04404  0.7778000000000003  1.0000
  O   O51       1.0  0.7153000000000004  0.9523300000000002  0.27808  1.0000
  O   O52       1.0  0.50409  0.19534  0.62943  1.0000
  O   O53       1.0  0.8338100000000002  0.6890600000000001  0.27699  1.0000
  O   O54       1.0  0.5953599999999999  0.3183800000000001  0.61642  1.0000
  O   O55       1.0  0.70427  0.80897  0.12178000000000003  1.0000
  O   O56       1.0  0.62094  0.19266  0.70641  1.0000
  O   O57       1.0  0.6130699999999999  0.4923900000000001  0.11619  1.0000
  O   O58       1.0  0.7284499999999999  0.13273  0.5794  1.0000
  O   O59       1.0  0.16620000000000001  0.31094  0.723  1.0000
  O   O60       1.0  0.28471000000000024  0.04767  0.72191  1.0000
  O   O61       1.0  0.5085799999999998  0.54373  0.29417000000000004  1.0000
  O   O62       1.0  0.4542799999999999  0.6906300000000002  0.22218000000000004  1.0000
  O   O63       1.0  0.10071000000000001  0.3765900000000001  0.61763  1.0000
  O   O64       1.0  0.53662  0.95205  0.3724200000000001  1.0000
