data_image0
_chemical_formula_structural       Sr4Ca4H48C40N8O32
_chemical_formula_sum              "Sr4 Ca4 H48 C40 N8 O32"
_cell_length_a       11.17771
_cell_length_b       11.18368
_cell_length_c       15.716800000000001
_cell_angle_alpha    86.12509
_cell_angle_beta     86.13929000000002
_cell_angle_gamma    61.915589999999995

_symmetry_space_group_name_H-M    'P 1'
_symmetry_Int_Tables_number       1

loop_
  _symmetry_equiv_pos_as_xyz
  'x,y,z'

loop_
  _atom_site_type_symbol
  _atom_site_label
  _atom_site_symmetry_multiplicity
  _atom_site_fract_x
  _atom_site_fract_y
  _atom_site_fract_z
  _atom_site_occupancy
  Sr  Sr1       1.0  0.33716000000000007  0.94917  0.01044  1.0000
  Sr  Sr2       1.0  0.04965999999999999  0.66233  0.49059  1.0000
  Sr  Sr3       1.0  0.66283  0.05084000000000001  0.9895599999999999  1.0000
  Sr  Sr4       1.0  0.9503299999999998  0.33767  0.50941  1.0000
  Ca  Ca1       1.0  0.67353  0.13136  0.25522  1.0000
  Ca  Ca2       1.0  0.8678499999999999  0.32666  0.24426999999999993  1.0000
  Ca  Ca3       1.0  0.3264599999999999  0.8686400000000002  0.7447799999999999  1.0000
  Ca  Ca4       1.0  0.1321400000000001  0.67334  0.7557299999999998  1.0000
  H   H1        1.0  0.34780999999999995  0.23896000000000003  0.44882  1.0000
  H   H2        1.0  0.33594999999999997  0.24949000000000005  0.3372999999999999  1.0000
  H   H3        1.0  0.39499  0.018199999999999997  0.40005  1.0000
  H   H4        1.0  0.5439299999999999  0.007080000000000012  0.4395499999999999  1.0000
  H   H5        1.0  0.5279099999999998  0.32035  0.4966799999999999  1.0000
  H   H6        1.0  0.61797  0.14478  0.47929  1.0000
  H   H7        1.0  0.5058700000000002  0.44442999999999994  0.3375299999999999  1.0000
  H   H8        1.0  0.3467599999999999  0.46384  0.37827  1.0000
  H   H9        1.0  0.6212  0.78984  0.3619199999999999  1.0000
  H   H10       1.0  0.7074599999999999  0.8047599999999999  0.26716  1.0000
  H   H11       1.0  0.4388500000000001  0.9191899999999998  0.24498999999999996  1.0000
  H   H12       1.0  0.38966999999999996  0.09708000000000001  0.22843999999999995  1.0000
  H   H13       1.0  0.76096  0.65218  0.051049999999999984  1.0000
  H   H14       1.0  0.7503999999999998  0.66367  0.1626  1.0000
  H   H15       1.0  0.98192  0.60513  0.09970999999999997  1.0000
  H   H16       1.0  0.9932399999999999  0.45601  0.060429999999999984  1.0000
  H   H17       1.0  0.67989  0.4723  0.002839999999999999  1.0000
  H   H18       1.0  0.85571  0.38205  0.02027  1.0000
  H   H19       1.0  0.55559  0.49376  0.16188  1.0000
  H   H20       1.0  0.5362900000000002  0.65266  0.12089999999999997  1.0000
  H   H21       1.0  0.21032999999999996  0.37844  0.13795  1.0000
  H   H22       1.0  0.19531999999999997  0.29348  0.23319  1.0000
  H   H23       1.0  0.08081999999999999  0.56168  0.25496  1.0000
  H   H24       1.0  0.90295  0.61084  0.27143  1.0000
  H   H25       1.0  0.6521799999999999  0.76104  0.5511799999999998  1.0000
  H   H26       1.0  0.6640399999999999  0.75052  0.6627099999999998  1.0000
  H   H27       1.0  0.605  0.9818  0.59995  1.0000
  H   H28       1.0  0.4560600000000001  0.9929299999999999  0.5604599999999997  1.0000
  H   H29       1.0  0.47208  0.67966  0.50333  1.0000
  H   H30       1.0  0.3820200000000001  0.85522  0.52071  1.0000
  H   H31       1.0  0.49412  0.55558  0.66247  1.0000
  H   H32       1.0  0.6532299999999998  0.53617  0.62173  1.0000
  H   H33       1.0  0.37878999999999996  0.21016  0.63808  1.0000
  H   H34       1.0  0.29253000000000007  0.19525  0.73284  1.0000
  H   H35       1.0  0.5611399999999999  0.08081  0.7550199999999998  1.0000
  H   H36       1.0  0.6103199999999999  0.90293  0.7715599999999998  1.0000
  H   H37       1.0  0.23903  0.3478299999999999  0.94895  1.0000
  H   H38       1.0  0.2496000000000001  0.33633  0.8373999999999998  1.0000
  H   H39       1.0  0.018070000000000034  0.39488000000000006  0.9002899999999998  1.0000
  H   H40       1.0  0.006749999999999992  0.54399  0.9395699999999998  1.0000
  H   H41       1.0  0.32010000000000005  0.5277  0.9971599999999998  1.0000
  H   H42       1.0  0.14429  0.61796  0.97973  1.0000
  H   H43       1.0  0.4444000000000001  0.50624  0.8381199999999998  1.0000
  H   H44       1.0  0.4637  0.34734000000000004  0.8790999999999998  1.0000
  H   H45       1.0  0.78966  0.62156  0.8620499999999998  1.0000
  H   H46       1.0  0.8046699999999999  0.70652  0.76681  1.0000
  H   H47       1.0  0.9191699999999999  0.43832  0.7450399999999998  1.0000
  H   H48       1.0  0.09703999999999999  0.38917  0.72857  1.0000
  C   C1        1.0  0.4083100000000001  0.20513000000000006  0.3884599999999999  1.0000
  C   C2        1.0  0.47375999999999996  0.050890000000000005  0.3871999999999999  1.0000
  C   C3        1.0  0.71742  0.2534  0.4230599999999999  1.0000
  C   C4        1.0  0.58578  0.24564  0.4478399999999999  1.0000
  C   C5        1.0  0.43668000000000007  0.39971999999999996  0.33831  1.0000
  C   C6        1.0  0.3942099999999999  0.4062000000000002  0.24558999999999995  1.0000
  C   C7        1.0  0.6613000000000002  0.85334  0.32781999999999994  1.0000
  C   C8        1.0  0.77508  0.8555500000000001  0.37511  1.0000
  C   C9        1.0  0.47612  0.9949799999999999  0.23652  1.0000
  C   C10       1.0  0.5602799999999998  0.97149  0.15320999999999999  1.0000
  C   C11       1.0  0.79497  0.59155  0.11133999999999997  1.0000
  C   C12       1.0  0.9493  0.52634  0.11262999999999997  1.0000
  C   C13       1.0  0.74693  0.28271  0.07596999999999997  1.0000
  C   C14       1.0  0.7547400000000001  0.41428999999999994  0.05160999999999999  1.0000
  C   C15       1.0  0.60037  0.56288  0.16093  1.0000
  C   C16       1.0  0.5934199999999997  0.60606  0.25335  1.0000
  C   C17       1.0  0.14677999999999994  0.33865  0.17234  1.0000
  C   C18       1.0  0.14437999999999987  0.22442000000000004  0.12565  1.0000
  C   C19       1.0  0.00503000000000002  0.52431  0.2632499999999999  1.0000
  C   C20       1.0  0.028320000000000022  0.43972  0.34626  1.0000
  C   C21       1.0  0.5916799999999997  0.7948700000000001  0.61154  1.0000
  C   C22       1.0  0.5262299999999999  0.9491200000000001  0.6128099999999997  1.0000
  C   C23       1.0  0.28257  0.7466  0.57694  1.0000
  C   C24       1.0  0.41421000000000024  0.75436  0.55217  1.0000
  C   C25       1.0  0.56331  0.60029  0.66169  1.0000
  C   C26       1.0  0.6057799999999998  0.5938  0.75441  1.0000
  C   C27       1.0  0.33869  0.14666  0.6721799999999998  1.0000
  C   C28       1.0  0.22490999999999994  0.14445  0.62489  1.0000
  C   C29       1.0  0.52387  0.005020000000000012  0.7634799999999998  1.0000
  C   C30       1.0  0.43971  0.028509999999999997  0.84679  1.0000
  C   C31       1.0  0.20502  0.40846  0.8886599999999998  1.0000
  C   C32       1.0  0.05069000000000005  0.47365999999999997  0.88737  1.0000
  C   C33       1.0  0.25306  0.71729  0.9240299999999998  1.0000
  C   C34       1.0  0.2452500000000001  0.58571  0.9483999999999998  1.0000
  C   C35       1.0  0.39962  0.43713  0.8390699999999998  1.0000
  C   C36       1.0  0.40656999999999993  0.39394  0.74665  1.0000
  C   C37       1.0  0.85321  0.66135  0.82766  1.0000
  C   C38       1.0  0.8556099999999999  0.7755799999999999  0.87436  1.0000
  C   C39       1.0  0.99496  0.47569  0.73675  1.0000
  C   C40       1.0  0.9716699999999999  0.56029  0.6537399999999998  1.0000
  N   N1        1.0  0.5069500000000001  0.25859  0.37329  1.0000
  N   N2        1.0  0.55514  0.9927700000000002  0.30824  1.0000
  N   N3        1.0  0.74167  0.49276  0.12624  1.0000
  N   N4        1.0  0.00732  0.44522000000000006  0.19162  1.0000
  N   N5        1.0  0.4930399999999999  0.74142  0.62672  1.0000
  N   N6        1.0  0.44485  0.00724  0.69177  1.0000
  N   N7        1.0  0.25832  0.5072400000000001  0.8737599999999998  1.0000
  N   N8        1.0  0.99267  0.55478  0.8083899999999998  1.0000
  O   O1        1.0  0.76418  0.23041  0.3458299999999999  1.0000
  O   O2        1.0  0.77409  0.27892  0.4811499999999999  1.0000
  O   O3        1.0  0.47227  0.3025  0.20095999999999994  1.0000
  O   O4        1.0  0.29123  0.50973  0.22083999999999995  1.0000
  O   O5        1.0  0.8111  0.94542  0.35334  1.0000
  O   O6        1.0  0.82918  0.76273  0.4331799999999999  1.0000
  O   O7        1.0  0.6622999999999999  0.99539  0.14761999999999995  1.0000
  O   O8        1.0  0.5262699999999998  0.9328800000000002  0.08896999999999997  1.0000
  O   O9        1.0  0.76913  0.2357  0.15316  1.0000
  O   O10       1.0  0.72223  0.22661  0.017179999999999994  1.0000
  O   O11       1.0  0.6966699999999999  0.52807  0.29852  1.0000
  O   O12       1.0  0.48990999999999996  0.70966  0.27729  1.0000
  O   O13       1.0  0.05448999999999998  0.18854  0.14780999999999994  1.0000
  O   O14       1.0  0.2369  0.16993  0.06746  1.0000
  O   O15       1.0  0.005470000000000032  0.33717  0.35089  1.0000
  O   O16       1.0  0.06591999999999991  0.47363000000000005  0.41113  1.0000
  O   O17       1.0  0.23581000000000002  0.7696  0.6541699999999998  1.0000
  O   O18       1.0  0.2259  0.72108  0.51885  1.0000
  O   O19       1.0  0.5277200000000001  0.69751  0.79904  1.0000
  O   O20       1.0  0.70876  0.49028  0.77916  1.0000
  O   O21       1.0  0.18888999999999997  0.05457999999999999  0.6466599999999998  1.0000
  O   O22       1.0  0.17080999999999996  0.23728000000000002  0.5668199999999998  1.0000
  O   O23       1.0  0.33769  0.004620000000000007  0.85238  1.0000
  O   O24       1.0  0.4737199999999999  0.06712  0.9110299999999999  1.0000
  O   O25       1.0  0.2308599999999999  0.7643000000000001  0.8468399999999998  1.0000
  O   O26       1.0  0.27776  0.7733900000000001  0.9828199999999998  1.0000
  O   O27       1.0  0.3033200000000001  0.47192999999999996  0.7014899999999997  1.0000
  O   O28       1.0  0.5100799999999999  0.29034  0.7227099999999997  1.0000
  O   O29       1.0  0.9454999999999998  0.8114599999999998  0.8521999999999997  1.0000
  O   O30       1.0  0.7630899999999999  0.83007  0.9325499999999998  1.0000
  O   O31       1.0  0.99452  0.66283  0.64911  1.0000
  O   O32       1.0  0.9340699999999997  0.52638  0.58887  1.0000
