data_image0
_chemical_formula_structural       Mn6H24C60S12O24
_chemical_formula_sum              "Mn6 H24 C60 S12 O24"
_cell_length_a       11.79347
_cell_length_b       11.85864
_cell_length_c       19.154030000000002
_cell_angle_alpha    75.24771999999999
_cell_angle_beta     74.6289
_cell_angle_gamma    79.21551

_space_group_name_H-M_alt    "P 1"
_space_group_IT_number       1

loop_
  _space_group_symop_operation_xyz
  'x, y, z'

loop_
  _atom_site_type_symbol
  _atom_site_label
  _atom_site_symmetry_multiplicity
  _atom_site_fract_x
  _atom_site_fract_y
  _atom_site_fract_z
  _atom_site_occupancy
  Mn  Mn1       1.0  0.9801099999999999  0.32853000000000004  0.67093  1.0000
  Mn  Mn2       1.0  0.6765799999999998  0.015309999999999982  0.83124  1.0000
  Mn  Mn3       1.0  0.019900000000000004  0.67148  0.32906  1.0000
  Mn  Mn4       1.0  0.32341999999999993  0.98469  0.16876  1.0000
  Mn  Mn5       1.0  0.0  0.5  0.5  1.0000
  Mn  Mn6       1.0  0.5  0.0  0.0  1.0000
  H   H1        1.0  0.62617  0.20299000000000003  0.62951  1.0000
  H   H2        1.0  0.45837000000000006  0.2957600000000001  0.55607  1.0000
  H   H3        1.0  0.22949999999999998  0.7159000000000003  0.5491299999999999  1.0000
  H   H4        1.0  0.32865000000000005  0.8255100000000001  0.6166999999999999  1.0000
  H   H5        1.0  0.27041  0.24426000000000003  0.40083  1.0000
  H   H6        1.0  0.46336  0.09216000000000003  0.3766999999999999  1.0000
  H   H7        1.0  0.8013499999999999  0.36950000000000016  0.8717099999999998  1.0000
  H   H8        1.0  0.7068499999999999  0.53925  0.94349  1.0000
  H   H9        1.0  0.2879900000000001  0.77104  0.9500899999999999  1.0000
  H   H10       1.0  0.17679000000000003  0.67295  0.88288  1.0000
  H   H11       1.0  0.75591  0.73092  0.1011  1.0000
  H   H12       1.0  0.90621  0.5375700000000001  0.12390999999999999  1.0000
  H   H13       1.0  0.37383999999999995  0.7970200000000001  0.37048  1.0000
  H   H14       1.0  0.5416400000000002  0.70424  0.44392  1.0000
  H   H15       1.0  0.7705100000000001  0.2841  0.4508599999999999  1.0000
  H   H16       1.0  0.6713500000000001  0.1744900000000001  0.3832999999999999  1.0000
  H   H17       1.0  0.7296  0.75574  0.59916  1.0000
  H   H18       1.0  0.5366399999999999  0.9078500000000002  0.6232999999999999  1.0000
  H   H19       1.0  0.19865999999999998  0.63051  0.12829  1.0000
  H   H20       1.0  0.29315  0.46075000000000005  0.05651  1.0000
  H   H21       1.0  0.71202  0.22896  0.049909999999999996  1.0000
  H   H22       1.0  0.8232099999999999  0.3270500000000001  0.11711  1.0000
  H   H23       1.0  0.2441000000000001  0.26909  0.8988899999999999  1.0000
  H   H24       1.0  0.09380000000000002  0.46243999999999996  0.87609  1.0000
  C   C1        1.0  0.79844  0.35528999999999994  0.62087  1.0000
  C   C2        1.0  0.6947500000000001  0.37174999999999997  0.59085  1.0000
  C   C3        1.0  0.61665  0.29284  0.59767  1.0000
  C   C4        1.0  0.52756  0.34275  0.5585  1.0000
  C   C5        1.0  0.53731  0.4603400000000001  0.52241  1.0000
  C   C6        1.0  0.08945999999999997  0.53312  0.6405  1.0000
  C   C7        1.0  0.15553000000000006  0.61197  0.6572699999999999  1.0000
  C   C8        1.0  0.22146000000000005  0.6974  0.60867  1.0000
  C   C9        1.0  0.27484  0.75504  0.64504  1.0000
  C   C10       1.0  0.24970999999999993  0.7142300000000001  0.7220399999999999  1.0000
  C   C11       1.0  0.15703000000000003  0.2551  0.55083  1.0000
  C   C12       1.0  0.26486  0.1849300000000001  0.5182199999999999  1.0000
  C   C13       1.0  0.31166  0.18628  0.4436  1.0000
  C   C14       1.0  0.4149  0.10568000000000001  0.43117999999999995  1.0000
  C   C15       1.0  0.44921  0.04368000000000001  0.49620999999999993  1.0000
  C   C16       1.0  0.6484399999999999  0.19728000000000004  0.88162  1.0000
  C   C17       1.0  0.6308199999999999  0.30205000000000004  0.91076  1.0000
  C   C18       1.0  0.71024  0.37994000000000017  0.90338  1.0000
  C   C19       1.0  0.6592100000000002  0.47031  0.9417099999999999  1.0000
  C   C20       1.0  0.5401599999999999  0.4619400000000001  0.97782  1.0000
  C   C21       1.0  0.4714499999999999  0.9107400000000002  0.85804  1.0000
  C   C22       1.0  0.39135000000000003  0.8457900000000002  0.84149  1.0000
  C   C23       1.0  0.30594999999999994  0.77965  0.8904499999999999  1.0000
  C   C24       1.0  0.24760000000000001  0.7266200000000002  0.85428  1.0000
  C   C25       1.0  0.28795  0.7520400000000004  0.7771099999999997  1.0000
  C   C26       1.0  0.7469600000000003  0.84205  0.95025  1.0000
  C   C27       1.0  0.8158300000000003  0.7349000000000001  0.9832499999999998  1.0000
  C   C28       1.0  0.8138000000000001  0.6892600000000002  0.05775999999999999  1.0000
  C   C29       1.0  0.8937500000000002  0.58587  0.0696  1.0000
  C   C30       1.0  0.95637  0.55078  0.004209999999999999  1.0000
  C   C31       1.0  0.2015700000000001  0.64471  0.37913  1.0000
  C   C32       1.0  0.30525000000000013  0.6282500000000001  0.4091399999999999  1.0000
  C   C33       1.0  0.3833500000000001  0.7071600000000001  0.40233  1.0000
  C   C34       1.0  0.47243999999999997  0.6572600000000001  0.44148999999999994  1.0000
  C   C35       1.0  0.4626900000000001  0.5396600000000003  0.47757999999999995  1.0000
  C   C36       1.0  0.9105500000000002  0.46688000000000013  0.3595  1.0000
  C   C37       1.0  0.8444800000000001  0.3880400000000001  0.34272  1.0000
  C   C38       1.0  0.7785399999999999  0.30261  0.39133  1.0000
  C   C39       1.0  0.7251700000000001  0.24496999999999997  0.35495999999999994  1.0000
  C   C40       1.0  0.75029  0.28578  0.27796  1.0000
  C   C41       1.0  0.84297  0.7449  0.44917  1.0000
  C   C42       1.0  0.73514  0.8150800000000002  0.48178  1.0000
  C   C43       1.0  0.6883400000000001  0.81373  0.55639  1.0000
  C   C44       1.0  0.58511  0.8943200000000001  0.56881  1.0000
  C   C45       1.0  0.5508  0.95633  0.50379  1.0000
  C   C46       1.0  0.35156000000000015  0.8027200000000002  0.11838  1.0000
  C   C47       1.0  0.36919  0.6979500000000001  0.08924  1.0000
  C   C48       1.0  0.28977  0.62006  0.09661  1.0000
  C   C49       1.0  0.34079  0.5297  0.05829  1.0000
  C   C50       1.0  0.45985  0.53807  0.02218  1.0000
  C   C51       1.0  0.52855  0.08927  0.14196  1.0000
  C   C52       1.0  0.6086600000000001  0.15421000000000004  0.15849999999999997  1.0000
  C   C53       1.0  0.6940600000000002  0.22036  0.10955  1.0000
  C   C54       1.0  0.75241  0.27339  0.14572  1.0000
  C   C55       1.0  0.71205  0.24797000000000002  0.22289  1.0000
  C   C56       1.0  0.25305  0.15795000000000003  0.04974  1.0000
  C   C57       1.0  0.18417  0.2651  0.01675  1.0000
  C   C58       1.0  0.18620999999999993  0.31075  0.94223  1.0000
  C   C59       1.0  0.10625999999999995  0.4141400000000001  0.9304  1.0000
  C   C60       1.0  0.04364000000000003  0.44922999999999996  0.99579  1.0000
  S   S1        1.0  0.6573099999999998  0.5077400000000001  0.5367899999999999  1.0000
  S   S2        1.0  0.16055  0.6028  0.74801  1.0000
  S   S3        1.0  0.34987000000000007  0.08469000000000002  0.57349  1.0000
  S   S4        1.0  0.49279000000000006  0.34147000000000005  0.9642999999999999  1.0000
  S   S5        1.0  0.39974000000000004  0.8411800000000004  0.7507099999999998  1.0000
  S   S6        1.0  0.91617  0.64885  0.92744  1.0000
  S   S7        1.0  0.34269000000000005  0.49227  0.46321  1.0000
  S   S8        1.0  0.8394600000000001  0.39720999999999995  0.25199  1.0000
  S   S9        1.0  0.65013  0.9153100000000002  0.42649999999999993  1.0000
  S   S10       1.0  0.50721  0.65854  0.0357  1.0000
  S   S11       1.0  0.6002600000000001  0.15883000000000008  0.24928999999999998  1.0000
  S   S12       1.0  0.08383  0.35115  0.07255  1.0000
  O   O1        1.0  0.86427  0.44019  0.6006  1.0000
  O   O2        1.0  0.8278300000000003  0.26236000000000004  0.6671499999999998  1.0000
  O   O3        1.0  0.03932000000000007  0.45662  0.6967599999999999  1.0000
  O   O4        1.0  0.08642999999999998  0.54244  0.57354  1.0000
  O   O5        1.0  0.12583  0.23402000000000006  0.62256  1.0000
  O   O6        1.0  0.10179999999999997  0.33060000000000006  0.50738  1.0000
  O   O7        1.0  0.5622700000000002  0.1326  0.90126  1.0000
  O   O8        1.0  0.74365  0.1662600000000001  0.8363299999999998  1.0000
  O   O9        1.0  0.5488799999999999  0.9601800000000003  0.80185  1.0000
  O   O10       1.0  0.4628  0.91342  0.92509  1.0000
  O   O11       1.0  0.7665599999999999  0.8679000000000001  0.87844  1.0000
  O   O12       1.0  0.67426  0.90248  0.9927299999999999  1.0000
  O   O13       1.0  0.13574  0.55981  0.3994  1.0000
  O   O14       1.0  0.1721700000000001  0.73765  0.33285  1.0000
  O   O15       1.0  0.96069  0.5433800000000002  0.3032399999999999  1.0000
  O   O16       1.0  0.9135699999999998  0.45756000000000013  0.4264599999999999  1.0000
  O   O17       1.0  0.87417  0.76599  0.37744  1.0000
  O   O18       1.0  0.89821  0.6694100000000002  0.49260999999999994  1.0000
  O   O19       1.0  0.43772999999999995  0.8674100000000002  0.09873  1.0000
  O   O20       1.0  0.25635  0.8337400000000003  0.16367  1.0000
  O   O21       1.0  0.4511200000000001  0.03983000000000001  0.19815  1.0000
  O   O22       1.0  0.5372  0.08658999999999999  0.07491  1.0000
  O   O23       1.0  0.23344000000000006  0.13210000000000005  0.12155  1.0000
  O   O24       1.0  0.3257500000000001  0.09752  0.0072699999999999996  1.0000
