data_image0
_chemical_formula_structural       Tb4H36C36O24
_chemical_formula_sum              "Tb4 H36 C36 O24"
_cell_length_a       9.74945
_cell_length_b       13.75947
_cell_length_c       15.32103
_cell_angle_alpha    89.9445
_cell_angle_beta     94.74482
_cell_angle_gamma    90.12724999999999

_symmetry_space_group_name_H-M    'P 1'
_symmetry_Int_Tables_number       1

loop_
  _symmetry_equiv_pos_as_xyz
  'x,y,z'

loop_
  _atom_site_type_symbol
  _atom_site_label
  _atom_site_symmetry_multiplicity
  _atom_site_fract_x
  _atom_site_fract_y
  _atom_site_fract_z
  _atom_site_occupancy
  Tb  Tb1       1.0  0.04943999999999998  0.09428  0.90507  1.0000
  Tb  Tb2       1.0  0.45163  0.59507  0.59339  1.0000
  Tb  Tb3       1.0  0.95056  0.9057200000000002  0.0949  1.0000
  Tb  Tb4       1.0  0.54839  0.4049700000000001  0.40662  1.0000
  H   H1        1.0  0.66194  0.898  0.73656  1.0000
  H   H2        1.0  0.74308  0.80343  0.79957  1.0000
  H   H3        1.0  0.66544  0.8767800000000002  0.93684  1.0000
  H   H4        1.0  0.55774  0.04188  0.93349  1.0000
  H   H5        1.0  0.55122  0.0425  0.81811  1.0000
  H   H6        1.0  0.41319999999999996  0.8920400000000002  0.93052  1.0000
  H   H7        1.0  0.29969999999999997  0.8303500000000001  0.7913  1.0000
  H   H8        1.0  0.39371  0.91394  0.73126  1.0000
  H   H9        1.0  0.51753  0.75589  0.85464  1.0000
  H   H10       1.0  0.8382  0.3996500000000001  0.76326  1.0000
  H   H11       1.0  0.75651  0.30507  0.70015  1.0000
  H   H12       1.0  0.83474  0.37803  0.56306  1.0000
  H   H13       1.0  0.9444599999999999  0.54267  0.56587  1.0000
  H   H14       1.0  0.9515799999999999  0.54362  0.68116  1.0000
  H   H15       1.0  0.08675  0.39206  0.56898  1.0000
  H   H16       1.0  0.2001  0.33066000000000006  0.70818  1.0000
  H   H17       1.0  0.10800999999999998  0.41489  0.7681999999999999  1.0000
  H   H18       1.0  0.98118  0.25733  0.64549  1.0000
  H   H19       1.0  0.33824000000000004  0.10219  0.26361  1.0000
  H   H20       1.0  0.2571  0.19673  0.20055  1.0000
  H   H21       1.0  0.3344  0.12324000000000003  0.06325  1.0000
  H   H22       1.0  0.44206  0.95816  0.06656  1.0000
  H   H23       1.0  0.44878999999999997  0.9574700000000003  0.18194  1.0000
  H   H24       1.0  0.58678  0.10791  0.06948  1.0000
  H   H25       1.0  0.70045  0.16958000000000004  0.20868  1.0000
  H   H26       1.0  0.60637  0.08605  0.26875  1.0000
  H   H27       1.0  0.48265  0.24412  0.14537  1.0000
  H   H28       1.0  0.16191  0.60023  0.2368  1.0000
  H   H29       1.0  0.2436  0.69481  0.2999  1.0000
  H   H30       1.0  0.16524999999999998  0.62191  0.43699  1.0000
  H   H31       1.0  0.055439999999999996  0.45727  0.43414  1.0000
  H   H32       1.0  0.0484  0.45635  0.31885  1.0000
  H   H33       1.0  0.91324  0.6079500000000001  0.43099  1.0000
  H   H34       1.0  0.80002  0.66938  0.29179  1.0000
  H   H35       1.0  0.89199  0.5850900000000001  0.23176999999999998  1.0000
  H   H36       1.0  0.01893  0.74257  0.35453  1.0000
  C   C1        1.0  0.65683  0.8549500000000001  0.79658  1.0000
  C   C2        1.0  0.66887  0.922  0.87788  1.0000
  C   C3        1.0  0.5481  0.99487  0.87547  1.0000
  C   C4        1.0  0.4120000000000002  0.9386  0.87152  1.0000
  C   C5        1.0  0.3968  0.87076  0.79183  1.0000
  C   C6        1.0  0.51964  0.7999400000000001  0.79475  1.0000
  C   C7        1.0  0.28496999999999995  0.00116  0.87677  1.0000
  C   C8        1.0  0.80444  0.97507  0.88659  1.0000
  C   C9        1.0  0.49336  0.72929  0.7199499999999999  1.0000
  C   C10       1.0  0.84305  0.35661  0.7033  1.0000
  C   C11       1.0  0.83197  0.42353  0.6218  1.0000
  C   C12       1.0  0.95367  0.49575  0.62398  1.0000
  C   C13       1.0  0.08878  0.43893000000000004  0.62775  1.0000
  C   C14       1.0  0.10361  0.37148  0.70782  1.0000
  C   C15       1.0  0.97963  0.30128  0.7053799999999998  1.0000
  C   C16       1.0  0.21592999999999998  0.50132  0.62161  1.0000
  C   C17       1.0  0.69743  0.47728  0.61297  1.0000
  C   C18       1.0  0.0045800000000000025  0.22977000000000006  0.77975  1.0000
  C   C19       1.0  0.34323  0.1451  0.20348  1.0000
  C   C20       1.0  0.33108  0.078  0.12219  1.0000
  C   C21       1.0  0.4518599999999999  0.00513  0.1246  1.0000
  C   C22       1.0  0.58799  0.06137  0.1285  1.0000
  C   C23       1.0  0.6033  0.12922  0.20818  1.0000
  C   C24       1.0  0.48048  0.20007  0.20524999999999993  1.0000
  C   C25       1.0  0.71502  0.9987900000000001  0.12327  1.0000
  C   C26       1.0  0.19559  0.02486  0.1133  1.0000
  C   C27       1.0  0.50674  0.27073  0.28004  1.0000
  C   C28       1.0  0.15705  0.64329  0.29675  1.0000
  C   C29       1.0  0.16803  0.57639  0.37825  1.0000
  C   C30       1.0  0.04629  0.50421  0.37604  1.0000
  C   C31       1.0  0.91123  0.56108  0.37222  1.0000
  C   C32       1.0  0.89646  0.62851  0.29214  1.0000
  C   C33       1.0  0.020519999999999993  0.69865  0.29462  1.0000
  C   C34       1.0  0.78408  0.4987  0.37838  1.0000
  C   C35       1.0  0.30258  0.52266  0.38707  1.0000
  C   C36       1.0  0.9957599999999999  0.7701900000000002  0.22024  1.0000
  O   O1        1.0  0.16661999999999996  0.96134  0.8579599999999998  1.0000
  O   O2        1.0  0.29313  0.08938  0.9036099999999999  1.0000
  O   O3        1.0  0.8321299999999999  0.04253  0.83498  1.0000
  O   O4        1.0  0.89633  0.9524100000000001  0.95067  1.0000
  O   O5        1.0  0.42452  0.65223  0.73354  1.0000
  O   O6        1.0  0.5338  0.7469500000000001  0.64321  1.0000
  O   O7        1.0  0.33413  0.46145  0.63995  1.0000
  O   O8        1.0  0.20764999999999997  0.5894300000000001  0.59452  1.0000
  O   O9        1.0  0.67319  0.54732  0.66246  1.0000
  O   O10       1.0  0.60307  0.45233  0.55099  1.0000
  O   O11       1.0  0.06925999999999999  0.15173000000000003  0.76422  1.0000
  O   O12       1.0  0.96763  0.24711  0.85748  1.0000
  O   O13       1.0  0.83339  0.03865  0.14202  1.0000
  O   O14       1.0  0.70687  0.91053  0.09656  1.0000
  O   O15       1.0  0.16805  0.95713  0.16467  1.0000
  O   O16       1.0  0.10362999999999999  0.04771  0.04932999999999999  1.0000
  O   O17       1.0  0.5755599999999998  0.34778  0.26646  1.0000
  O   O18       1.0  0.46626  0.25307  0.35678  1.0000
  O   O19       1.0  0.66587  0.53855  0.36005  1.0000
  O   O20       1.0  0.79235  0.41058  0.40548  1.0000
  O   O21       1.0  0.32683  0.45265  0.33756  1.0000
  O   O22       1.0  0.39697  0.54765  0.44901  1.0000
  O   O23       1.0  0.93087  0.84818  0.23571  1.0000
  O   O24       1.0  0.033019999999999994  0.75292  0.14259  1.0000
