data_image0
_chemical_formula_structural       Na4Bi4H32C64O32
_chemical_formula_sum              "Na4 Bi4 H32 C64 O32"
_cell_length_a       7.32991
_cell_length_b       17.61862
_cell_length_c       20.76865
_cell_angle_alpha    90.0248
_cell_angle_beta     99.27929
_cell_angle_gamma    89.99953999999998

_symmetry_space_group_name_H-M    'P 1'
_symmetry_Int_Tables_number       1

loop_
  _symmetry_equiv_pos_as_xyz
  'x,y,z'

loop_
  _atom_site_type_symbol
  _atom_site_label
  _atom_site_symmetry_multiplicity
  _atom_site_fract_x
  _atom_site_fract_y
  _atom_site_fract_z
  _atom_site_occupancy
  Na  Na1       1.0  0.23616999999999996  0.76526  0.38300999999999996  1.0000
  Na  Na2       1.0  0.26382  0.26512  0.12339  1.0000
  Na  Na3       1.0  0.76383  0.23472999999999997  0.617  1.0000
  Na  Na4       1.0  0.7361799999999998  0.73488  0.8766199999999998  1.0000
  Bi  Bi1       1.0  0.68535  0.7692  0.36581  1.0000
  Bi  Bi2       1.0  0.81433  0.26919  0.13446  1.0000
  Bi  Bi3       1.0  0.31464999999999993  0.23080000000000003  0.6341999999999999  1.0000
  Bi  Bi4       1.0  0.18566999999999995  0.7308000000000001  0.86554  1.0000
  H   H1        1.0  0.12728000000000003  0.90418  0.30200999999999995  1.0000
  H   H2        1.0  0.58536  0.04776  0.27545  1.0000
  H   H3        1.0  0.36484  0.14293  0.21888  1.0000
  H   H4        1.0  0.9055199999999999  0.99999  0.24631999999999996  1.0000
  H   H5        1.0  0.15437  0.72617  0.63301  1.0000
  H   H6        1.0  0.7228299999999999  0.7140000000000002  0.7261299999999999  1.0000
  H   H7        1.0  0.8244  0.71211  0.61704  1.0000
  H   H8        1.0  0.25651  0.73014  0.52448  1.0000
  H   H9        1.0  0.37291  0.4048200000000001  0.19792999999999997  1.0000
  H   H10       1.0  0.9145  0.5481900000000001  0.22448999999999994  1.0000
  H   H11       1.0  0.13586  0.6435100000000001  0.28149  1.0000
  H   H12       1.0  0.5944  0.50023  0.2539  1.0000
  H   H13       1.0  0.3451600000000001  0.22621  0.8664299999999998  1.0000
  H   H14       1.0  0.77639  0.21410000000000007  0.77389  1.0000
  H   H15       1.0  0.67558  0.21221000000000004  0.8832499999999999  1.0000
  H   H16       1.0  0.24385999999999994  0.23039000000000004  0.9751899999999998  1.0000
  H   H17       1.0  0.87272  0.09581  0.69799  1.0000
  H   H18       1.0  0.41463  0.9522400000000001  0.72455  1.0000
  H   H19       1.0  0.63516  0.85707  0.78112  1.0000
  H   H20       1.0  0.09448  0.0  0.75368  1.0000
  H   H21       1.0  0.8456300000000001  0.27383000000000013  0.36699  1.0000
  H   H22       1.0  0.27717  0.28600000000000003  0.27388  1.0000
  H   H23       1.0  0.17559999999999998  0.28788  0.38295999999999997  1.0000
  H   H24       1.0  0.74349  0.26986  0.47553  1.0000
  H   H25       1.0  0.6270899999999999  0.59518  0.8020799999999999  1.0000
  H   H26       1.0  0.08549999999999995  0.4518  0.77551  1.0000
  H   H27       1.0  0.86414  0.35649000000000003  0.71852  1.0000
  H   H28       1.0  0.40559999999999996  0.49977  0.7461  1.0000
  H   H29       1.0  0.65483  0.77378  0.13357  1.0000
  H   H30       1.0  0.22360999999999998  0.7858900000000001  0.22610999999999998  1.0000
  H   H31       1.0  0.32442  0.78779  0.11674999999999998  1.0000
  H   H32       1.0  0.75614  0.76961  0.02482  1.0000
  C   C1        1.0  0.50176  0.91188  0.32408999999999993  1.0000
  C   C2        1.0  0.3697599999999999  0.97032  0.2923899999999999  1.0000
  C   C3        1.0  0.17811000000000005  0.95679  0.28414  1.0000
  C   C4        1.0  0.43683  0.03782  0.26897  1.0000
  C   C5        1.0  0.3129  0.09059  0.23692999999999997  1.0000
  C   C6        1.0  0.05405999999999996  0.00982  0.25265999999999994  1.0000
  C   C7        1.0  0.12105  0.07678  0.2283  1.0000
  C   C8        1.0  0.98838  0.1327  0.19314999999999996  1.0000
  C   C9        1.0  0.36730000000000007  0.7224100000000002  0.75037  1.0000
  C   C10       1.0  0.43173  0.7204600000000002  0.6859  1.0000
  C   C11       1.0  0.30041  0.72393  0.62878  1.0000
  C   C12       1.0  0.62122  0.71667  0.68173  1.0000
  C   C13       1.0  0.6783  0.71597  0.6209099999999997  1.0000
  C   C14       1.0  0.35852  0.72611  0.56847  1.0000
  C   C15       1.0  0.5476  0.72213  0.56391  1.0000
  C   C16       1.0  0.60859  0.72923  0.49881  1.0000
  C   C17       1.0  0.99724  0.41246  0.17647  1.0000
  C   C18       1.0  0.13017  0.47087  0.20777  1.0000
  C   C19       1.0  0.32179  0.45728  0.21596999999999997  1.0000
  C   C20       1.0  0.06307999999999997  0.5383900000000001  0.23114999999999997  1.0000
  C   C21       1.0  0.18696  0.59105  0.26335  1.0000
  C   C22       1.0  0.4459100000000001  0.51018  0.24763  1.0000
  C   C23       1.0  0.37855  0.5769800000000002  0.27221  1.0000
  C   C24       1.0  0.51017  0.63296  0.3076699999999999  1.0000
  C   C25       1.0  0.12826999999999994  0.22252000000000005  0.7486399999999999  1.0000
  C   C26       1.0  0.06685999999999998  0.2206  0.81368  1.0000
  C   C27       1.0  0.19909000000000004  0.22407  0.87068  1.0000
  C   C28       1.0  0.87783  0.21678000000000003  0.81831  1.0000
  C   C29       1.0  0.82155  0.21614000000000005  0.8792599999999999  1.0000
  C   C30       1.0  0.14178999999999997  0.22632  0.9311799999999999  1.0000
  C   C31       1.0  0.9528999999999999  0.22245  0.9361299999999999  1.0000
  C   C32       1.0  0.89362  0.2295  0.00161  1.0000
  C   C33       1.0  0.49823999999999996  0.08812  0.6759099999999999  1.0000
  C   C34       1.0  0.63024  0.02967  0.70762  1.0000
  C   C35       1.0  0.82188  0.04321000000000001  0.7158599999999999  1.0000
  C   C36       1.0  0.56317  0.96218  0.7310299999999998  1.0000
  C   C37       1.0  0.6871  0.9094  0.76307  1.0000
  C   C38       1.0  0.94594  0.9901800000000001  0.7473399999999999  1.0000
  C   C39       1.0  0.87895  0.92321  0.7717  1.0000
  C   C40       1.0  0.011610000000000049  0.8673  0.80685  1.0000
  C   C41       1.0  0.63269  0.27759  0.24963999999999995  1.0000
  C   C42       1.0  0.5682700000000002  0.27953  0.3141  1.0000
  C   C43       1.0  0.69959  0.27606  0.37122  1.0000
  C   C44       1.0  0.3787800000000001  0.28333  0.31827  1.0000
  C   C45       1.0  0.32169  0.28403  0.37909  1.0000
  C   C46       1.0  0.64148  0.27389  0.43154  1.0000
  C   C47       1.0  0.45238999999999996  0.27787000000000006  0.43608999999999987  1.0000
  C   C48       1.0  0.39141  0.27077  0.5012  1.0000
  C   C49       1.0  0.0027599999999999964  0.58753  0.8235399999999999  1.0000
  C   C50       1.0  0.8698300000000001  0.5291300000000001  0.79223  1.0000
  C   C51       1.0  0.6782099999999999  0.54272  0.7840299999999998  1.0000
  C   C52       1.0  0.93692  0.46160000000000007  0.76886  1.0000
  C   C53       1.0  0.8130400000000001  0.40895  0.73665  1.0000
  C   C54       1.0  0.55408  0.48982  0.75238  1.0000
  C   C55       1.0  0.6214499999999998  0.42301  0.7277899999999999  1.0000
  C   C56       1.0  0.48983  0.3670400000000001  0.6923399999999997  1.0000
  C   C57       1.0  0.87173  0.7774800000000001  0.2513599999999999  1.0000
  C   C58       1.0  0.93313  0.77939  0.18632  1.0000
  C   C59       1.0  0.80091  0.7759300000000001  0.12933  1.0000
  C   C60       1.0  0.12217000000000003  0.78321  0.18168999999999996  1.0000
  C   C61       1.0  0.17843999999999996  0.78385  0.12074999999999997  1.0000
  C   C62       1.0  0.8582000000000001  0.7736700000000001  0.06881999999999999  1.0000
  C   C63       1.0  0.0471  0.77755  0.06387  1.0000
  C   C64       1.0  0.10637999999999999  0.7705000000000002  0.99839  1.0000
  O   O1        1.0  0.42869  0.84593  0.3346799999999999  1.0000
  O   O2        1.0  0.67243  0.92317  0.33804  1.0000
  O   O3        1.0  0.81645  0.12511  0.18517  1.0000
  O   O4        1.0  0.06307  0.19288  0.17056  1.0000
  O   O5        1.0  0.19264  0.7198  0.75125  1.0000
  O   O6        1.0  0.4836599999999999  0.72727  0.8031899999999998  1.0000
  O   O7        1.0  0.4979  0.7666100000000002  0.45456  1.0000
  O   O8        1.0  0.76046  0.7031100000000002  0.48791  1.0000
  O   O9        1.0  0.06851000000000002  0.34591000000000005  0.16652  1.0000
  O   O10       1.0  0.82712  0.42421  0.16187  1.0000
  O   O11       1.0  0.68214  0.62534  0.31546  1.0000
  O   O12       1.0  0.43542999999999993  0.69313  0.33033999999999997  1.0000
  O   O13       1.0  0.30302  0.21984  0.7476  1.0000
  O   O14       1.0  0.010589999999999926  0.22729999999999997  0.6960199999999999  1.0000
  O   O15       1.0  0.006229999999999993  0.26591  0.04606999999999999  1.0000
  O   O16       1.0  0.74146  0.20353  0.012429999999999998  1.0000
  O   O17       1.0  0.57131  0.15406  0.6653199999999999  1.0000
  O   O18       1.0  0.32756  0.07682000000000001  0.66196  1.0000
  O   O19       1.0  0.18354999999999996  0.87489  0.8148399999999999  1.0000
  O   O20       1.0  0.93693  0.80711  0.8294399999999998  1.0000
  O   O21       1.0  0.80736  0.28019  0.24875999999999995  1.0000
  O   O22       1.0  0.51634  0.27272  0.19680999999999996  1.0000
  O   O23       1.0  0.5020999999999999  0.23339000000000001  0.5454499999999999  1.0000
  O   O24       1.0  0.23954  0.29689  0.51209  1.0000
  O   O25       1.0  0.9314900000000003  0.65408  0.8334899999999997  1.0000
  O   O26       1.0  0.17288  0.57579  0.83813  1.0000
  O   O27       1.0  0.31786  0.37466000000000005  0.68454  1.0000
  O   O28       1.0  0.56457  0.30687  0.66966  1.0000
  O   O29       1.0  0.69698  0.78016  0.2524  1.0000
  O   O30       1.0  0.9894  0.77269  0.3039799999999999  1.0000
  O   O31       1.0  0.99377  0.7340800000000002  0.95393  1.0000
  O   O32       1.0  0.25853999999999994  0.7964700000000001  0.9875699999999998  1.0000
