data_image0
_chemical_formula_structural       In10H36C60N18O26
_chemical_formula_sum              "In10 H36 C60 N18 O26"
_cell_length_a       14.3926
_cell_length_b       14.39267
_cell_length_c       18.52561
_cell_angle_alpha    90.00021999999998
_cell_angle_beta     89.99955
_cell_angle_gamma    119.82006000000001

_space_group_name_H-M_alt    "P 1"
_space_group_IT_number       1

loop_
  _space_group_symop_operation_xyz
  'x, y, z'

loop_
  _atom_site_type_symbol
  _atom_site_label
  _atom_site_symmetry_multiplicity
  _atom_site_fract_x
  _atom_site_fract_y
  _atom_site_fract_z
  _atom_site_occupancy
  In  In1       1.0  0.74938  0.25061  0.74947  1.0000
  In  In2       1.0  0.50106  0.25063  0.7494600000000002  1.0000
  In  In3       1.0  0.74937  0.49894  0.7494600000000002  1.0000
  In  In4       1.0  0.25062  0.7493899999999998  0.25053  1.0000
  In  In5       1.0  0.49894  0.74937  0.25054  1.0000
  In  In6       1.0  0.25064  0.50106  0.25054  1.0000
  In  In7       1.0  0.00012999999999999942  0.99986  0.87412  1.0000
  In  In8       1.0  0.99986  0.00013  0.37428000000000006  1.0000
  In  In9       1.0  0.99986  0.00013  0.12588  1.0000
  In  In10      1.0  0.00012999999999999942  0.99986  0.62572  1.0000
  H   H1        1.0  0.67358  0.04949  0.559  1.0000
  H   H2        1.0  0.37636  0.32673999999999986  0.55915  1.0000
  H   H3        1.0  0.95032  0.62412  0.55923  1.0000
  H   H4        1.0  0.32649999999999996  0.9506199999999998  0.05895000000000001  1.0000
  H   H5        1.0  0.6236700000000001  0.67318  0.059100000000000014  1.0000
  H   H6        1.0  0.04957999999999994  0.3758599999999999  0.05918  1.0000
  H   H7        1.0  0.62412  0.9503199999999998  0.4407700000000001  1.0000
  H   H8        1.0  0.04949000000000002  0.67358  0.441  1.0000
  H   H9        1.0  0.3267400000000001  0.3763599999999999  0.4408500000000001  1.0000
  H   H10       1.0  0.37586000000000014  0.04957  0.94082  1.0000
  H   H11       1.0  0.9506200000000001  0.32649  0.9410500000000003  1.0000
  H   H12       1.0  0.67318  0.62367  0.9409  1.0000
  H   H13       1.0  0.32641999999999993  0.9505099999999997  0.441  1.0000
  H   H14       1.0  0.62364  0.67326  0.4408500000000001  1.0000
  H   H15       1.0  0.04968000000000003  0.37588  0.4407700000000001  1.0000
  H   H16       1.0  0.6735000000000002  0.04938  0.9410500000000003  1.0000
  H   H17       1.0  0.37633  0.32682  0.9409  1.0000
  H   H18       1.0  0.95042  0.62414  0.94082  1.0000
  H   H19       1.0  0.37588  0.04967999999999999  0.55923  1.0000
  H   H20       1.0  0.95051  0.32641999999999993  0.559  1.0000
  H   H21       1.0  0.67326  0.62364  0.55915  1.0000
  H   H22       1.0  0.62415  0.95042  0.05918  1.0000
  H   H23       1.0  0.04937999999999999  0.6735  0.05895000000000001  1.0000
  H   H24       1.0  0.32682  0.37633  0.059100000000000014  1.0000
  H   H25       1.0  0.85797  0.14203  0.8630900000000002  1.0000
  H   H26       1.0  0.28397  0.14199  0.8631  1.0000
  H   H27       1.0  0.85801  0.7160299999999999  0.8631  1.0000
  H   H28       1.0  0.14200999999999986  0.8579899999999998  0.36323  1.0000
  H   H29       1.0  0.71607  0.85803  0.36324  1.0000
  H   H30       1.0  0.14197000000000007  0.28393  0.36324  1.0000
  H   H31       1.0  0.71603  0.85801  0.13690000000000002  1.0000
  H   H32       1.0  0.14203000000000007  0.85797  0.13691  1.0000
  H   H33       1.0  0.14199  0.28397  0.13690000000000002  1.0000
  H   H34       1.0  0.28393  0.14197  0.6367600000000002  1.0000
  H   H35       1.0  0.8579900000000001  0.14201  0.63677  1.0000
  H   H36       1.0  0.85803  0.71606  0.6367600000000002  1.0000
  C   C1        1.0  0.59796  0.02737  0.5325900000000001  1.0000
  C   C2        1.0  0.42967  0.40221  0.5326900000000002  1.0000
  C   C3        1.0  0.9724999999999999  0.5705799999999999  0.53275  1.0000
  C   C4        1.0  0.40216999999999997  0.9725999999999999  0.03264  1.0000
  C   C5        1.0  0.57017  0.59766  0.03274  1.0000
  C   C6        1.0  0.02754  0.42957999999999996  0.0328  1.0000
  C   C7        1.0  0.57058  0.9724899999999999  0.46725000000000005  1.0000
  C   C8        1.0  0.027370000000000054  0.59796  0.46741  1.0000
  C   C9        1.0  0.40220999999999996  0.4296699999999999  0.46731  1.0000
  C   C10       1.0  0.42958  0.027529999999999992  0.9672000000000001  1.0000
  C   C11       1.0  0.9725899999999998  0.40217  0.96736  1.0000
  C   C12       1.0  0.59765  0.57016  0.96726  1.0000
  C   C13       1.0  0.40203999999999995  0.97263  0.46741  1.0000
  C   C14       1.0  0.5703300000000001  0.59779  0.46731  1.0000
  C   C15       1.0  0.027499999999999993  0.42942  0.46725000000000005  1.0000
  C   C16       1.0  0.5978300000000002  0.027399999999999997  0.96736  1.0000
  C   C17       1.0  0.42983  0.4023399999999999  0.96726  1.0000
  C   C18       1.0  0.97246  0.57041  0.9672000000000001  1.0000
  C   C19       1.0  0.42942  0.0275  0.53275  1.0000
  C   C20       1.0  0.97263  0.4020399999999999  0.5325900000000001  1.0000
  C   C21       1.0  0.59779  0.57033  0.5326900000000002  1.0000
  C   C22       1.0  0.5704199999999999  0.9724599999999999  0.0328  1.0000
  C   C23       1.0  0.02740999999999997  0.5978299999999999  0.03264  1.0000
  C   C24       1.0  0.40235  0.42983  0.03274  1.0000
  C   C25       1.0  0.8715500000000002  0.12844  0.80757  1.0000
  C   C26       1.0  0.25695  0.12850999999999999  0.80755  1.0000
  C   C27       1.0  0.87149  0.74305  0.80755  1.0000
  C   C28       1.0  0.12841000000000002  0.87159  0.30773  1.0000
  C   C29       1.0  0.74314  0.87153  0.30771  1.0000
  C   C30       1.0  0.12847  0.25687  0.30771  1.0000
  C   C31       1.0  0.7430599999999999  0.8714899999999998  0.19245  1.0000
  C   C32       1.0  0.12844999999999995  0.8715499999999999  0.19243000000000002  1.0000
  C   C33       1.0  0.12851  0.25695  0.19245  1.0000
  C   C34       1.0  0.25687  0.12847  0.69229  1.0000
  C   C35       1.0  0.87159  0.1284  0.6922700000000003  1.0000
  C   C36       1.0  0.87153  0.74313  0.69229  1.0000
  C   C37       1.0  0.55805  0.11614  0.63549  1.0000
  C   C38       1.0  0.52759  0.055249999999999994  0.5658  1.0000
  C   C39       1.0  0.5580600000000001  0.44194  0.63554  1.0000
  C   C40       1.0  0.5276300000000003  0.47237  0.56582  1.0000
  C   C41       1.0  0.8838500000000002  0.44195  0.63549  1.0000
  C   C42       1.0  0.94475  0.4723999999999999  0.5658  1.0000
  C   C43       1.0  0.4420300000000001  0.88401  0.13632  1.0000
  C   C44       1.0  0.47228999999999993  0.9444999999999998  0.06611  1.0000
  C   C45       1.0  0.44202  0.55798  0.13639  1.0000
  C   C46       1.0  0.47224  0.52776  0.06614  1.0000
  C   C47       1.0  0.116  0.55798  0.13632  1.0000
  C   C48       1.0  0.055500000000000015  0.52772  0.06611  1.0000
  C   C49       1.0  0.44195  0.88385  0.36451  1.0000
  C   C50       1.0  0.47240999999999994  0.9447499999999999  0.4342  1.0000
  C   C51       1.0  0.11615000000000004  0.55805  0.36451  1.0000
  C   C52       1.0  0.05525  0.52759  0.4342  1.0000
  C   C53       1.0  0.44194  0.55806  0.36447  1.0000
  C   C54       1.0  0.47237000000000007  0.52763  0.43418000000000007  1.0000
  C   C55       1.0  0.55797  0.11598999999999998  0.86368  1.0000
  C   C56       1.0  0.52771  0.05548999999999999  0.93389  1.0000
  C   C57       1.0  0.884  0.44202  0.86368  1.0000
  C   C58       1.0  0.9445000000000002  0.4722799999999999  0.93389  1.0000
  C   C59       1.0  0.55798  0.44202  0.8636100000000002  1.0000
  C   C60       1.0  0.52776  0.47223999999999994  0.93387  1.0000
  N   N1        1.0  0.8379500000000001  0.16204  0.74989  1.0000
  N   N2        1.0  0.32401  0.16211999999999996  0.74989  1.0000
  N   N3        1.0  0.83788  0.6759799999999999  0.74989  1.0000
  N   N4        1.0  0.16204999999999994  0.83795  0.25012  1.0000
  N   N5        1.0  0.67599  0.8378799999999997  0.2501100000000001  1.0000
  N   N6        1.0  0.16213  0.3240099999999999  0.2501100000000001  1.0000
  N   N7        1.0  0.92284  0.07715999999999999  0.78716  1.0000
  N   N8        1.0  0.15464  0.07726  0.7871700000000003  1.0000
  N   N9        1.0  0.9227399999999999  0.8453499999999998  0.7871700000000003  1.0000
  N   N10       1.0  0.07713999999999996  0.9228599999999999  0.28728  1.0000
  N   N11       1.0  0.8454100000000001  0.92276  0.28729  1.0000
  N   N12       1.0  0.07723999999999999  0.15458999999999998  0.28729  1.0000
  N   N13       1.0  0.84536  0.92274  0.21284000000000006  1.0000
  N   N14       1.0  0.07716999999999997  0.92284  0.21284000000000006  1.0000
  N   N15       1.0  0.07727000000000002  0.15465  0.21284000000000006  1.0000
  N   N16       1.0  0.15459000000000006  0.07723  0.71272  1.0000
  N   N17       1.0  0.92286  0.07713  0.71272  1.0000
  N   N18       1.0  0.9227599999999999  0.8454099999999999  0.71272  1.0000
  O   O1        1.0  0.6489600000000001  0.13922  0.66197  1.0000
  O   O2        1.0  0.49034999999999995  0.35117999999999994  0.66204  1.0000
  O   O3        1.0  0.8607199999999999  0.5098399999999998  0.66203  1.0000
  O   O4        1.0  0.3513299999999999  0.8611499999999997  0.16314  1.0000
  O   O5        1.0  0.5097300000000001  0.6485  0.16324000000000005  1.0000
  O   O6        1.0  0.13889999999999997  0.49008999999999997  0.16321  1.0000
  O   O7        1.0  0.50984  0.8607199999999998  0.33797  1.0000
  O   O8        1.0  0.13922  0.64896  0.33803  1.0000
  O   O9        1.0  0.35119  0.49035  0.3379600000000001  1.0000
  O   O10       1.0  0.49009  0.1389  0.8367900000000003  1.0000
  O   O11       1.0  0.8611500000000001  0.3513299999999999  0.83686  1.0000
  O   O12       1.0  0.6485  0.50972  0.83676  1.0000
  O   O13       1.0  0.35103999999999996  0.8607799999999999  0.33803  1.0000
  O   O14       1.0  0.5096499999999999  0.6488099999999999  0.3379600000000001  1.0000
  O   O15       1.0  0.13928  0.49016  0.33797  1.0000
  O   O16       1.0  0.64867  0.13884  0.83686  1.0000
  O   O17       1.0  0.49027  0.35149  0.8367700000000002  1.0000
  O   O18       1.0  0.8611  0.50991  0.8367900000000003  1.0000
  O   O19       1.0  0.49016  0.13928  0.66203  1.0000
  O   O20       1.0  0.86078  0.35104  0.66197  1.0000
  O   O21       1.0  0.64881  0.50964  0.66204  1.0000
  O   O22       1.0  0.50991  0.8610999999999998  0.16321  1.0000
  O   O23       1.0  0.13884999999999992  0.6486699999999999  0.16314  1.0000
  O   O24       1.0  0.3515  0.49027  0.16324000000000005  1.0000
  O   O25       1.0  0.66656  0.3334399999999999  0.7493100000000001  1.0000
  O   O26       1.0  0.33343999999999996  0.6665599999999999  0.25069  1.0000
