data_image0
_chemical_formula_structural       Cd4H48C66O24
_chemical_formula_sum              "Cd4 H48 C66 O24"
_cell_length_a       13.61875
_cell_length_b       16.37084
_cell_length_c       17.94456
_cell_angle_alpha    111.74409000000001
_cell_angle_beta     107.58384000000001
_cell_angle_gamma    98.61629

_space_group_name_H-M_alt    "P 1"
_space_group_IT_number       1

loop_
  _space_group_symop_operation_xyz
  'x, y, z'

loop_
  _atom_site_type_symbol
  _atom_site_label
  _atom_site_symmetry_multiplicity
  _atom_site_fract_x
  _atom_site_fract_y
  _atom_site_fract_z
  _atom_site_occupancy
  Cd  Cd1       1.0  0.061130000000000004  0.60435  0.58977  1.0000
  Cd  Cd2       1.0  0.17548999999999992  0.54514  0.3790999999999999  1.0000
  Cd  Cd3       1.0  0.9388699999999999  0.39566  0.41024  1.0000
  Cd  Cd4       1.0  0.82451  0.45486000000000004  0.62091  1.0000
  H   H1        1.0  0.47152999999999995  0.35543  0.63937  1.0000
  H   H2        1.0  0.4649499999999999  0.50588  0.10178  1.0000
  H   H3        1.0  0.53634  0.38496  0.94115  1.0000
  H   H4        1.0  0.56926  0.3204  0.85202  1.0000
  H   H5        1.0  0.11037999999999999  0.98895  0.68673  1.0000
  H   H6        1.0  0.34358  0.36671  0.84116  1.0000
  H   H7        1.0  0.2642399999999998  0.2537699999999999  0.7581699999999998  1.0000
  H   H8        1.0  0.81694  0.28316  0.19043  1.0000
  H   H9        1.0  0.19906  0.34629  0.71569  1.0000
  H   H10       1.0  0.65801  0.20395  0.04799  1.0000
  H   H11       1.0  0.43164  0.016090000000000024  0.68982  1.0000
  H   H12       1.0  0.05816000000000001  0.81971  0.59003  1.0000
  H   H13       1.0  0.7031999999999998  0.4536  0.01653  1.0000
  H   H14       1.0  0.8592999999999997  0.53174  0.1591  1.0000
  H   H15       1.0  0.4001599999999998  0.2139199999999999  0.9474899999999998  1.0000
  H   H16       1.0  0.27665999999999985  0.22172999999999995  0.8823899999999998  1.0000
  H   H17       1.0  0.38593999999999995  0.42103  0.53984  1.0000
  H   H18       1.0  0.24253999999999998  0.23807000000000006  0.00235  1.0000
  H   H19       1.0  0.37754  0.84916  0.59148  1.0000
  H   H20       1.0  0.18108999999999995  0.29929  0.12459  1.0000
  H   H21       1.0  0.4572999999999998  0.13079999999999992  0.8237099999999998  1.0000
  H   H22       1.0  0.4338  0.16329  0.73647  1.0000
  H   H23       1.0  0.39939999999999987  0.5664  0.22204999999999994  1.0000
  H   H24       1.0  0.11484999999999998  0.40801  0.61545  1.0000
  H   H25       1.0  0.52847  0.64458  0.36063  1.0000
  H   H26       1.0  0.53505  0.49412  0.89823  1.0000
  H   H27       1.0  0.4636599999999999  0.61505  0.05886  1.0000
  H   H28       1.0  0.43074  0.6796  0.14799  1.0000
  H   H29       1.0  0.8896199999999997  0.01105000000000002  0.31327  1.0000
  H   H30       1.0  0.6564199999999998  0.6332900000000002  0.15885  1.0000
  H   H31       1.0  0.7357599999999997  0.74624  0.24184  1.0000
  H   H32       1.0  0.18305999999999997  0.71684  0.80957  1.0000
  H   H33       1.0  0.8009399999999999  0.6537199999999999  0.28431  1.0000
  H   H34       1.0  0.3419899999999999  0.79606  0.95201  1.0000
  H   H35       1.0  0.5683599999999999  0.98392  0.31018  1.0000
  H   H36       1.0  0.9418399999999999  0.18029  0.40997  1.0000
  H   H37       1.0  0.29679999999999995  0.5464  0.98347  1.0000
  H   H38       1.0  0.1406999999999999  0.46825999999999995  0.8409  1.0000
  H   H39       1.0  0.5998399999999998  0.78608  0.05251999999999998  1.0000
  H   H40       1.0  0.72334  0.77827  0.11762  1.0000
  H   H41       1.0  0.6140499999999999  0.57898  0.46016  1.0000
  H   H42       1.0  0.7574599999999999  0.76193  0.99766  1.0000
  H   H43       1.0  0.62246  0.15084  0.40853  1.0000
  H   H44       1.0  0.8189099999999997  0.70072  0.87542  1.0000
  H   H45       1.0  0.5426999999999997  0.8692  0.1763  1.0000
  H   H46       1.0  0.5661999999999999  0.83671  0.26353  1.0000
  H   H47       1.0  0.6006  0.43361  0.77795  1.0000
  H   H48       1.0  0.88515  0.592  0.38455  1.0000
  C   C1        1.0  0.39384  0.36776  0.63386  1.0000
  C   C2        1.0  0.4008799999999999  0.46208  0.10632  1.0000
  C   C3        1.0  0.53148  0.3156699999999999  0.8969299999999998  1.0000
  C   C4        1.0  0.16816  0.95706  0.66632  1.0000
  C   C5        1.0  0.34673999999999994  0.3006299999999999  0.7964699999999998  1.0000
  C   C6        1.0  0.7899099999999999  0.32026  0.15280999999999995  1.0000
  C   C7        1.0  0.24106999999999998  0.36241  0.67797  1.0000
  C   C8        1.0  0.7022999999999998  0.27583  0.07371  1.0000
  C   C9        1.0  0.3500199999999999  0.97368  0.66845  1.0000
  C   C10       1.0  0.13972000000000007  0.86347  0.61281  1.0000
  C   C11       1.0  0.72561  0.41647  0.055059999999999984  1.0000
  C   C12       1.0  0.81361  0.4603999999999999  0.13502  1.0000
  C   C13       1.0  0.3644199999999998  0.2537299999999998  0.9149099999999998  1.0000
  C   C14       1.0  0.34636  0.40447  0.57891  1.0000
  C   C15       1.0  0.27675  0.30996  0.04979  1.0000
  C   C16       1.0  0.4124599999999999  0.25709  0.8481  1.0000
  C   C17       1.0  0.27394999999999986  0.01239999999999985  0.6948799999999998  1.0000
  C   C18       1.0  0.28501  0.43672000000000005  0.17995  1.0000
  C   C19       1.0  0.31977  0.8799300000000001  0.61328  1.0000
  C   C20       1.0  0.34178  0.34801  0.6847  1.0000
  C   C21       1.0  0.24593999999999994  0.47312  0.25149  1.0000
  C   C22       1.0  0.6702  0.32346  0.02409  1.0000
  C   C23       1.0  0.24247  0.34410000000000024  0.11834  1.0000
  C   C24       1.0  0.4060399999999999  0.16008000000000006  0.78712  1.0000
  C   C25       1.0  0.8472  0.4131  0.18465  1.0000
  C   C26       1.0  0.19825999999999988  0.4635  0.5168  1.0000
  C   C27       1.0  0.24638999999999986  0.42138  0.57305  1.0000
  C   C28       1.0  0.36542999999999987  0.49503  0.17346  1.0000
  C   C29       1.0  0.19377  0.39838000000000007  0.62188  1.0000
  C   C30       1.0  0.35484  0.37005  0.04323999999999999  1.0000
  C   C31       1.0  0.1827399999999999  0.72411  0.5257299999999998  1.0000
  C   C32       1.0  0.21495  0.82368  0.58545  1.0000
  C   C33       1.0  0.94617  0.45693  0.2654  1.0000
  C   C34       1.0  0.6061599999999998  0.63224  0.36615  1.0000
  C   C35       1.0  0.59912  0.53792  0.89368  1.0000
  C   C36       1.0  0.4685199999999999  0.68433  0.10308  1.0000
  C   C37       1.0  0.8318399999999998  0.042949999999999953  0.3336899999999999  1.0000
  C   C38       1.0  0.6532599999999997  0.69938  0.20354  1.0000
  C   C39       1.0  0.21008999999999997  0.67975  0.84719  1.0000
  C   C40       1.0  0.7589299999999998  0.6376  0.32203  1.0000
  C   C41       1.0  0.2976999999999999  0.7241699999999999  0.9262999999999999  1.0000
  C   C42       1.0  0.6499799999999998  0.026319999999999982  0.33155  1.0000
  C   C43       1.0  0.8602799999999998  0.13654  0.38719  1.0000
  C   C44       1.0  0.2743899999999999  0.58354  0.94494  1.0000
  C   C45       1.0  0.18637999999999982  0.5395999999999999  0.8649899999999998  1.0000
  C   C46       1.0  0.6355799999999998  0.74627  0.08508999999999997  1.0000
  C   C47       1.0  0.6536399999999998  0.59553  0.42109  1.0000
  C   C48       1.0  0.72325  0.69004  0.9502099999999999  1.0000
  C   C49       1.0  0.58754  0.74291  0.1519  1.0000
  C   C50       1.0  0.72605  0.9876  0.30513  1.0000
  C   C51       1.0  0.7149899999999996  0.5632899999999998  0.8200599999999998  1.0000
  C   C52       1.0  0.6802299999999998  0.12008  0.3867199999999999  1.0000
  C   C53       1.0  0.6582199999999998  0.65199  0.3153  1.0000
  C   C54       1.0  0.75406  0.52688  0.74852  1.0000
  C   C55       1.0  0.32979999999999987  0.67654  0.97592  1.0000
  C   C56       1.0  0.7575299999999999  0.6559  0.88167  1.0000
  C   C57       1.0  0.59395  0.83993  0.21288  1.0000
  C   C58       1.0  0.15279999999999994  0.58691  0.81535  1.0000
  C   C59       1.0  0.8017399999999996  0.5365  0.4832  1.0000
  C   C60       1.0  0.75361  0.57863  0.42694999999999994  1.0000
  C   C61       1.0  0.6345699999999997  0.50497  0.82655  1.0000
  C   C62       1.0  0.8062299999999999  0.60162  0.37812  1.0000
  C   C63       1.0  0.64516  0.62996  0.95676  1.0000
  C   C64       1.0  0.8172499999999998  0.27589999999999987  0.4742699999999999  1.0000
  C   C65       1.0  0.7850499999999998  0.17632  0.41455  1.0000
  C   C66       1.0  0.05382999999999991  0.54307  0.7346099999999998  1.0000
  O   O1        1.0  0.29534999999999995  0.10366999999999996  0.7484  1.0000
  O   O2        1.0  0.004649999999999991  0.53682  0.28961  1.0000
  O   O3        1.0  0.58541  0.2713000000000001  0.94585  1.0000
  O   O4        1.0  0.24451000000000003  0.48277  0.47203  1.0000
  O   O5        1.0  0.10568000000000001  0.4792200000000001  0.51641  1.0000
  O   O6        1.0  0.39151  0.34782  0.97697  1.0000
  O   O7        1.0  0.9751699999999998  0.40801  0.30738  1.0000
  O   O8        1.0  0.3954299999999999  0.31457  0.73951  1.0000
  O   O9        1.0  0.17268000000000003  0.41884000000000005  0.25578  1.0000
  O   O10       1.0  0.09221  0.67121  0.51402  1.0000
  O   O11       1.0  0.24113  0.69439  0.48539  1.0000
  O   O12       1.0  0.2871  0.55886  0.30626  1.0000
  O   O13       1.0  0.70465  0.89633  0.25161  1.0000
  O   O14       1.0  0.99535  0.46318000000000004  0.71039  1.0000
  O   O15       1.0  0.41458  0.72871  0.05415  1.0000
  O   O16       1.0  0.75548  0.51724  0.52797  1.0000
  O   O17       1.0  0.8943199999999998  0.52078  0.4835999999999999  1.0000
  O   O18       1.0  0.6084899999999998  0.65219  0.02303  1.0000
  O   O19       1.0  0.02483000000000002  0.592  0.69262  1.0000
  O   O20       1.0  0.6045699999999999  0.68543  0.2605  1.0000
  O   O21       1.0  0.8273199999999998  0.5811600000000002  0.74422  1.0000
  O   O22       1.0  0.90779  0.32878999999999997  0.48598999999999987  1.0000
  O   O23       1.0  0.7588599999999998  0.3056100000000001  0.51462  1.0000
  O   O24       1.0  0.7129  0.44114000000000003  0.69375  1.0000
