data_image0
_chemical_formula_structural       Cu6H16W4C48N40
_chemical_formula_sum              "Cu6 H16 W4 C48 N40"
_cell_length_a       11.53454
_cell_length_b       14.60912
_cell_length_c       15.218689999999999
_cell_angle_alpha    118.61509999999998
_cell_angle_beta     106.00161
_cell_angle_gamma    90.11162000000002

_symmetry_space_group_name_H-M    'P 1'
_symmetry_Int_Tables_number       1

loop_
  _symmetry_equiv_pos_as_xyz
  'x,y,z'

loop_
  _atom_site_type_symbol
  _atom_site_label
  _atom_site_symmetry_multiplicity
  _atom_site_fract_x
  _atom_site_fract_y
  _atom_site_fract_z
  _atom_site_occupancy
  Cu  Cu1       1.0  0.49991  0.50002  0.49992999999999993  1.0000
  Cu  Cu2       1.0  0.50002  1.000000000001776e-05  0.50001  1.0000
  Cu  Cu3       1.0  0.99999  0.5  0.5  1.0000
  Cu  Cu4       1.0  0.0  9.999999999956963e-06  0.49996999999999997  1.0000
  Cu  Cu5       1.0  0.00010000000000003233  0.764  0.9999  1.0000
  Cu  Cu6       1.0  0.99989  0.23600000000000002  0.0001  1.0000
  H   H1        1.0  0.48176  0.46545  0.27902  1.0000
  H   H2        1.0  0.63624  0.45441  0.18409  1.0000
  H   H3        1.0  0.857  0.46376  0.27895  1.0000
  H   H4        1.0  0.7636599999999999  0.51039  0.5407  1.0000
  H   H5        1.0  0.51882  0.18616000000000008  0.72096  1.0000
  H   H6        1.0  0.36486  0.27038  0.81595  1.0000
  H   H7        1.0  0.14367  0.18592999999999996  0.72118  1.0000
  H   H8        1.0  0.23613999999999996  0.96981  0.45983  1.0000
  H   H9        1.0  0.51823  0.5345499999999997  0.72095  1.0000
  H   H10       1.0  0.3637699999999999  0.54559  0.8159  1.0000
  H   H11       1.0  0.14299999999999993  0.53624  0.72106  1.0000
  H   H12       1.0  0.23629999999999995  0.48961  0.4592899999999999  1.0000
  H   H13       1.0  0.48118  0.81384  0.27905  1.0000
  H   H14       1.0  0.63513  0.7296200000000002  0.18405  1.0000
  H   H15       1.0  0.85632  0.81406  0.2788  1.0000
  H   H16       1.0  0.7638799999999999  0.030189999999999995  0.54017  1.0000
  W   W1        1.0  0.80396  0.84999  0.69986  1.0000
  W   W2        1.0  0.19602999999999998  0.15  0.30014  1.0000
  W   W3        1.0  0.85465  0.36089  0.72194  1.0000
  W   W4        1.0  0.14535  0.63911  0.27806  1.0000
  C   C1        1.0  0.67285  0.71649  0.64591  1.0000
  C   C2        1.0  0.8860599999999998  0.8217  0.82639  1.0000
  C   C3        1.0  0.9223499999999999  0.73387  0.65689  1.0000
  C   C4        1.0  0.90719  0.52633  0.83144  1.0000
  C   C5        1.0  0.70951  0.4075599999999999  0.6384599999999999  1.0000
  C   C6        1.0  0.91336  0.40289  0.62302  1.0000
  C   C7        1.0  0.5791000000000001  0.47069  0.31451  1.0000
  C   C8        1.0  0.6637000000000001  0.46360000000000007  0.26256  1.0000
  C   C9        1.0  0.78573  0.47000999999999993  0.31477  1.0000
  C   C10       1.0  0.73505  0.49538  0.46028  1.0000
  C   C11       1.0  0.32700999999999997  0.07032999999999998  0.35375  1.0000
  C   C12       1.0  0.11412  0.9952400000000002  0.17333  1.0000
  C   C13       1.0  0.07771  0.07618999999999997  0.34298  1.0000
  C   C14       1.0  0.0931  0.69513  0.16862  1.0000
  C   C15       1.0  0.29074  0.7694  0.36241  1.0000
  C   C16       1.0  0.08665  0.77978  0.37677  1.0000
  C   C17       1.0  0.42144999999999994  0.15589000000000006  0.6857  1.0000
  C   C18       1.0  0.3370099999999999  0.20096  0.73763  1.0000
  C   C19       1.0  0.21476999999999993  0.15557999999999997  0.6854699999999999  1.0000
  C   C20       1.0  0.26508000000000004  0.03507  0.54021  1.0000
  C   C21       1.0  0.32714  0.2835  0.35407  1.0000
  C   C22       1.0  0.11393999999999999  0.17829999999999996  0.17360999999999996  1.0000
  C   C23       1.0  0.07764999999999997  0.26613  0.34311  1.0000
  C   C24       1.0  0.09281  0.47367  0.16856  1.0000
  C   C25       1.0  0.29048  0.5924400000000001  0.36154  1.0000
  C   C26       1.0  0.08663  0.59712  0.37698  1.0000
  C   C27       1.0  0.42088999999999993  0.52931  0.6854699999999999  1.0000
  C   C28       1.0  0.33628999999999987  0.5364  0.73742  1.0000
  C   C29       1.0  0.21425999999999998  0.53  0.68523  1.0000
  C   C30       1.0  0.2649099999999999  0.50462  0.53972  1.0000
  C   C31       1.0  0.67299  0.92967  0.6462500000000001  1.0000
  C   C32       1.0  0.88588  0.004760000000000003  0.82667  1.0000
  C   C33       1.0  0.92228  0.92381  0.65702  1.0000
  C   C34       1.0  0.90689  0.30487  0.83138  1.0000
  C   C35       1.0  0.70925  0.23059999999999992  0.63759  1.0000
  C   C36       1.0  0.91335  0.22023000000000004  0.62323  1.0000
  C   C37       1.0  0.57855  0.84411  0.3143  1.0000
  C   C38       1.0  0.6629799999999998  0.79904  0.26236  1.0000
  C   C39       1.0  0.7852299999999999  0.84441  0.31452  1.0000
  C   C40       1.0  0.7349299999999999  0.9649300000000001  0.45978  1.0000
  C   C41       1.0  0.69002  0.8993300000000001  0.79935  1.0000
  C   C42       1.0  0.74936  0.76547  0.53063  1.0000
  C   C43       1.0  0.3099700000000001  0.10067000000000002  0.20065  1.0000
  C   C44       1.0  0.25063  0.23453  0.46937  1.0000
  C   C45       1.0  0.72703  0.40419  0.80932  1.0000
  C   C46       1.0  0.05115000000000001  0.39099  0.78135  1.0000
  C   C47       1.0  0.27296  0.59581  0.19068  1.0000
  C   C48       1.0  0.94885  0.60901  0.21865  1.0000
  N   N1        1.0  0.59899  0.64279  0.61192  1.0000
  N   N2        1.0  0.92819  0.80466  0.89528  1.0000
  N   N3        1.0  0.9812199999999995  0.66568  0.63196  1.0000
  N   N4        1.0  0.94  0.61625  0.89266  1.0000
  N   N5        1.0  0.62888  0.43027  0.59012  1.0000
  N   N6        1.0  0.9453  0.43024  0.5715  1.0000
  N   N7        1.0  0.61575  0.48624  0.41347  1.0000
  N   N8        1.0  0.82085  0.48594  0.41388  1.0000
  N   N9        1.0  0.40041999999999994  0.030379999999999997  0.38762  1.0000
  N   N10       1.0  0.07186  0.90935  0.10445  1.0000
  N   N11       1.0  0.019210000000000005  0.03296000000000002  0.36838  1.0000
  N   N12       1.0  0.06044999999999999  0.72366  0.10722  1.0000
  N   N13       1.0  0.37152  0.84049  0.41105  1.0000
  N   N14       1.0  0.05475  0.85843  0.4284  1.0000
  N   N15       1.0  0.3845  0.07247  0.58684  1.0000
  N   N16       1.0  0.17932  0.07226999999999995  0.58649  1.0000
  N   N17       1.0  0.40098  0.3572  0.38805  1.0000
  N   N18       1.0  0.0718  0.19534  0.10472  1.0000
  N   N19       1.0  0.01877999999999997  0.33432  0.36802999999999997  1.0000
  N   N20       1.0  0.05999  0.38375000000000004  0.10734  1.0000
  N   N21       1.0  0.37111  0.56973  0.40988  1.0000
  N   N22       1.0  0.054679999999999986  0.56976  0.42849999999999994  1.0000
  N   N23       1.0  0.38421  0.51376  0.58651  1.0000
  N   N24       1.0  0.17912999999999998  0.51406  0.58612  1.0000
  N   N25       1.0  0.59958  0.9696200000000001  0.61237  1.0000
  N   N26       1.0  0.92813  0.09065000000000001  0.89555  1.0000
  N   N27       1.0  0.98078  0.9670400000000001  0.63162  1.0000
  N   N28       1.0  0.93955  0.2763399999999999  0.89278  1.0000
  N   N29       1.0  0.62848  0.15949999999999995  0.58895  1.0000
  N   N30       1.0  0.94525  0.1415800000000001  0.5716  1.0000
  N   N31       1.0  0.61551  0.92753  0.41316  1.0000
  N   N32       1.0  0.82068  0.9277300000000002  0.41349  1.0000
  N   N33       1.0  0.62742  0.92663  0.85366  1.0000
  N   N34       1.0  0.7190699999999999  0.71906  0.4381  1.0000
  N   N35       1.0  0.37258  0.07337  0.14634  1.0000
  N   N36       1.0  0.28093  0.2809400000000001  0.56189  1.0000
  N   N37       1.0  0.65308  0.42577  0.8529  1.0000
  N   N38       1.0  0.15846  0.4065  0.81161  1.0000
  N   N39       1.0  0.34691  0.57423  0.1471  1.0000
  N   N40       1.0  0.84154  0.5935000000000001  0.18838999999999997  1.0000
