data_image0
_chemical_formula_structural       Cu4H40W2C56N24
_chemical_formula_sum              "Cu4 H40 W2 C56 N24"
_cell_length_a       13.56853
_cell_length_b       15.30717
_cell_length_c       15.3104
_cell_angle_alpha    79.47709
_cell_angle_beta     64.69182
_cell_angle_gamma    64.69447999999998

_symmetry_space_group_name_H-M    'P 1'
_symmetry_Int_Tables_number       1

loop_
  _symmetry_equiv_pos_as_xyz
  'x,y,z'

loop_
  _atom_site_type_symbol
  _atom_site_label
  _atom_site_symmetry_multiplicity
  _atom_site_fract_x
  _atom_site_fract_y
  _atom_site_fract_z
  _atom_site_occupancy
  Cu  Cu1       1.0  0.49999  0.0  0.0  1.0000
  Cu  Cu2       1.0  0.5000000000000001  0.5  0.5  1.0000
  Cu  Cu3       1.0  0.0  0.0  0.5  1.0000
  Cu  Cu4       1.0  0.5000000000000001  0.5  0.0  1.0000
  H   H1        1.0  0.6416999999999999  0.97075  0.78473  1.0000
  H   H2        1.0  0.64924  0.79261  0.02536  1.0000
  H   H3        1.0  0.8084699999999997  0.6534199999999999  0.92419  1.0000
  H   H4        1.0  0.8891200000000002  0.67292  0.74144  1.0000
  H   H5        1.0  0.80234  0.83678  0.67282  1.0000
  H   H6        1.0  0.39704  0.53009  0.71518  1.0000
  H   H7        1.0  0.46816  0.70897  0.47606  1.0000
  H   H8        1.0  0.38511  0.84977  0.57818  1.0000
  H   H9        1.0  0.3007  0.83068  0.76091  1.0000
  H   H10       1.0  0.3095399999999999  0.66582  0.82839  1.0000
  H   H11       1.0  0.11187999999999998  0.78516  0.52876  1.0000
  H   H12       1.0  0.9424300000000001  0.02485  0.70906  1.0000
  H   H13       1.0  0.96278  0.92303  0.8490299999999998  1.0000
  H   H14       1.0  0.06233000000000001  0.74038  0.82872  1.0000
  H   H15       1.0  0.13851  0.67247  0.6636  1.0000
  H   H16       1.0  0.42773000000000005  0.71558  0.96942  1.0000
  H   H17       1.0  0.6754699999999999  0.47553999999999996  0.79276  1.0000
  H   H18       1.0  0.73262  0.57715  0.65278  1.0000
  H   H19       1.0  0.6302699999999996  0.76006  0.67106  1.0000
  H   H20       1.0  0.47579  0.82818  0.83457  1.0000
  H   H21       1.0  0.3583  0.02924  0.21527  1.0000
  H   H22       1.0  0.35075999999999996  0.20739  0.9746400000000001  1.0000
  H   H23       1.0  0.19154000000000002  0.34658  0.07581  1.0000
  H   H24       1.0  0.11088000000000003  0.3270699999999999  0.25856  1.0000
  H   H25       1.0  0.19766000000000006  0.16321999999999998  0.32718  1.0000
  H   H26       1.0  0.6029599999999999  0.46990999999999994  0.28482  1.0000
  H   H27       1.0  0.53184  0.29102999999999996  0.52394  1.0000
  H   H28       1.0  0.61489  0.15023  0.42182000000000003  1.0000
  H   H29       1.0  0.69931  0.16932  0.23909  1.0000
  H   H30       1.0  0.6904599999999999  0.33418  0.17161  1.0000
  H   H31       1.0  0.8881199999999999  0.21483999999999995  0.47124  1.0000
  H   H32       1.0  0.05758000000000007  0.9751499999999997  0.2909399999999999  1.0000
  H   H33       1.0  0.037220000000000024  0.07695999999999997  0.15096  1.0000
  H   H34       1.0  0.93768  0.25961  0.17128  1.0000
  H   H35       1.0  0.8614900000000001  0.32753  0.3363999999999999  1.0000
  H   H36       1.0  0.5722700000000002  0.28441  0.03058  1.0000
  H   H37       1.0  0.3245300000000001  0.52446  0.20724  1.0000
  H   H38       1.0  0.26739000000000007  0.4228499999999999  0.34721  1.0000
  H   H39       1.0  0.36973000000000006  0.23994  0.32894  1.0000
  H   H40       1.0  0.52422  0.17181999999999994  0.16541999999999998  1.0000
  W   W1        1.0  0.6268999999999999  0.24804999999999994  0.74816  1.0000
  W   W2        1.0  0.37309999999999993  0.75194  0.25184  1.0000
  C   C1        1.0  0.5811000000000001  0.14593  0.85184  1.0000
  C   C2        1.0  0.6811300000000001  0.89948  0.81234  1.0000
  C   C3        1.0  0.43612  0.3140699999999999  0.81376  1.0000
  C   C4        1.0  0.6848500000000002  0.80015  0.94723  1.0000
  C   C5        1.0  0.7750300000000004  0.72176  0.88916  1.0000
  C   C6        1.0  0.8192400000000001  0.7332  0.78881  1.0000
  C   C7        1.0  0.77114  0.82405  0.75042  1.0000
  C   C8        1.0  0.5814799999999999  0.35262  0.64637  1.0000
  C   C9        1.0  0.3922900000000001  0.60198  0.68831  1.0000
  C   C10       1.0  0.56635  0.18086  0.68055  1.0000
  C   C11       1.0  0.43232  0.70167  0.55414  1.0000
  C   C12       1.0  0.3848899999999999  0.78103  0.61277  1.0000
  C   C13       1.0  0.3391199999999999  0.7698  0.71306  1.0000
  C   C14       1.0  0.34371  0.67836  0.75084  1.0000
  C   C15       1.0  0.22774  0.855  0.35453  1.0000
  C   C16       1.0  0.08027000000000002  0.8122899999999998  0.60073  1.0000
  C   C17       1.0  0.24800000000000003  0.81749  0.18389  1.0000
  C   C18       1.0  0.9853600000000002  0.94676  0.70125  1.0000
  C   C19       1.0  0.99725  0.88836  0.78008  1.0000
  C   C20       1.0  0.05249999999999994  0.78804  0.7682  1.0000
  C   C21       1.0  0.0948  0.75002  0.6766  1.0000
  C   C22       1.0  0.42962000000000006  0.6495799999999999  0.14777  1.0000
  C   C23       1.0  0.49442  0.68828  0.89824  1.0000
  C   C24       1.0  0.24773000000000006  0.68421  0.31702  1.0000
  C   C25       1.0  0.6327400000000001  0.55368  0.79976  1.0000
  C   C26       1.0  0.66437  0.61207  0.72087  1.0000
  C   C27       1.0  0.6080899999999999  0.7124399999999999  0.73167  1.0000
  C   C28       1.0  0.5220999999999999  0.75055  0.82233  1.0000
  C   C29       1.0  0.41890000000000005  0.85406  0.14815  1.0000
  C   C30       1.0  0.31888  0.10051  0.18766  1.0000
  C   C31       1.0  0.56388  0.6859299999999998  0.18624  1.0000
  C   C32       1.0  0.31515000000000026  0.19984  0.05276  1.0000
  C   C33       1.0  0.22498  0.27824  0.11083  1.0000
  C   C34       1.0  0.18075999999999998  0.2668  0.21119  1.0000
  C   C35       1.0  0.22887000000000002  0.17594  0.24958  1.0000
  C   C36       1.0  0.41853000000000007  0.64737  0.35362999999999994  1.0000
  C   C37       1.0  0.6077100000000001  0.3980099999999999  0.31169  1.0000
  C   C38       1.0  0.43366  0.81914  0.31944  1.0000
  C   C39       1.0  0.5676799999999997  0.29832  0.44586  1.0000
  C   C40       1.0  0.6151099999999999  0.21897  0.38723  1.0000
  C   C41       1.0  0.66088  0.2302  0.28694  1.0000
  C   C42       1.0  0.65629  0.32164  0.24916  1.0000
  C   C43       1.0  0.77227  0.145  0.64547  1.0000
  C   C44       1.0  0.9197299999999999  0.18771  0.39926000000000006  1.0000
  C   C45       1.0  0.752  0.18251  0.81611  1.0000
  C   C46       1.0  0.014640000000000012  0.05322999999999999  0.29875  1.0000
  C   C47       1.0  0.002760000000000008  0.11164  0.21992  1.0000
  C   C48       1.0  0.9475  0.21195  0.23179  1.0000
  C   C49       1.0  0.90521  0.24997999999999995  0.32339999999999997  1.0000
  C   C50       1.0  0.57039  0.35042  0.85223  1.0000
  C   C51       1.0  0.50559  0.31171  0.10176  1.0000
  C   C52       1.0  0.7522700000000001  0.31578  0.6829799999999999  1.0000
  C   C53       1.0  0.36726999999999993  0.44631  0.20023  1.0000
  C   C54       1.0  0.33563999999999994  0.38793  0.27912  1.0000
  C   C55       1.0  0.39191  0.28755  0.26832  1.0000
  C   C56       1.0  0.4779  0.24943999999999997  0.17767  1.0000
  N   N1        1.0  0.6375299999999998  0.88809  0.9099400000000001  1.0000
  N   N2        1.0  0.55152  0.09037999999999999  0.90945  1.0000
  N   N3        1.0  0.33224999999999993  0.35118  0.8519  1.0000
  N   N4        1.0  0.43571999999999994  0.61321  0.59075  1.0000
  N   N5        1.0  0.5519899999999999  0.41076999999999997  0.59112  1.0000
  N   N6        1.0  0.53611  0.14317  0.64197  1.0000
  N   N7        1.0  0.025639999999999854  0.90984  0.6125600000000001  1.0000
  N   N8        1.0  0.14383  0.91156  0.41074  1.0000
  N   N9        1.0  0.18161000000000005  0.85458  0.1451  1.0000
  N   N10       1.0  0.5484  0.59064  0.88744  1.0000
  N   N11       1.0  0.45724000000000004  0.59331  0.0902  1.0000
  N   N12       1.0  0.1822699999999999  0.64449  0.35308  1.0000
  N   N13       1.0  0.36247  0.11191  0.09006  1.0000
  N   N14       1.0  0.44847999999999993  0.90961  0.09054000000000001  1.0000
  N   N15       1.0  0.66775  0.64881  0.14810000000000004  1.0000
  N   N16       1.0  0.56428  0.38679  0.40925  1.0000
  N   N17       1.0  0.44801  0.58923  0.40889  1.0000
  N   N18       1.0  0.4639  0.85682  0.35803  1.0000
  N   N19       1.0  0.9743700000000001  0.09016  0.38744  1.0000
  N   N20       1.0  0.85618  0.08843  0.58926  1.0000
  N   N21       1.0  0.8183900000000001  0.14542  0.85489  1.0000
  N   N22       1.0  0.4516  0.40935  0.11256  1.0000
  N   N23       1.0  0.54276  0.40669  0.90979  1.0000
  N   N24       1.0  0.8177400000000001  0.35551  0.64692  1.0000
