data_image0
_chemical_formula_structural       Zn4H48C80N4O16
_chemical_formula_sum              "Zn4 H48 C80 N4 O16"
_cell_length_a       17.45447
_cell_length_b       23.2447
_cell_length_c       23.24494
_cell_angle_alpha    102.36023
_cell_angle_beta     112.10255
_cell_angle_gamma    112.10278999999998

_symmetry_space_group_name_H-M    'P 1'
_symmetry_Int_Tables_number       1

loop_
  _symmetry_equiv_pos_as_xyz
  'x,y,z'

loop_
  _atom_site_type_symbol
  _atom_site_label
  _atom_site_symmetry_multiplicity
  _atom_site_fract_x
  _atom_site_fract_y
  _atom_site_fract_z
  _atom_site_occupancy
  Zn  Zn1       1.0  0.5494699999999999  0.5258199999999998  0.97434  1.0000
  Zn  Zn2       1.0  0.54947  0.97434  0.52582  1.0000
  Zn  Zn3       1.0  0.45053  0.47418  0.02566  1.0000
  Zn  Zn4       1.0  0.45052999999999993  0.02565999999999995  0.47418  1.0000
  H   H1        1.0  0.17756999999999998  0.42535999999999996  0.66089  1.0000
  H   H2        1.0  0.16137999999999988  0.39092999999999994  0.8605699999999998  1.0000
  H   H3        1.0  0.32733  0.46735  0.76919  1.0000
  H   H4        1.0  0.011290000000000001  0.34991999999999995  0.75309  1.0000
  H   H5        1.0  0.93244  0.31503  0.50389  1.0000
  H   H6        1.0  0.9313899999999998  0.38215999999999994  0.43572999999999995  1.0000
  H   H7        1.0  0.59142  0.07437999999999999  0.83905  1.0000
  H   H8        1.0  0.40995000000000004  0.10909000000000005  0.63944  1.0000
  H   H9        1.0  0.5907200000000002  0.03263  0.73072  1.0000
  H   H10       1.0  0.40843  0.14983  0.7469  1.0000
  H   H11       1.0  0.6135700000000002  0.18502000000000002  0.99618  1.0000
  H   H12       1.0  0.6135300000000002  0.11785  0.06437  1.0000
  H   H13       1.0  0.40858  0.16095000000000004  0.92563  1.0000
  H   H14       1.0  0.59004  0.36055999999999994  0.8909099999999999  1.0000
  H   H15       1.0  0.40928000000000003  0.2692799999999999  0.9673700000000001  1.0000
  H   H16       1.0  0.59156  0.2531  0.85017  1.0000
  H   H17       1.0  0.38643000000000005  0.0038099999999999835  0.81498  1.0000
  H   H18       1.0  0.38647000000000004  0.9356299999999999  0.88215  1.0000
  H   H19       1.0  0.82244  0.33911  0.57465  1.0000
  H   H20       1.0  0.83862  0.13942000000000002  0.60907  1.0000
  H   H21       1.0  0.6726699999999999  0.23080999999999996  0.53265  1.0000
  H   H22       1.0  0.98871  0.24691  0.65008  1.0000
  H   H23       1.0  0.0675599999999999  0.49610999999999994  0.68497  1.0000
  H   H24       1.0  0.06861999999999992  0.5642699999999999  0.61784  1.0000
  H   H25       1.0  0.8224300000000002  0.57465  0.3391  1.0000
  H   H26       1.0  0.83862  0.60908  0.13942  1.0000
  H   H27       1.0  0.67267  0.53265  0.23080999999999996  1.0000
  H   H28       1.0  0.98871  0.6500799999999999  0.24690999999999996  1.0000
  H   H29       1.0  0.06756  0.6849799999999999  0.49611  1.0000
  H   H30       1.0  0.06861999999999996  0.61784  0.56427  1.0000
  H   H31       1.0  0.4085800000000001  0.92563  0.16095  1.0000
  H   H32       1.0  0.59005  0.8909199999999998  0.36055  1.0000
  H   H33       1.0  0.40928000000000003  0.9673699999999998  0.26928  1.0000
  H   H34       1.0  0.59157  0.85017  0.2531  1.0000
  H   H35       1.0  0.3864300000000001  0.81498  0.0038099999999999996  1.0000
  H   H36       1.0  0.38647  0.88215  0.9356299999999999  1.0000
  H   H37       1.0  0.59143  0.83905  0.07437  1.0000
  H   H38       1.0  0.4099499999999999  0.6394499999999999  0.10908  1.0000
  H   H39       1.0  0.5907200000000001  0.7307199999999999  0.03263  1.0000
  H   H40       1.0  0.40843  0.7469  0.14983  1.0000
  H   H41       1.0  0.6135799999999999  0.9961899999999998  0.18502  1.0000
  H   H42       1.0  0.6135300000000002  0.06436999999999998  0.11784999999999998  1.0000
  H   H43       1.0  0.17756000000000002  0.6609  0.42535  1.0000
  H   H44       1.0  0.16138000000000002  0.86058  0.39093  1.0000
  H   H45       1.0  0.3273299999999999  0.7691899999999998  0.46735  1.0000
  H   H46       1.0  0.011289999999999977  0.75309  0.34992  1.0000
  H   H47       1.0  0.9324399999999998  0.5038899999999998  0.31503  1.0000
  H   H48       1.0  0.93139  0.43572999999999995  0.38216  1.0000
  C   C1        1.0  0.34342  0.45618999999999993  0.8864  1.0000
  C   C2        1.0  0.17444000000000004  0.4183  0.70486  1.0000
  C   C3        1.0  0.08463  0.38472  0.69977  1.0000
  C   C4        1.0  0.1642399999999999  0.39792  0.8165099999999998  1.0000
  C   C5        1.0  0.25407999999999986  0.43160999999999994  0.8218699999999999  1.0000
  C   C6        1.0  0.2579699999999999  0.44169  0.76532  1.0000
  C   C7        1.0  0.08040999999999995  0.37503999999999993  0.75649  1.0000
  C   C8        1.0  0.96171  0.36972  0.52843  1.0000
  C   C9        1.0  0.9614900000000003  0.40836  0.4902500000000001  1.0000
  C   C10       1.0  0.5013  0.04390999999999996  0.61375  1.0000
  C   C11       1.0  0.55134  0.08157000000000002  0.79518  1.0000
  C   C12       1.0  0.5003  0.11521  0.80031  1.0000
  C   C13       1.0  0.4498800000000001  0.10198000000000004  0.68345  1.0000
  C   C14       1.0  0.50069  0.06835999999999999  0.67812  1.0000
  C   C15       1.0  0.55097  0.058269999999999995  0.73472  1.0000
  C   C16       1.0  0.44902  0.12476999999999999  0.74347  1.0000
  C   C17       1.0  0.56359  0.13031000000000004  0.97163  1.0000
  C   C18       1.0  0.56291  0.09166  0.00981  1.0000
  C   C19       1.0  0.4987  0.38625  0.9560899999999999  1.0000
  C   C20       1.0  0.4486499999999999  0.2048099999999999  0.91843  1.0000
  C   C21       1.0  0.4996899999999999  0.19968999999999995  0.8847899999999999  1.0000
  C   C22       1.0  0.55012  0.31655  0.89801  1.0000
  C   C23       1.0  0.4993099999999998  0.3218799999999999  0.93164  1.0000
  C   C24       1.0  0.4490299999999999  0.26527999999999996  0.9417299999999998  1.0000
  C   C25       1.0  0.5509699999999998  0.2565299999999999  0.8752199999999999  1.0000
  C   C26       1.0  0.43640999999999996  0.028369999999999975  0.8696899999999999  1.0000
  C   C27       1.0  0.43709000000000003  0.99019  0.90834  1.0000
  C   C28       1.0  0.65658  0.1136  0.54382  1.0000
  C   C29       1.0  0.82557  0.29513999999999996  0.5817  1.0000
  C   C30       1.0  0.91537  0.30023  0.61528  1.0000
  C   C31       1.0  0.83576  0.18349  0.60208  1.0000
  C   C32       1.0  0.74592  0.17813  0.56839  1.0000
  C   C33       1.0  0.74203  0.23468  0.55832  1.0000
  C   C34       1.0  0.9196000000000001  0.24350999999999998  0.62496  1.0000
  C   C35       1.0  0.038299999999999924  0.4715699999999999  0.63028  1.0000
  C   C36       1.0  0.03851000000000001  0.50975  0.59164  1.0000
  C   C37       1.0  0.65658  0.54382  0.1136  1.0000
  C   C38       1.0  0.8255600000000002  0.5817  0.29514  1.0000
  C   C39       1.0  0.9153699999999999  0.61528  0.30023  1.0000
  C   C40       1.0  0.83576  0.6020899999999999  0.18349  1.0000
  C   C41       1.0  0.74592  0.56839  0.17813  1.0000
  C   C42       1.0  0.7420299999999999  0.5583199999999999  0.23468  1.0000
  C   C43       1.0  0.91959  0.62497  0.24351  1.0000
  C   C44       1.0  0.038299999999999924  0.6302899999999999  0.47157  1.0000
  C   C45       1.0  0.03851000000000001  0.59164  0.50975  1.0000
  C   C46       1.0  0.4986999999999999  0.9560999999999998  0.38625  1.0000
  C   C47       1.0  0.4486599999999999  0.91843  0.20480999999999996  1.0000
  C   C48       1.0  0.4996999999999999  0.8847999999999998  0.19969  1.0000
  C   C49       1.0  0.5501300000000001  0.89802  0.31655  1.0000
  C   C50       1.0  0.49930999999999987  0.9316399999999999  0.32188  1.0000
  C   C51       1.0  0.44903999999999994  0.9417299999999998  0.26528  1.0000
  C   C52       1.0  0.5509799999999999  0.8752299999999998  0.25653  1.0000
  C   C53       1.0  0.43640999999999996  0.8696999999999999  0.028370000000000003  1.0000
  C   C54       1.0  0.43709  0.90834  0.99018  1.0000
  C   C55       1.0  0.5013  0.61375  0.04391  1.0000
  C   C56       1.0  0.5513499999999999  0.7951899999999998  0.08157  1.0000
  C   C57       1.0  0.50031  0.80031  0.11519999999999998  1.0000
  C   C58       1.0  0.44988000000000006  0.6834499999999999  0.10198  1.0000
  C   C59       1.0  0.50069  0.67812  0.06836  1.0000
  C   C60       1.0  0.55097  0.73472  0.05827  1.0000
  C   C61       1.0  0.44902  0.74347  0.12477  1.0000
  C   C62       1.0  0.56359  0.97163  0.1303  1.0000
  C   C63       1.0  0.56291  0.009809999999999998  0.09166  1.0000
  C   C64       1.0  0.34342  0.8864099999999998  0.45618  1.0000
  C   C65       1.0  0.17442999999999997  0.70486  0.41829999999999995  1.0000
  C   C66       1.0  0.08462999999999993  0.69977  0.38472  1.0000
  C   C67       1.0  0.16423999999999989  0.8165199999999998  0.39792  1.0000
  C   C68       1.0  0.25408  0.8218799999999999  0.43160999999999994  1.0000
  C   C69       1.0  0.25797000000000003  0.76532  0.4416800000000001  1.0000
  C   C70       1.0  0.08040999999999995  0.7564899999999999  0.37503  1.0000
  C   C71       1.0  0.9617000000000001  0.52844  0.36971  1.0000
  C   C72       1.0  0.9614900000000001  0.49025  0.40836000000000006  1.0000
  C   C73       1.0  0.0  0.40093  0.59907  1.0000
  C   C74       1.0  0.0  0.47954  0.52046  1.0000
  C   C75       1.0  0.5000000000000001  0.09904000000000004  0.9009600000000001  1.0000
  C   C76       1.0  0.5000000000000001  0.02046000000000004  0.97954  1.0000
  C   C77       1.0  0.0  0.59907  0.40093  1.0000
  C   C78       1.0  0.0  0.52046  0.47954  1.0000
  C   C79       1.0  0.49999999999999994  0.9009599999999999  0.09904  1.0000
  C   C80       1.0  0.5  0.97955  0.02045  1.0000
  N   N1        1.0  2.5442720967755688e-17  0.3616599999999999  0.63834  1.0000
  N   N2        1.0  0.5000000000000001  0.13833000000000006  0.8616700000000002  1.0000
  N   N3        1.0  0.0  0.63835  0.36165  1.0000
  N   N4        1.0  0.5  0.86167  0.13833  1.0000
  O   O1        1.0  0.42323999999999995  0.4888499999999999  0.88881  1.0000
  O   O2        1.0  0.33419999999999994  0.44289000000000006  0.93503  1.0000
  O   O3        1.0  0.54596  0.011220000000000003  0.6115  1.0000
  O   O4        1.0  0.45717  0.05731999999999996  0.56507  1.0000
  O   O5        1.0  0.45404000000000005  0.38850999999999997  0.98878  1.0000
  O   O6        1.0  0.54283  0.4349299999999999  0.94268  1.0000
  O   O7        1.0  0.57676  0.11118999999999996  0.51115  1.0000
  O   O8        1.0  0.6658  0.06496999999999997  0.55711  1.0000
  O   O9        1.0  0.57676  0.51115  0.11119  1.0000
  O   O10       1.0  0.6658  0.55712  0.06497  1.0000
  O   O11       1.0  0.45403999999999983  0.9887899999999998  0.3885  1.0000
  O   O12       1.0  0.5428299999999999  0.9426799999999997  0.43493000000000004  1.0000
  O   O13       1.0  0.54596  0.6114999999999999  0.01121  1.0000
  O   O14       1.0  0.45717  0.56507  0.05732  1.0000
  O   O15       1.0  0.42323999999999995  0.88882  0.48884999999999995  1.0000
  O   O16       1.0  0.33419999999999994  0.9350299999999999  0.44288000000000005  1.0000
