data_image0
_chemical_formula_structural       Cu2H56C56Br2N16O8
_chemical_formula_sum              "Cu2 H56 C56 Br2 N16 O8"
_cell_length_a       4.69024
_cell_length_b       16.46119
_cell_length_c       17.96421
_cell_angle_alpha    86.12633
_cell_angle_beta     90.00046
_cell_angle_gamma    90.00046

_space_group_name_H-M_alt    "P 1"
_space_group_IT_number       1

loop_
  _space_group_symop_operation_xyz
  'x, y, z'

loop_
  _atom_site_type_symbol
  _atom_site_label
  _atom_site_symmetry_multiplicity
  _atom_site_fract_x
  _atom_site_fract_y
  _atom_site_fract_z
  _atom_site_occupancy
  Cu  Cu1       1.0  0.93932  0.25  0.25  1.0000
  Cu  Cu2       1.0  0.06065999999999999  0.75  0.75  1.0000
  H   H1        1.0  0.9345000000000001  0.07727999999999999  0.58347  1.0000
  H   H2        1.0  0.36154  0.02602  0.06572  1.0000
  H   H3        1.0  0.57274  0.34109  0.3758  1.0000
  H   H4        1.0  0.5049  0.34015  0.51458  1.0000
  H   H5        1.0  0.84456  0.25569  0.5967299999999999  1.0000
  H   H6        1.0  0.30467  0.20347  0.39720999999999995  1.0000
  H   H7        1.0  0.4842099999999999  0.14847999999999997  0.52348  1.0000
  H   H8        1.0  0.30489  0.17638  0.60566  1.0000
  H   H9        1.0  0.5792  0.12061  0.34323  1.0000
  H   H10       1.0  0.44580000000000003  0.97781  0.33031  1.0000
  H   H11       1.0  0.73493  0.89483  0.24126  1.0000
  H   H12       1.0  0.26404  0.10837  0.20085  1.0000
  H   H13       1.0  0.42729  0.9530200000000002  0.18001  1.0000
  H   H14       1.0  0.13295  0.88838  0.15871  1.0000
  H   H15       1.0  0.9345400000000001  0.42273  0.91652  1.0000
  H   H16       1.0  0.36153  0.47397999999999996  0.43428  1.0000
  H   H17       1.0  0.57273  0.15891000000000005  0.1242  1.0000
  H   H18       1.0  0.50489  0.15985  0.9854199999999999  1.0000
  H   H19       1.0  0.84457  0.24431  0.9032799999999999  1.0000
  H   H20       1.0  0.30467  0.2965200000000001  0.1028  1.0000
  H   H21       1.0  0.48422  0.3515200000000001  0.9765300000000001  1.0000
  H   H22       1.0  0.30491  0.32362  0.89435  1.0000
  H   H23       1.0  0.5792  0.37939000000000006  0.15677  1.0000
  H   H24       1.0  0.44580000000000003  0.52218  0.16969  1.0000
  H   H25       1.0  0.73494  0.60517  0.25874  1.0000
  H   H26       1.0  0.26404  0.39163  0.29915  1.0000
  H   H27       1.0  0.42729  0.54698  0.31999  1.0000
  H   H28       1.0  0.13297  0.61162  0.34129  1.0000
  H   H29       1.0  0.06451  0.92303  0.41679  1.0000
  H   H30       1.0  0.63845  0.97398  0.93429  1.0000
  H   H31       1.0  0.42733000000000004  0.6589200000000002  0.62418  1.0000
  H   H32       1.0  0.4949  0.65985  0.4854  1.0000
  H   H33       1.0  0.15511  0.74431  0.40329  1.0000
  H   H34       1.0  0.69529  0.79649  0.60286  1.0000
  H   H35       1.0  0.51524  0.85135  0.47663  1.0000
  H   H36       1.0  0.69506  0.8238  0.39442  1.0000
  H   H37       1.0  0.42074  0.87941  0.6568  1.0000
  H   H38       1.0  0.55418  0.02217  0.66974  1.0000
  H   H39       1.0  0.26498  0.10516999999999999  0.75877  1.0000
  H   H40       1.0  0.73587  0.8916299999999999  0.79917  1.0000
  H   H41       1.0  0.57263  0.04699  0.82001  1.0000
  H   H42       1.0  0.867  0.11162  0.8413  1.0000
  H   H43       1.0  0.06446  0.5769600000000003  0.08322  1.0000
  H   H44       1.0  0.63845  0.52602  0.56571  1.0000
  H   H45       1.0  0.42734  0.84108  0.87582  1.0000
  H   H46       1.0  0.49489  0.84014  0.0146  1.0000
  H   H47       1.0  0.1551  0.7556800000000002  0.09671  1.0000
  H   H48       1.0  0.69528  0.70351  0.89713  1.0000
  H   H49       1.0  0.51521  0.64865  0.023359999999999992  1.0000
  H   H50       1.0  0.69504  0.67619  0.10557  1.0000
  H   H51       1.0  0.42075  0.62059  0.8432  1.0000
  H   H52       1.0  0.55418  0.47783000000000003  0.83026  1.0000
  H   H53       1.0  0.26498  0.3948300000000001  0.74123  1.0000
  H   H54       1.0  0.73586  0.60837  0.7008299999999998  1.0000
  H   H55       1.0  0.57262  0.45300999999999997  0.67999  1.0000
  H   H56       1.0  0.8669799999999999  0.38838  0.6587  1.0000
  C   C1        1.0  0.72529  0.31099  0.41415  1.0000
  C   C2        1.0  0.68012  0.30672  0.49129  1.0000
  C   C3        1.0  0.87151  0.26072  0.53634  1.0000
  C   C4        1.0  0.09793  0.22147  0.50361  1.0000
  C   C5        1.0  0.13216  0.23291  0.42575  1.0000
  C   C6        1.0  0.27267  0.15888  0.54831  1.0000
  C   C7        1.0  0.12211  0.030660000000000007  0.49643  1.0000
  C   C8        1.0  0.70272  0.08367  0.30739  1.0000
  C   C9        1.0  0.62013  0.00391  0.29704  1.0000
  C   C10       1.0  0.78199  0.9587600000000001  0.2484  1.0000
  C   C11       1.0  0.0184  0.9951100000000002  0.21339  1.0000
  C   C12       1.0  0.08821  0.07572  0.22881  1.0000
  C   C13       1.0  0.20168  0.95189  0.16106  1.0000
  C   C14       1.0  0.9820799999999998  0.97704  0.03803999999999999  1.0000
  C   C15       1.0  0.72528  0.18901000000000007  0.08584999999999998  1.0000
  C   C16       1.0  0.68011  0.19328  0.00871  1.0000
  C   C17       1.0  0.87151  0.23928  0.96367  1.0000
  C   C18       1.0  0.09793  0.27853  0.9963899999999999  1.0000
  C   C19       1.0  0.13216  0.2670800000000001  0.07426  1.0000
  C   C20       1.0  0.27268  0.34113  0.9516899999999999  1.0000
  C   C21       1.0  0.12207  0.46934  0.0035399999999999997  1.0000
  C   C22       1.0  0.70272  0.41633  0.19261  1.0000
  C   C23       1.0  0.62013  0.4960899999999999  0.20296  1.0000
  C   C24       1.0  0.78199  0.54124  0.2516  1.0000
  C   C25       1.0  0.0184  0.50488  0.28662  1.0000
  C   C26       1.0  0.08822  0.42428  0.27119  1.0000
  C   C27       1.0  0.20169  0.54811  0.33894  1.0000
  C   C28       1.0  0.9820799999999998  0.52296  0.46196  1.0000
  C   C29       1.0  0.27465  0.6889900000000002  0.58585  1.0000
  C   C30       1.0  0.31964  0.6932500000000003  0.50871  1.0000
  C   C31       1.0  0.12821  0.73927  0.4636799999999999  1.0000
  C   C32       1.0  0.90187  0.77853  0.49644  1.0000
  C   C33       1.0  0.86778  0.76706  0.57431  1.0000
  C   C34       1.0  0.72697  0.84115  0.45182999999999995  1.0000
  C   C35       1.0  0.87767  0.9691699999999999  0.50409  1.0000
  C   C36       1.0  0.29723  0.91633  0.69264  1.0000
  C   C37       1.0  0.37983  0.9960899999999999  0.703  1.0000
  C   C38       1.0  0.21794  0.04123999999999999  0.75163  1.0000
  C   C39       1.0  0.98151  0.004879999999999999  0.78664  1.0000
  C   C40       1.0  0.9117000000000001  0.9242800000000001  0.77122  1.0000
  C   C41       1.0  0.79824  0.04812000000000002  0.8389499999999998  1.0000
  C   C42       1.0  0.01788  0.02296000000000001  0.9619699999999999  1.0000
  C   C43       1.0  0.27465  0.811  0.9141499999999999  1.0000
  C   C44       1.0  0.31964  0.80675  0.9912999999999998  1.0000
  C   C45       1.0  0.1282  0.76073  0.03632  1.0000
  C   C46       1.0  0.9018599999999999  0.72147  0.00356  1.0000
  C   C47       1.0  0.86778  0.73293  0.9256899999999999  1.0000
  C   C48       1.0  0.72696  0.65884  0.04817  1.0000
  C   C49       1.0  0.8777199999999998  0.53082  0.9959299999999999  1.0000
  C   C50       1.0  0.29722  0.58367  0.80736  1.0000
  C   C51       1.0  0.37982  0.50391  0.797  1.0000
  C   C52       1.0  0.21794  0.45876  0.74837  1.0000
  C   C53       1.0  0.9815000000000002  0.49511  0.71337  1.0000
  C   C54       1.0  0.91169  0.57572  0.72879  1.0000
  C   C55       1.0  0.79823  0.45187999999999995  0.66105  1.0000
  C   C56       1.0  0.01789  0.47704000000000024  0.53803  1.0000
  Br  Br1       1.0  0.4402  0.25  0.25  1.0000
  Br  Br2       1.0  0.55978  0.75  0.75  1.0000
  N   N1        1.0  0.94722  0.27612  0.38161  1.0000
  N   N2        1.0  0.11456  0.08285000000000001  0.5514  1.0000
  N   N3        1.0  0.92822  0.12037000000000003  0.27283  1.0000
  N   N4        1.0  0.19827  0.99003  0.08516999999999998  1.0000
  N   N5        1.0  0.94722  0.22388  0.11839999999999999  1.0000
  N   N6        1.0  0.11457999999999999  0.41715  0.9486099999999998  1.0000
  N   N7        1.0  0.9282299999999999  0.37963  0.22717  1.0000
  N   N8        1.0  0.19827  0.50997  0.41483  1.0000
  N   N9        1.0  0.05278  0.72386  0.61842  1.0000
  N   N10       1.0  0.88475  0.91723  0.44893999999999995  1.0000
  N   N11       1.0  0.07171  0.8796300000000002  0.7272  1.0000
  N   N12       1.0  0.80168  0.00998  0.91484  1.0000
  N   N13       1.0  0.05278  0.77614  0.88158  1.0000
  N   N14       1.0  0.8847  0.58276  0.05105  1.0000
  N   N15       1.0  0.0717  0.62036  0.77281  1.0000
  N   N16       1.0  0.80167  0.49002  0.58516  1.0000
  O   O1        1.0  0.29924  0.030710000000000005  0.44521  1.0000
  O   O2        1.0  0.77177  0.9320200000000002  0.05213999999999999  1.0000
  O   O3        1.0  0.29927  0.46929  0.0548  1.0000
  O   O4        1.0  0.77178  0.56797  0.44786  1.0000
  O   O5        1.0  0.70064  0.9689900000000004  0.55532  1.0000
  O   O6        1.0  0.22821  0.06797999999999998  0.94786  1.0000
  O   O7        1.0  0.70059  0.531  0.9446599999999999  1.0000
  O   O8        1.0  0.2282  0.43202  0.55214  1.0000
