data_image0
_chemical_formula_structural       Cd6H36C48N8O28
_chemical_formula_sum              "Cd6 H36 C48 N8 O28"
_cell_length_a       10.51827
_cell_length_b       12.88659
_cell_length_c       16.8025
_cell_angle_alpha    89.84035
_cell_angle_beta     90.05002
_cell_angle_gamma    101.37568999999999

_space_group_name_H-M_alt    "P 1"
_space_group_IT_number       1

loop_
  _space_group_symop_operation_xyz
  'x, y, z'

loop_
  _atom_site_type_symbol
  _atom_site_label
  _atom_site_symmetry_multiplicity
  _atom_site_fract_x
  _atom_site_fract_y
  _atom_site_fract_z
  _atom_site_occupancy
  Cd  Cd1       1.0  0.20741  0.8595700000000001  0.88634  1.0000
  Cd  Cd2       1.0  0.29187  0.63836  0.38572  1.0000
  Cd  Cd3       1.0  0.79258  0.14043  0.11366  1.0000
  Cd  Cd4       1.0  0.70812  0.36164  0.6142899999999999  1.0000
  Cd  Cd5       1.0  0.0  0.0  0.0  1.0000
  Cd  Cd6       1.0  0.4999999999999999  0.5  0.5  1.0000
  H   H1        1.0  0.8597  0.6549500000000001  0.76044  1.0000
  H   H2        1.0  0.45656  0.66862  0.73249  1.0000
  H   H3        1.0  0.6782899999999998  0.83831  0.92261  1.0000
  H   H4        1.0  0.5237500000000002  0.9426800000000001  0.15298  1.0000
  H   H5        1.0  0.43729999999999997  0.8129400000000002  0.17754  1.0000
  H   H6        1.0  0.28413999999999995  0.88468  0.25207  1.0000
  H   H7        1.0  0.3757599999999999  0.014920000000000001  0.23247  1.0000
  H   H8        1.0  0.41563  0.87043  0.02384  1.0000
  H   H9        1.0  0.13859000000000005  0.9605800000000002  0.1592  1.0000
  H   H10       1.0  0.64067  0.8466600000000002  0.26169  1.0000
  H   H11       1.0  0.04247  0.82989  0.23246  1.0000
  H   H12       1.0  0.8215599999999998  0.6610400000000001  0.42363  1.0000
  H   H13       1.0  0.9757899999999999  0.55732  0.65257  1.0000
  H   H14       1.0  0.062350000000000017  0.6867600000000001  0.67747  1.0000
  H   H15       1.0  0.21491000000000002  0.6139700000000001  0.75211  1.0000
  H   H16       1.0  0.12365  0.48401  0.73193  1.0000
  H   H17       1.0  0.08355  0.62959  0.52357  1.0000
  H   H18       1.0  0.36126  0.53997  0.6593  1.0000
  H   H19       1.0  0.1403  0.34505  0.23956  1.0000
  H   H20       1.0  0.54344  0.33138  0.26751  1.0000
  H   H21       1.0  0.3217  0.16169000000000006  0.0774  1.0000
  H   H22       1.0  0.47623999999999994  0.05732000000000002  0.84702  1.0000
  H   H23       1.0  0.56269  0.18706000000000006  0.82246  1.0000
  H   H24       1.0  0.7158599999999999  0.11532000000000003  0.74794  1.0000
  H   H25       1.0  0.62423  0.9850800000000001  0.76753  1.0000
  H   H26       1.0  0.58437  0.12957000000000002  0.97616  1.0000
  H   H27       1.0  0.8614099999999998  0.03942  0.8408  1.0000
  H   H28       1.0  0.35932  0.15334  0.73831  1.0000
  H   H29       1.0  0.9575199999999999  0.17011000000000007  0.76754  1.0000
  H   H30       1.0  0.17844000000000002  0.3389600000000001  0.57637  1.0000
  H   H31       1.0  0.024210000000000006  0.44268000000000013  0.34743  1.0000
  H   H32       1.0  0.9376399999999999  0.31324  0.32253  1.0000
  H   H33       1.0  0.7850799999999999  0.38603  0.24789000000000003  1.0000
  H   H34       1.0  0.87634  0.51599  0.26807  1.0000
  H   H35       1.0  0.9164399999999999  0.3704100000000001  0.47643  1.0000
  H   H36       1.0  0.63874  0.46003  0.3407  1.0000
  C   C1        1.0  0.7834699999999999  0.75288  0.84426  1.0000
  C   C2        1.0  0.7743499999999999  0.68345  0.77979  1.0000
  C   C3        1.0  0.6562099999999998  0.65054  0.74006  1.0000
  C   C4        1.0  0.5476300000000001  0.6896300000000002  0.76445  1.0000
  C   C5        1.0  0.55446  0.75609  0.83079  1.0000
  C   C6        1.0  0.6723700000000001  0.7868100000000002  0.87114  1.0000
  C   C7        1.0  0.9118399999999999  0.79378  0.88311  1.0000
  C   C8        1.0  0.64614  0.5713000000000001  0.67402  1.0000
  C   C9        1.0  0.43624999999999997  0.79406  0.85729  1.0000
  C   C10       1.0  0.25915  0.92132  0.07373  1.0000
  C   C11       1.0  0.42762000000000006  0.8910300000000002  0.15501  1.0000
  C   C12       1.0  0.32960999999999996  0.93943  0.20549  1.0000
  C   C13       1.0  0.71663  0.7477299999999999  0.34565  1.0000
  C   C14       1.0  0.72573  0.81745  0.28095  1.0000
  C   C15       1.0  0.8436399999999998  0.8495300000000001  0.24071000000000004  1.0000
  C   C16       1.0  0.95174  0.8094200000000003  0.2648  1.0000
  C   C17       1.0  0.9450499999999998  0.74276  0.33123  1.0000
  C   C18       1.0  0.8275  0.71286  0.37213  1.0000
  C   C19       1.0  0.58836  0.70647  0.38477999999999996  1.0000
  C   C20       1.0  0.85504  0.9287600000000001  0.17418  1.0000
  C   C21       1.0  0.06308  0.70383  0.35707  1.0000
  C   C22       1.0  0.24078000000000005  0.5798500000000001  0.57368  1.0000
  C   C23       1.0  0.07192000000000003  0.6088900000000002  0.65478  1.0000
  C   C24       1.0  0.16975000000000004  0.5599100000000001  0.70526  1.0000
  C   C25       1.0  0.21653  0.24712  0.15574  1.0000
  C   C26       1.0  0.22564000000000003  0.3165500000000001  0.22021  1.0000
  C   C27       1.0  0.34378  0.3494500000000001  0.25994  1.0000
  C   C28       1.0  0.4523599999999999  0.31037  0.23555  1.0000
  C   C29       1.0  0.44553  0.24391000000000004  0.16921  1.0000
  C   C30       1.0  0.32762  0.21319000000000005  0.12886  1.0000
  C   C31       1.0  0.08815000000000002  0.20622000000000001  0.11689  1.0000
  C   C32       1.0  0.35385  0.4287  0.32598  1.0000
  C   C33       1.0  0.56375  0.20594000000000004  0.14271  1.0000
  C   C34       1.0  0.74084  0.07868  0.92627  1.0000
  C   C35       1.0  0.57237  0.10897  0.84499  1.0000
  C   C36       1.0  0.6703799999999999  0.060570000000000006  0.79451  1.0000
  C   C37       1.0  0.28336  0.25227  0.65436  1.0000
  C   C38       1.0  0.27426  0.18255  0.71905  1.0000
  C   C39       1.0  0.15634999999999996  0.15047000000000002  0.75929  1.0000
  C   C40       1.0  0.04825  0.19058  0.7352  1.0000
  C   C41       1.0  0.05493999999999996  0.25724  0.66877  1.0000
  C   C42       1.0  0.17249  0.28714  0.6278699999999999  1.0000
  C   C43       1.0  0.41162999999999994  0.29353000000000007  0.61522  1.0000
  C   C44       1.0  0.14495  0.07124000000000001  0.82582  1.0000
  C   C45       1.0  0.9369099999999999  0.29617  0.6429399999999998  1.0000
  C   C46       1.0  0.75921  0.42015  0.42633  1.0000
  C   C47       1.0  0.9280699999999998  0.3911100000000001  0.34522  1.0000
  C   C48       1.0  0.8302399999999999  0.44009  0.29474  1.0000
  N   N1        1.0  0.36825  0.88174  0.0755  1.0000
  N   N2        1.0  0.23286000000000004  0.9570500000000002  0.14625  1.0000
  N   N3        1.0  0.13149000000000002  0.6191700000000001  0.57533  1.0000
  N   N4        1.0  0.26697  0.5434000000000001  0.64617  1.0000
  N   N5        1.0  0.6317399999999999  0.11826  0.9245  1.0000
  N   N6        1.0  0.76713  0.04295  0.85375  1.0000
  N   N7        1.0  0.8684999999999999  0.38083  0.42467  1.0000
  N   N8        1.0  0.73303  0.4566  0.35383  1.0000
  O   O1        1.0  0.9113599999999998  0.8410400000000001  0.94916  1.0000
  O   O2        1.0  0.012780000000000014  0.77811  0.84568  1.0000
  O   O3        1.0  0.7414099999999999  0.52406  0.66643  1.0000
  O   O4        1.0  0.5431  0.55452  0.63175  1.0000
  O   O5        1.0  0.3302999999999999  0.7625400000000002  0.81842  1.0000
  O   O6        1.0  0.44305000000000005  0.8572600000000002  0.91619  1.0000
  O   O7        1.0  0.18822999999999998  0.9255800000000001  0.01201  1.0000
  O   O8        1.0  0.5890699999999999  0.6612200000000001  0.45192  1.0000
  O   O9        1.0  0.48728000000000005  0.7195800000000001  0.34609  1.0000
  O   O10       1.0  0.7620199999999999  0.97849  0.16685  1.0000
  O   O11       1.0  0.95709  0.9425  0.13115  1.0000
  O   O12       1.0  0.16872  0.73523  0.31781  1.0000
  O   O13       1.0  0.056690000000000046  0.6400700000000002  0.41585  1.0000
  O   O14       1.0  0.3122599999999999  0.5765000000000001  0.51219  1.0000
  O   O15       1.0  0.08863  0.15896  0.05084  1.0000
  O   O16       1.0  0.9872099999999999  0.22189000000000003  0.15432  1.0000
  O   O17       1.0  0.2585799999999999  0.47594  0.33357  1.0000
  O   O18       1.0  0.45689  0.44548000000000004  0.36825  1.0000
  O   O19       1.0  0.66969  0.23746  0.18158  1.0000
  O   O20       1.0  0.5569499999999998  0.14274  0.08382  1.0000
  O   O21       1.0  0.81176  0.07442  0.9879900000000001  1.0000
  O   O22       1.0  0.41093  0.33878000000000014  0.54808  1.0000
  O   O23       1.0  0.51271  0.28042  0.65392  1.0000
  O   O24       1.0  0.23798  0.021510000000000005  0.83315  1.0000
  O   O25       1.0  0.04290000000000001  0.057500000000000016  0.86885  1.0000
  O   O26       1.0  0.83127  0.26477  0.68219  1.0000
  O   O27       1.0  0.9432999999999999  0.35993  0.58416  1.0000
  O   O28       1.0  0.68773  0.4235  0.48781  1.0000
