data_image0
_chemical_formula_structural       Cu2H40C48N16
_chemical_formula_sum              "Cu2 H40 C48 N16"
_cell_length_a       10.4678
_cell_length_b       11.519109999999998
_cell_length_c       11.47782
_cell_angle_alpha    96.43301
_cell_angle_beta     87.27291999999998
_cell_angle_gamma    92.28989000000001

_symmetry_space_group_name_H-M    'P 1'
_symmetry_Int_Tables_number       1

loop_
  _symmetry_equiv_pos_as_xyz
  'x,y,z'

loop_
  _atom_site_type_symbol
  _atom_site_label
  _atom_site_symmetry_multiplicity
  _atom_site_fract_x
  _atom_site_fract_y
  _atom_site_fract_z
  _atom_site_occupancy
  Cu  Cu1       1.0  0.9201699999999999  0.17201  0.71953  1.0000
  Cu  Cu2       1.0  0.07984  0.8279900000000001  0.28047  1.0000
  H   H1        1.0  0.68394  0.32642  0.69927  1.0000
  H   H2        1.0  0.03406  0.32745  0.5019  1.0000
  H   H3        1.0  0.85794  0.44421  0.39077  1.0000
  H   H4        1.0  0.70247  0.57949  0.41244  1.0000
  H   H5        1.0  0.50094  0.33112  0.61778  1.0000
  H   H6        1.0  0.7797799999999997  0.64421  0.79621  1.0000
  H   H7        1.0  0.92396  0.98636  0.8903400000000001  1.0000
  H   H8        1.0  0.04695  0.8336900000000003  0.01598  1.0000
  H   H9        1.0  0.9487199999999999  0.67411  0.14187  1.0000
  H   H10       1.0  0.98269  0.50987  0.78552  1.0000
  H   H11       1.0  0.8076299999999998  0.36631000000000014  0.88283  1.0000
  H   H12       1.0  0.67557  0.015069999999999988  0.83664  1.0000
  H   H13       1.0  0.48312  0.14916000000000001  0.9526500000000001  1.0000
  H   H14       1.0  0.37005999999999994  0.3203600000000001  0.9385800000000001  1.0000
  H   H15       1.0  0.7366  0.49454  0.013480000000000002  1.0000
  H   H16       1.0  0.22751  0.1924  0.65544  1.0000
  H   H17       1.0  0.95979  0.90799  0.6542  1.0000
  H   H18       1.0  0.19406  0.8272300000000002  0.56041  1.0000
  H   H19       1.0  0.32127  0.90008  0.38799000000000006  1.0000
  H   H20       1.0  0.4557  0.11105  0.69663  1.0000
  H   H21       1.0  0.31607  0.67357  0.30073  1.0000
  H   H22       1.0  0.96594  0.67255  0.49809  1.0000
  H   H23       1.0  0.14207  0.55578  0.60923  1.0000
  H   H24       1.0  0.29753  0.42051  0.58755  1.0000
  H   H25       1.0  0.49907  0.6688700000000001  0.38222000000000006  1.0000
  H   H26       1.0  0.22023  0.35578000000000004  0.20378  1.0000
  H   H27       1.0  0.07605  0.01363  0.10966  1.0000
  H   H28       1.0  0.95306  0.1663  0.98402  1.0000
  H   H29       1.0  0.05129000000000003  0.32589  0.85812  1.0000
  H   H30       1.0  0.01731  0.49012  0.21448  1.0000
  H   H31       1.0  0.19238  0.63369  0.11717  1.0000
  H   H32       1.0  0.32443  0.98493  0.16336  1.0000
  H   H33       1.0  0.51689  0.85084  0.04735  1.0000
  H   H34       1.0  0.62995  0.67964  0.06141  1.0000
  H   H35       1.0  0.26341  0.50545  0.9865200000000001  1.0000
  H   H36       1.0  0.7725000000000001  0.8075900000000001  0.34457  1.0000
  H   H37       1.0  0.040150000000000005  0.09198  0.34581  1.0000
  H   H38       1.0  0.80596  0.17270000000000005  0.43955000000000005  1.0000
  H   H39       1.0  0.67874  0.09992  0.612  1.0000
  H   H40       1.0  0.54431  0.88896  0.30337  1.0000
  C   C1        1.0  0.7550999999999998  0.3386700000000001  0.6304  1.0000
  C   C2        1.0  0.9352499999999999  0.34496  0.52784  1.0000
  C   C3        1.0  0.8491899999999999  0.4038100000000001  0.47139  1.0000
  C   C4        1.0  0.61682  0.44949  0.51741  1.0000
  C   C5        1.0  0.61372  0.54367  0.44913  1.0000
  C   C6        1.0  0.50099  0.40631000000000006  0.56835  1.0000
  C   C7        1.0  0.83454  0.71888  0.8355099999999999  1.0000
  C   C8        1.0  0.9097099999999999  0.8926  0.89042  1.0000
  C   C9        1.0  0.97192  0.81955  0.95372  1.0000
  C   C10       1.0  0.9613199999999998  0.60247  0.9590700000000001  1.0000
  C   C11       1.0  0.97165  0.59807  0.08006  1.0000
  C   C12       1.0  0.98907  0.50518  0.8791000000000001  1.0000
  C   C13       1.0  0.7483299999999998  0.28856  0.88878  1.0000
  C   C14       1.0  0.67393  0.10841000000000003  0.86281  1.0000
  C   C15       1.0  0.57693  0.17395  0.91848  1.0000
  C   C16       1.0  0.56051  0.39337  0.97177  1.0000
  C   C17       1.0  0.42711  0.39823  0.9672999999999999  1.0000
  C   C18       1.0  0.63387  0.49687000000000003  0.00493  1.0000
  C   C19       1.0  0.18437  0.10542  0.64386  1.0000
  C   C20       1.0  0.04939  0.95528  0.63855  1.0000
  C   C21       1.0  0.16311  0.91415  0.59085  1.0000
  C   C22       1.0  0.37606  0.005850000000000008  0.54737  1.0000
  C   C23       1.0  0.40039  0.94071  0.43743  1.0000
  C   C24       1.0  0.47513000000000005  0.06495  0.60963  1.0000
  C   C25       1.0  0.24491  0.66132  0.3696  1.0000
  C   C26       1.0  0.06476  0.6550300000000001  0.4721600000000001  1.0000
  C   C27       1.0  0.15081  0.59618  0.52861  1.0000
  C   C28       1.0  0.38319  0.5505000000000001  0.48259  1.0000
  C   C29       1.0  0.38629  0.45633  0.55086  1.0000
  C   C30       1.0  0.49902  0.59369  0.43164  1.0000
  C   C31       1.0  0.16547  0.28112  0.16449  1.0000
  C   C32       1.0  0.0903  0.1074  0.10958  1.0000
  C   C33       1.0  0.02809  0.18044  0.04628000000000001  1.0000
  C   C34       1.0  0.03869  0.39753  0.04093  1.0000
  C   C35       1.0  0.028359999999999996  0.40192  0.9199400000000001  1.0000
  C   C36       1.0  0.010930000000000004  0.49482  0.12090000000000001  1.0000
  C   C37       1.0  0.25167  0.71144  0.11122000000000001  1.0000
  C   C38       1.0  0.32608  0.8915900000000001  0.13719  1.0000
  C   C39       1.0  0.42308  0.8260500000000001  0.08152  1.0000
  C   C40       1.0  0.4395  0.60663  0.02823  1.0000
  C   C41       1.0  0.57289  0.60177  0.0327  1.0000
  C   C42       1.0  0.3661400000000001  0.5031300000000001  0.9950700000000001  1.0000
  C   C43       1.0  0.8156399999999999  0.89457  0.35613  1.0000
  C   C44       1.0  0.9508  0.04472000000000001  0.36138  1.0000
  C   C45       1.0  0.83678  0.08598  0.40924  1.0000
  C   C46       1.0  0.62396  0.99417  0.45263  1.0000
  C   C47       1.0  0.59961  0.05929  0.56257  1.0000
  C   C48       1.0  0.52488  0.93504  0.39036000000000004  1.0000
  N   N1        1.0  0.87673  0.30412  0.62664  1.0000
  N   N2        1.0  0.73361  0.40013000000000004  0.53765  1.0000
  N   N3        1.0  0.8238  0.82979  0.81753  1.0000
  N   N4        1.0  0.9238199999999998  0.7076500000000001  0.91809  1.0000
  N   N5        1.0  0.78014  0.18004  0.8434599999999999  1.0000
  N   N6        1.0  0.6248700000000001  0.28954  0.93358  1.0000
  N   N7        1.0  0.06273  0.07468  0.67141  1.0000
  N   N8        1.0  0.24864000000000003  0.00945  0.59427  1.0000
  N   N9        1.0  0.12328  0.6958700000000001  0.37336  1.0000
  N   N10       1.0  0.26639999999999997  0.59986  0.46234  1.0000
  N   N11       1.0  0.17621  0.17021  0.18247  1.0000
  N   N12       1.0  0.07618  0.29234  0.08191  1.0000
  N   N13       1.0  0.21986999999999993  0.81995  0.15654  1.0000
  N   N14       1.0  0.37514  0.7104600000000002  0.06642  1.0000
  N   N15       1.0  0.93725  0.92529  0.32859  1.0000
  N   N16       1.0  0.75136  0.99051  0.40572  1.0000
