data_image0
_chemical_formula_structural       Co4H48C60N8O16
_chemical_formula_sum              "Co4 H48 C60 N8 O16"
_cell_length_a       7.73706
_cell_length_b       14.659859999999998
_cell_length_c       14.451960000000001
_cell_angle_alpha    90.04587000000001
_cell_angle_beta     89.86994
_cell_angle_gamma    98.59218999999999

_space_group_name_H-M_alt    "P 1"
_space_group_IT_number       1

loop_
  _space_group_symop_operation_xyz
  'x, y, z'

loop_
  _atom_site_type_symbol
  _atom_site_label
  _atom_site_symmetry_multiplicity
  _atom_site_fract_x
  _atom_site_fract_y
  _atom_site_fract_z
  _atom_site_occupancy
  Co  Co1       1.0  0.92308  0.11293000000000003  0.08839  1.0000
  Co  Co2       1.0  0.5704800000000001  0.88507  0.58873  1.0000
  Co  Co3       1.0  0.06135000000000008  0.8863500000000002  0.9100500000000001  1.0000
  Co  Co4       1.0  0.43039  0.11001000000000002  0.40978  1.0000
  H   H1        1.0  0.5105100000000002  0.8186300000000002  0.3141000000000001  1.0000
  H   H2        1.0  0.6651500000000001  0.9237100000000003  0.04317  1.0000
  H   H3        1.0  0.55485  0.75341  0.06801  1.0000
  H   H4        1.0  0.36407000000000017  0.8001600000000002  0.08955  1.0000
  H   H5        1.0  0.3202100000000001  0.7106600000000002  0.24085000000000004  1.0000
  H   H6        1.0  0.33631  0.6359600000000002  0.14554  1.0000
  H   H7        1.0  0.5170000000000002  0.6651300000000002  0.22039  1.0000
  H   H8        1.0  0.25147999999999987  0.21205  0.14899  1.0000
  H   H9        1.0  0.4576400000000001  0.35258  0.1191  1.0000
  H   H10       1.0  0.10752  0.41874  0.90357  1.0000
  H   H11       1.0  0.9152600000000002  0.27076  0.9417700000000002  1.0000
  H   H12       1.0  0.36517  0.5267500000000002  0.9313200000000001  1.0000
  H   H13       1.0  0.98782  0.17818000000000006  0.81324  1.0000
  H   H14       1.0  0.83088  0.07320000000000002  0.54277  1.0000
  H   H15       1.0  0.94166  0.24331000000000003  0.5676600000000003  1.0000
  H   H16       1.0  0.13267  0.19688  0.58875  1.0000
  H   H17       1.0  0.17737000000000006  0.28692  0.73951  1.0000
  H   H18       1.0  0.15872000000000006  0.36113  0.64428  1.0000
  H   H19       1.0  0.9796800000000002  0.33169  0.72053  1.0000
  H   H20       1.0  0.24552000000000004  0.7814000000000002  0.65164  1.0000
  H   H21       1.0  0.03857  0.64222  0.61854  1.0000
  H   H22       1.0  0.39184  0.5789100000000003  0.40246  1.0000
  H   H23       1.0  0.5837  0.7260800000000002  0.44308  1.0000
  H   H24       1.0  0.13229  0.47057  0.42807  1.0000
  H   H25       1.0  0.49121  0.17569  0.68561  1.0000
  H   H26       1.0  0.31642  0.07573000000000003  0.95564  1.0000
  H   H27       1.0  0.4301400000000001  0.24463000000000004  0.9293  1.0000
  H   H28       1.0  0.62221  0.19797000000000006  0.91233  1.0000
  H   H29       1.0  0.6759  0.28626  0.7606  1.0000
  H   H30       1.0  0.65222  0.36159000000000013  0.85445  1.0000
  H   H31       1.0  0.47719  0.3313100000000001  0.7762800000000002  1.0000
  H   H32       1.0  0.7376  0.7816300000000002  0.84799  1.0000
  H   H33       1.0  0.5350600000000001  0.6406100000000002  0.88055  1.0000
  H   H34       1.0  0.8880000000000001  0.5807600000000003  0.09718  1.0000
  H   H35       1.0  0.07636000000000003  0.7291400000000001  0.05668  1.0000
  H   H36       1.0  0.63058  0.46977  0.0705  1.0000
  H   H37       1.0  0.002690000000000054  0.8203700000000003  0.18542  1.0000
  H   H38       1.0  0.1828700000000001  0.9187600000000002  0.45496000000000003  1.0000
  H   H39       1.0  0.06076999999999999  0.75147  0.43024  1.0000
  H   H40       1.0  0.87003  0.79858  0.41098  1.0000
  H   H41       1.0  0.81925  0.7092500000000003  0.26053  1.0000
  H   H42       1.0  0.8421600000000004  0.6338700000000002  0.35422  1.0000
  H   H43       1.0  0.018210000000000056  0.6646900000000002  0.27634  1.0000
  H   H44       1.0  0.75552  0.21476000000000006  0.34601  1.0000
  H   H45       1.0  0.96003  0.3550600000000001  0.37800000000000006  1.0000
  H   H46       1.0  0.61005  0.4158500000000001  0.59663  1.0000
  H   H47       1.0  0.41983  0.26805000000000007  0.55669  1.0000
  H   H48       1.0  0.8673600000000002  0.52603  0.5691500000000003  1.0000
  C   C1        1.0  0.90591  0.09417  0.28086  1.0000
  C   C2        1.0  0.78225  0.010740000000000003  0.24794  1.0000
  C   C3        1.0  0.68462  0.9472400000000002  0.30703  1.0000
  C   C4        1.0  0.5858400000000002  0.8685700000000002  0.26836  1.0000
  C   C5        1.0  0.57885  0.8566200000000003  0.17255  1.0000
  C   C6        1.0  0.6719000000000002  0.9268800000000003  0.11833  1.0000
  C   C7        1.0  0.47435000000000016  0.7749600000000002  0.12447  1.0000
  C   C8        1.0  0.40841000000000016  0.6923800000000002  0.18645  1.0000
  C   C9        1.0  0.6693100000000002  0.9644000000000003  0.40856  1.0000
  C   C10       1.0  0.22418  0.25929  0.09512  1.0000
  C   C11       1.0  0.33932  0.33915  0.07769  1.0000
  C   C12       1.0  0.30194  0.3998100000000001  0.00742  1.0000
  C   C13       1.0  0.14419  0.37465  0.9585  1.0000
  C   C14       1.0  0.03621  0.29277  0.97934  1.0000
  C   C15       1.0  0.41673000000000004  0.4840200000000001  0.98312  1.0000
  C   C16       1.0  0.58899  0.9044000000000001  0.7811  1.0000
  C   C17       1.0  0.7138  0.9869800000000002  0.74798  1.0000
  C   C18       1.0  0.81127  0.050670000000000014  0.80683  1.0000
  C   C19       1.0  0.91157  0.12856  0.7677100000000002  1.0000
  C   C20       1.0  0.91842  0.14023000000000005  0.67192  1.0000
  C   C21       1.0  0.8248700000000002  0.07004  0.61796  1.0000
  C   C22       1.0  0.022340000000000027  0.22201000000000007  0.6239  1.0000
  C   C23       1.0  0.08797000000000003  0.3046900000000001  0.68573  1.0000
  C   C24       1.0  0.82572  0.03486  0.90854  1.0000
  C   C25       1.0  0.27308  0.73553  0.59646  1.0000
  C   C26       1.0  0.15765000000000004  0.6561500000000001  0.57748  1.0000
  C   C27       1.0  0.19552  0.59644  0.50623  1.0000
  C   C28       1.0  0.35418000000000005  0.62229  0.45794  1.0000
  C   C29       1.0  0.46202  0.70386  0.48016  1.0000
  C   C30       1.0  0.08057000000000003  0.5125700000000001  0.48072  1.0000
  C   C31       1.0  0.08964000000000001  0.90226  0.71689  1.0000
  C   C32       1.0  0.21168000000000006  0.9858400000000003  0.75038  1.0000
  C   C33       1.0  0.31251  0.04852  0.69164  1.0000
  C   C34       1.0  0.41114  0.12702  0.73075  1.0000
  C   C35       1.0  0.41235000000000016  0.14035000000000006  0.82643  1.0000
  C   C36       1.0  0.31547  0.07111000000000003  0.88039  1.0000
  C   C37       1.0  0.5142  0.22261000000000006  0.87479  1.0000
  C   C38       1.0  0.58363  0.30466  0.81285  1.0000
  C   C39       1.0  0.33035  0.03126  0.5901600000000002  1.0000
  C   C40       1.0  0.7660500000000002  0.73608  0.9032  1.0000
  C   C41       1.0  0.65311  0.6557500000000003  0.92194  1.0000
  C   C42       1.0  0.6920200000000001  0.5965900000000001  0.99328  1.0000
  C   C43       1.0  0.84973  0.6236800000000001  0.04162  1.0000
  C   C44       1.0  0.95542  0.706  0.01952  1.0000
  C   C45       1.0  0.57851  0.51213  0.0185  1.0000
  C   C46       1.0  0.4069600000000001  0.09281000000000002  0.21648000000000003  1.0000
  C   C47       1.0  0.28383  0.009440000000000002  0.24976  1.0000
  C   C48       1.0  0.18095000000000006  0.9474600000000002  0.1915  1.0000
  C   C49       1.0  0.08268  0.86879  0.23065  1.0000
  C   C50       1.0  0.08260000000000006  0.8549800000000002  0.32621  1.0000
  C   C51       1.0  0.18171000000000007  0.9235700000000002  0.3798  1.0000
  C   C52       1.0  0.9790900000000003  0.7732500000000002  0.37473  1.0000
  C   C53       1.0  0.91097  0.6909700000000001  0.31285  1.0000
  C   C54       1.0  0.16230000000000008  0.9650900000000002  0.09029000000000002  1.0000
  C   C55       1.0  0.72801  0.26026  0.40156000000000003  1.0000
  C   C56       1.0  0.8422300000000001  0.3402600000000001  0.41994  1.0000
  C   C57       1.0  0.8046900000000003  0.3996600000000001  0.49153000000000013  1.0000
  C   C58       1.0  0.64743  0.3728700000000001  0.54075  1.0000
  C   C59       1.0  0.54053  0.29087000000000013  0.51895  1.0000
  C   C60       1.0  0.91898  0.4839400000000001  0.51655  1.0000
  N   N1        1.0  0.7725900000000001  0.0004700000000000001  0.15488  1.0000
  N   N2        1.0  0.07433000000000001  0.23498000000000005  0.0467  1.0000
  N   N3        1.0  0.7237800000000001  0.9967600000000002  0.65491  1.0000
  N   N4        1.0  0.4232100000000001  0.76093  0.54822  1.0000
  N   N5        1.0  0.21624000000000004  0.9972800000000003  0.84337  1.0000
  N   N6        1.0  0.9152000000000001  0.7626800000000002  0.9515800000000001  1.0000
  N   N7        1.0  0.2803300000000002  0.9975700000000002  0.3427000000000001  1.0000
  N   N8        1.0  0.5789  0.23417000000000004  0.45048  1.0000
  O   O1        1.0  0.9425900000000001  0.15774  0.21721  1.0000
  O   O2        1.0  0.96417  0.09948  0.3607900000000001  1.0000
  O   O3        1.0  0.62559  0.040450000000000014  0.43511  1.0000
  O   O4        1.0  0.69262  0.8989500000000001  0.46337  1.0000
  O   O5        1.0  0.54939  0.8410300000000002  0.7175900000000002  1.0000
  O   O6        1.0  0.533  0.89996  0.8615800000000002  1.0000
  O   O7        1.0  0.8714400000000002  0.9596500000000001  0.93574  1.0000
  O   O8        1.0  0.8012100000000002  0.10063000000000002  0.96297  1.0000
  O   O9        1.0  0.04287000000000007  0.8410200000000002  0.78168  1.0000
  O   O10       1.0  0.04158999999999999  0.89526  0.6351  1.0000
  O   O11       1.0  0.3761900000000002  0.9555300000000002  0.56435  1.0000
  O   O12       1.0  0.30694  0.09632000000000003  0.53478  1.0000
  O   O13       1.0  0.45036  0.15441  0.28128  1.0000
  O   O14       1.0  0.45885  0.09963000000000002  0.13519  1.0000
  O   O15       1.0  0.11725  0.04099  0.06474  1.0000
  O   O16       1.0  0.18403000000000005  0.8995800000000003  0.03497  1.0000
