data_image0
_chemical_formula_structural       Ho2H30C66O12
_chemical_formula_sum              "Ho2 H30 C66 O12"
_cell_length_a       9.77348
_cell_length_b       20.6609
_cell_length_c       20.61475
_cell_angle_alpha    58.65591
_cell_angle_beta     77.0033
_cell_angle_gamma    77.02727

_symmetry_space_group_name_H-M    'P 1'
_symmetry_Int_Tables_number       1

loop_
  _symmetry_equiv_pos_as_xyz
  'x,y,z'

loop_
  _atom_site_type_symbol
  _atom_site_label
  _atom_site_symmetry_multiplicity
  _atom_site_fract_x
  _atom_site_fract_y
  _atom_site_fract_z
  _atom_site_occupancy
  Ho  Ho1       1.0  0.5835600000000001  0.99151  0.49594  1.0000
  Ho  Ho2       1.0  0.07031999999999998  0.005079999999999999  0.51087  1.0000
  H   H1        1.0  0.5342199999999999  0.79243  0.08317  1.0000
  H   H2        1.0  0.5264899999999999  0.7586499999999998  0.82454  1.0000
  H   H3        1.0  0.5989099999999998  0.81158  0.68514  1.0000
  H   H4        1.0  0.9461100000000001  0.9002  0.69698  1.0000
  H   H5        1.0  0.8729900000000002  0.8484099999999999  0.83669  1.0000
  H   H6        1.0  0.40237999999999985  0.20514999999999994  0.9197600000000001  1.0000
  H   H7        1.0  0.10552  0.23182  0.17937000000000003  1.0000
  H   H8        1.0  0.09668999999999998  0.17854999999999996  0.31919  1.0000
  H   H9        1.0  0.54215  0.09775  0.30521  1.0000
  H   H10       1.0  0.55352  0.15230000000000002  0.16513  1.0000
  H   H11       1.0  0.40612000000000004  0.41823  0.70655  1.0000
  H   H12       1.0  0.11392000000000009  0.6736099999999998  0.74119  1.0000
  H   H13       1.0  0.10157000000000008  0.8128199999999999  0.69065  1.0000
  H   H14       1.0  0.54196  0.80447  0.59744  1.0000
  H   H15       1.0  0.5552600000000002  0.66504  0.64915  1.0000
  H   H16       1.0  0.53445  0.57895  0.29642  1.0000
  H   H17       1.0  0.53061  0.32144  0.26039  1.0000
  H   H18       1.0  0.59716  0.18169  0.31821  1.0000
  H   H19       1.0  0.9469600000000001  0.19404999999999997  0.40432  1.0000
  H   H20       1.0  0.8782700000000001  0.33412  0.34906  1.0000
  H   H21       1.0  0.6200999999999999  0.87355  0.37512  1.0000
  H   H22       1.0  0.6443100000000002  0.80449  0.30311  1.0000
  H   H23       1.0  0.18851999999999997  0.8230400000000001  0.32685  1.0000
  H   H24       1.0  0.16697999999999982  0.8937500000000002  0.39739  1.0000
  H   H25       1.0  0.6922  0.58001  0.08269  1.0000
  H   H26       1.0  0.87977  0.12702000000000002  0.63035  1.0000
  H   H27       1.0  0.765  0.19900999999999994  0.69923  1.0000
  H   H28       1.0  0.35429000000000005  0.17658999999999997  0.67548  1.0000
  H   H29       1.0  0.46950000000000003  0.10396999999999997  0.60692  1.0000
  H   H30       1.0  0.33660999999999996  0.41872999999999994  0.9205700000000001  1.0000
  C   C1        1.0  0.55706  0.7305  0.11401  1.0000
  C   C2        1.0  0.61463  0.69106  0.07314  1.0000
  C   C3        1.0  0.6413799999999998  0.73118  0.99172  1.0000
  C   C4        1.0  0.6642099999999999  0.7633899999999999  0.9218000000000001  1.0000
  C   C5        1.0  0.6980100000000001  0.7975799999999998  0.84095  1.0000
  C   C6        1.0  0.61909  0.78879  0.79696  1.0000
  C   C7        1.0  0.6597399999999999  0.81846  0.71868  1.0000
  C   C8        1.0  0.77982  0.8568799999999999  0.68219  1.0000
  C   C9        1.0  0.85548  0.8684  0.7251  1.0000
  C   C10       1.0  0.8147799999999998  0.83951  0.80337  1.0000
  C   C11       1.0  0.8241899999999999  0.88557  0.59871  1.0000
  C   C12       1.0  0.3922099999999998  0.26719  0.88932  1.0000
  C   C13       1.0  0.3649799999999999  0.3071500000000001  0.9300899999999999  1.0000
  C   C14       1.0  0.35147000000000006  0.26694  0.01147  1.0000
  C   C15       1.0  0.341  0.23317000000000002  0.0813  1.0000
  C   C16       1.0  0.33133999999999997  0.19750999999999996  0.16212  1.0000
  C   C17       1.0  0.20122999999999996  0.20330999999999996  0.20665  1.0000
  C   C18       1.0  0.19613000000000005  0.17377  0.28485  1.0000
  C   C19       1.0  0.31883000000000006  0.13770999999999994  0.32102  1.0000
  C   C20       1.0  0.44719999999999993  0.12828000000000003  0.27752  1.0000
  C   C21       1.0  0.45359999999999995  0.15794  0.19906  1.0000
  C   C22       1.0  0.3097599999999999  0.11017  0.40452  1.0000
  C   C23       1.0  0.39457  0.38752999999999993  0.76875  1.0000
  C   C24       1.0  0.3675699999999999  0.4280799999999999  0.80885  1.0000
  C   C25       1.0  0.35605000000000003  0.5091699999999999  0.7684900000000001  1.0000
  C   C26       1.0  0.34691000000000005  0.5788599999999999  0.73471  1.0000
  C   C27       1.0  0.33672999999999986  0.6594  0.70045  1.0000
  C   C28       1.0  0.2075300000000001  0.7023499999999999  0.71045  1.0000
  C   C29       1.0  0.20078999999999986  0.78031  0.68206  1.0000
  C   C30       1.0  0.32141000000000003  0.8179599999999999  0.6431  1.0000
  C   C31       1.0  0.4486699999999999  0.77592  0.62994  1.0000
  C   C32       1.0  0.4564099999999998  0.6977900000000001  0.65816  1.0000
  C   C33       1.0  0.31164  0.90126  0.61652  1.0000
  C   C34       1.0  0.5574400000000002  0.6101  0.23431  1.0000
  C   C35       1.0  0.6153600000000001  0.56998  0.19408  1.0000
  C   C36       1.0  0.6439300000000001  0.4887500000000001  0.23339  1.0000
  C   C37       1.0  0.66862  0.4190999999999999  0.26417  1.0000
  C   C38       1.0  0.70167  0.33828  0.29938  1.0000
  C   C39       1.0  0.62165  0.29404  0.29175  1.0000
  C   C40       1.0  0.6598700000000001  0.21556999999999998  0.32339  1.0000
  C   C41       1.0  0.77988  0.17891  0.36182  1.0000
  C   C42       1.0  0.8567899999999998  0.22216999999999998  0.37216  1.0000
  C   C43       1.0  0.8179199999999996  0.3006  0.34176  1.0000
  C   C44       1.0  0.82451  0.09545000000000001  0.39017  1.0000
  C   C45       1.0  0.37843  0.9281000000000001  0.43470000000000003  1.0000
  C   C46       1.0  0.39159  0.8874399999999999  0.39107  1.0000
  C   C47       1.0  0.5265  0.8624399999999999  0.36406  1.0000
  C   C48       1.0  0.5399600000000001  0.8238599999999999  0.32393  1.0000
  C   C49       1.0  0.41851999999999956  0.80846  0.31012  1.0000
  C   C50       1.0  0.28314999999999996  0.83425  0.33687  1.0000
  C   C51       1.0  0.27056  0.87351  0.37657  1.0000
  C   C52       1.0  0.44006000000000006  0.7672  0.27005  1.0000
  C   C53       1.0  0.47799  0.7313900000000001  0.23554000000000003  1.0000
  C   C54       1.0  0.5290999999999999  0.69052  0.19463  1.0000
  C   C55       1.0  0.6449600000000001  0.61081  0.1136  1.0000
  C   C56       1.0  0.74955  0.06793  0.57311  1.0000
  C   C57       1.0  0.6813899999999999  0.11083000000000001  0.61426  1.0000
  C   C58       1.0  0.7650199999999995  0.13782000000000005  0.64032  1.0000
  C   C59       1.0  0.7015999999999999  0.17792  0.67873  1.0000
  C   C60       1.0  0.5524  0.19204999999999994  0.69201  1.0000
  C   C61       1.0  0.46896999999999983  0.16525999999999996  0.66548  1.0000
  C   C62       1.0  0.53325  0.12501000000000004  0.62721  1.0000
  C   C63       1.0  0.4901599999999996  0.23228000000000001  0.73213  1.0000
  C   C64       1.0  0.4476  0.2667  0.76775  1.0000
  C   C65       1.0  0.4086500000000001  0.30722  0.80877  1.0000
  C   C66       1.0  0.35376999999999986  0.3876000000000001  0.88953  1.0000
  O   O1        1.0  0.9472699999999996  0.90595  0.56958  1.0000
  O   O2        1.0  0.7371500000000001  0.88837  0.55892  1.0000
  O   O3        1.0  0.42445999999999995  0.08892000000000001  0.43401  1.0000
  O   O4        1.0  0.18717999999999999  0.10934000000000003  0.44351  1.0000
  O   O5        1.0  0.42545999999999995  0.93095  0.59722  1.0000
  O   O6        1.0  0.1882900000000001  0.9399  0.61456  1.0000
  O   O7        1.0  0.94772  0.06677999999999998  0.41038  1.0000
  O   O8        1.0  0.73804  0.05571000000000001  0.39242  1.0000
  O   O9        1.0  0.49345999999999995  0.9362500000000001  0.44806  1.0000
  O   O10       1.0  0.25477  0.9525999999999999  0.45663  1.0000
  O   O11       1.0  0.8853  0.05801000000000002  0.56237  1.0000
  O   O12       1.0  0.67169  0.04318000000000001  0.55058  1.0000
