data_image0
_chemical_formula_structural       La3H45C81O18
_chemical_formula_sum              "La3 H45 C81 O18"
_cell_length_a       11.82931
_cell_length_b       17.29586
_cell_length_c       17.29655
_cell_angle_alpha    115.16876000000002
_cell_angle_beta     103.58448
_cell_angle_gamma    103.58041

_symmetry_space_group_name_H-M    'P 1'
_symmetry_Int_Tables_number       1

loop_
  _symmetry_equiv_pos_as_xyz
  'x,y,z'

loop_
  _atom_site_type_symbol
  _atom_site_label
  _atom_site_symmetry_multiplicity
  _atom_site_fract_x
  _atom_site_fract_y
  _atom_site_fract_z
  _atom_site_occupancy
  La  La1       1.0  0.32885000000000003  0.65726  0.33188  1.0000
  La  La2       1.0  3.7541429707232515e-17  0.66905  0.33093000000000006  1.0000
  La  La3       1.0  0.6710900000000002  0.6681000000000001  0.34273000000000003  1.0000
  H   H1        1.0  0.31759  0.41384  0.3848  1.0000
  H   H2        1.0  0.3176500000000001  0.32829  0.46963  1.0000
  H   H3        1.0  0.41042000000000006  0.23755  0.50412  1.0000
  H   H4        1.0  0.43989  0.09774  0.4604  1.0000
  H   H5        1.0  0.34860000000000013  0.92665  0.38833000000000006  1.0000
  H   H6        1.0  0.2430500000000001  0.9562600000000002  0.6172100000000003  1.0000
  H   H7        1.0  0.3293  0.12691  0.68849  1.0000
  H   H8        1.0  0.92948  0.62134  0.02769  1.0000
  H   H9        1.0  0.8476200000000004  0.5322800000000002  0.85633  1.0000
  H   H10       1.0  0.9006900000000001  0.49570000000000003  0.73322  1.0000
  H   H11       1.0  0.97823  0.53821  0.63839  1.0000
  H   H12       1.0  0.9589200000000002  0.6098400000000002  0.54029  1.0000
  H   H13       1.0  0.6198200000000001  0.37784  0.3365900000000001  1.0000
  H   H14       1.0  0.63605  0.30625  0.43453  1.0000
  H   H15       1.0  0.91188  0.96214  0.57521  1.0000
  H   H16       1.0  0.9926699999999999  0.13351  0.6641200000000002  1.0000
  H   H17       1.0  0.16926000000000016  0.2648200000000001  0.7591100000000002  1.0000
  H   H18       1.0  0.3370400000000001  0.35989  0.90007  1.0000
  H   H19       1.0  0.41543  0.4563  0.07116  1.0000
  H   H20       1.0  0.28478  0.65936  0.04633  1.0000
  H   H21       1.0  0.20292000000000004  0.56258  0.8754  1.0000
  H   H22       1.0  0.07045  0.97227  0.37865  1.0000
  H   H23       1.0  0.15238000000000007  0.14364000000000005  0.46772000000000014  1.0000
  H   H24       1.0  0.09931000000000004  0.26678  0.5043  1.0000
  H   H25       1.0  0.021770000000000015  0.3616200000000001  0.4618  1.0000
  H   H26       1.0  0.041080000000000054  0.45972000000000013  0.39017  1.0000
  H   H27       1.0  0.38018  0.6634200000000002  0.62217  1.0000
  H   H28       1.0  0.36395000000000005  0.56548  0.69376  1.0000
  H   H29       1.0  0.0881  0.42479000000000006  0.03786  1.0000
  H   H30       1.0  0.007360000000000027  0.33590000000000003  0.8665100000000001  1.0000
  H   H31       1.0  0.8307400000000005  0.2408900000000001  0.7351800000000002  1.0000
  H   H32       1.0  0.6629800000000001  0.09994000000000004  0.64012  1.0000
  H   H33       1.0  0.58455  0.92884  0.5437  1.0000
  H   H34       1.0  0.7151800000000001  0.9536500000000001  0.34064  1.0000
  H   H35       1.0  0.79707  0.12459000000000005  0.4374300000000001  1.0000
  H   H36       1.0  0.6824000000000002  0.6151900000000001  0.5861500000000001  1.0000
  H   H37       1.0  0.6823300000000003  0.5303800000000004  0.6717200000000002  1.0000
  H   H38       1.0  0.5895800000000001  0.49590000000000006  0.76246  1.0000
  H   H39       1.0  0.5601  0.53961  0.90226  1.0000
  H   H40       1.0  0.6513700000000002  0.61165  0.07334  1.0000
  H   H41       1.0  0.75694  0.38277999999999995  0.04372  1.0000
  H   H42       1.0  0.6707200000000002  0.3115200000000001  0.8730900000000001  1.0000
  H   H43       1.0  0.5000100000000001  0.23965000000000003  0.76037  1.0000
  H   H44       1.0  0.74078  0.23688000000000006  0.4778  1.0000
  H   H45       1.0  0.2592200000000002  0.5222000000000001  0.7631200000000002  1.0000
  C   C1        1.0  0.39776  0.43817  0.44706  1.0000
  C   C2        1.0  0.3985700000000001  0.3902700000000001  0.49451000000000006  1.0000
  C   C3        1.0  0.44916000000000006  0.27515  0.57928  1.0000
  C   C4        1.0  0.44744  0.2264200000000001  0.6266300000000001  1.0000
  C   C5        1.0  0.3925500000000001  0.1247  0.58019  1.0000
  C   C6        1.0  0.39538  0.06717  0.49446  1.0000
  C   C7        1.0  0.34612000000000004  0.9714400000000001  0.45446000000000003  1.0000
  C   C8        1.0  0.29237  0.93156  0.49941  1.0000
  C   C9        1.0  0.28829000000000005  0.98847  0.58468  1.0000
  C   C10       1.0  0.33753000000000005  0.08357  0.62429  1.0000
  C   C11       1.0  0.22912000000000005  0.83038  0.45533  1.0000
  C   C12       1.0  0.9475899999999999  0.55943  0.99171  1.0000
  C   C13       1.0  0.90241  0.5094  0.8957  1.0000
  C   C14       1.0  0.86681  0.42063999999999996  0.69586  1.0000
  C   C15       1.0  0.8185100000000001  0.37159  0.59893  1.0000
  C   C16       1.0  0.8089400000000001  0.41689  0.54336  1.0000
  C   C17       1.0  0.89847  0.50349  0.57309  1.0000
  C   C18       1.0  0.88917  0.5432400000000001  0.51787  1.0000
  C   C19       1.0  0.7890700000000003  0.49733000000000005  0.43205  1.0000
  C   C20       1.0  0.6986700000000002  0.4111900000000001  0.40208  1.0000
  C   C21       1.0  0.7087500000000001  0.37158000000000013  0.45693000000000006  1.0000
  C   C22       1.0  0.7701100000000001  0.5418000000000002  0.37611000000000006  1.0000
  C   C23       1.0  0.9652600000000001  0.0022799999999999782  0.55225  1.0000
  C   C24       1.0  0.012020000000000006  0.09859  0.60256  1.0000
  C   C25       1.0  0.17202000000000006  0.30300000000000005  0.72279  1.0000
  C   C26       1.0  0.21894  0.3999200000000001  0.77334  1.0000
  C   C27       1.0  0.2646000000000001  0.45434  0.87519  1.0000
  C   C28       1.0  0.3231  0.42448  0.93158  1.0000
  C   C29       1.0  0.36886  0.4789  0.02752  1.0000
  C   C30       1.0  0.35611  0.56415  0.06904  1.0000
  C   C31       1.0  0.2971300000000001  0.5943400000000002  0.01335  1.0000
  C   C32       1.0  0.25229000000000024  0.5401400000000003  0.9179800000000002  1.0000
  C   C33       1.0  0.39431000000000005  0.61983  0.17039  1.0000
  C   C34       1.0  0.05236  0.008280000000000001  0.44056  1.0000
  C   C35       1.0  0.09757000000000002  0.10428999999999998  0.4906  1.0000
  C   C36       1.0  0.13320000000000007  0.30414000000000013  0.57936  1.0000
  C   C37       1.0  0.18148  0.40107000000000004  0.62841  1.0000
  C   C38       1.0  0.19107  0.45664  0.58312  1.0000
  C   C39       1.0  0.10152000000000005  0.4269100000000001  0.49651  1.0000
  C   C40       1.0  0.11083  0.48214000000000007  0.45678  1.0000
  C   C41       1.0  0.21093000000000003  0.56795  0.50267  1.0000
  C   C42       1.0  0.30134  0.59793  0.58882  1.0000
  C   C43       1.0  0.29124  0.54308  0.62843  1.0000
  C   C44       1.0  0.22989000000000012  0.6238900000000002  0.4582  1.0000
  C   C45       1.0  0.03471000000000005  0.4477700000000001  0.99773  1.0000
  C   C46       1.0  0.9879800000000002  0.39745000000000014  0.90142  1.0000
  C   C47       1.0  0.82798  0.2772100000000002  0.697  1.0000
  C   C48       1.0  0.7810700000000003  0.22667  0.60008  1.0000
  C   C49       1.0  0.73539  0.12480999999999996  0.54566  1.0000
  C   C50       1.0  0.6769100000000001  0.06842000000000005  0.57553  1.0000
  C   C51       1.0  0.63111  0.97247  0.5211  1.0000
  C   C52       1.0  0.64385  0.93095  0.43585  1.0000
  C   C53       1.0  0.70284  0.9866400000000001  0.40566  1.0000
  C   C54       1.0  0.74769  0.08201000000000001  0.45986  1.0000
  C   C55       1.0  0.6056200000000002  0.8296000000000002  0.38017  1.0000
  C   C56       1.0  0.60223  0.55294  0.56183  1.0000
  C   C57       1.0  0.6014200000000002  0.5054900000000001  0.60973  1.0000
  C   C58       1.0  0.55083  0.42074  0.72486  1.0000
  C   C59       1.0  0.5525800000000003  0.37338000000000016  0.7735800000000002  1.0000
  C   C60       1.0  0.60746  0.41982000000000014  0.8753  1.0000
  C   C61       1.0  0.6046100000000002  0.5055400000000002  0.93283  1.0000
  C   C62       1.0  0.65386  0.5455300000000002  0.02856  1.0000
  C   C63       1.0  0.7076000000000001  0.50057  0.06843  1.0000
  C   C64       1.0  0.71171  0.41531  0.01153  1.0000
  C   C65       1.0  0.6624900000000002  0.37571000000000015  0.9164300000000002  1.0000
  C   C66       1.0  0.77083  0.54465  0.16961  1.0000
  C   C67       1.0  0.49998000000000004  0.5708900000000001  0.4291100000000001  1.0000
  C   C68       1.0  0.49999000000000005  0.51987  0.48012  1.0000
  C   C69       1.0  0.4999900000000001  0.42308  0.5769300000000002  1.0000
  C   C70       1.0  0.5  0.3723500000000001  0.62765  1.0000
  C   C71       1.0  0.5000000000000001  0.2768100000000001  0.7232  1.0000
  C   C72       1.0  0.05846999999999998  0.58302  0.14673  1.0000
  C   C73       1.0  0.014449999999999989  0.52926  0.04395  1.0000
  C   C74       1.0  0.9211  0.4272  0.84833  1.0000
  C   C75       1.0  0.8717  0.37430000000000013  0.7459  1.0000
  C   C76       1.0  0.7771300000000001  0.27518  0.55277  1.0000
  C   C77       1.0  0.9415000000000002  0.85326  0.41701  1.0000
  C   C78       1.0  0.9855000000000002  0.95605  0.47075  1.0000
  C   C79       1.0  0.0789  0.15167  0.5728  1.0000
  C   C80       1.0  0.12831000000000012  0.25410000000000005  0.6257000000000001  1.0000
  C   C81       1.0  0.22287999999999997  0.44723  0.72482  1.0000
  O   O1        1.0  0.6012100000000002  0.6376500000000003  0.45359  1.0000
  O   O2        1.0  0.23707  0.7765900000000002  0.37785  1.0000
  O   O3        1.0  0.15938  0.7971099999999999  0.48813  1.0000
  O   O4        1.0  0.13214  0.56235  0.19577  1.0000
  O   O5        1.0  0.8573800000000001  0.6201000000000002  0.40217  1.0000
  O   O6        1.0  0.6664299999999999  0.50883  0.30946  1.0000
  O   O7        1.0  0.9811000000000001  0.81674  0.35314  1.0000
  O   O8        1.0  0.45521000000000006  0.5943700000000001  0.22272000000000006  1.0000
  O   O9        1.0  0.35919  0.6862  0.20473  1.0000
  O   O10       1.0  0.86779  0.80423  0.43766  1.0000
  O   O11       1.0  0.14260000000000003  0.59782  0.3799  1.0000
  O   O12       1.0  0.33356000000000013  0.69052  0.49115  1.0000
  O   O13       1.0  0.01892000000000001  0.64693  0.18325  1.0000
  O   O14       1.0  0.5446400000000002  0.77727  0.40558000000000005  1.0000
  O   O15       1.0  0.64079  0.7952500000000002  0.31382  1.0000
  O   O16       1.0  0.39874  0.5464  0.36234  1.0000
  O   O17       1.0  0.7628  0.6221  0.22337  1.0000
  O   O18       1.0  0.8406200000000001  0.51187  0.20289000000000001  1.0000
