data_image0
_chemical_formula_structural       La2H36C54O18
_chemical_formula_sum              "La2 H36 C54 O18"
_cell_length_a       9.56047
_cell_length_b       11.9879
_cell_length_c       16.30087
_cell_angle_alpha    65.36238
_cell_angle_beta     86.26915999999999
_cell_angle_gamma    62.93552

_space_group_name_H-M_alt    "P 1"
_space_group_IT_number       1

loop_
  _space_group_symop_operation_xyz
  'x, y, z'

loop_
  _atom_site_type_symbol
  _atom_site_label
  _atom_site_symmetry_multiplicity
  _atom_site_fract_x
  _atom_site_fract_y
  _atom_site_fract_z
  _atom_site_occupancy
  La  La1       1.0  0.76738  0.5606299999999999  0.97434  1.0000
  La  La2       1.0  0.23397000000000004  0.43789999999999996  0.026420000000000003  1.0000
  H   H1        1.0  0.8965800000000002  0.25987000000000005  0.67486  1.0000
  H   H2        1.0  0.8556300000000001  0.3453600000000001  0.79419  1.0000
  H   H3        1.0  0.32946000000000014  0.2961999999999999  0.79698  1.0000
  H   H4        1.0  0.36635  0.22161999999999998  0.6715  1.0000
  H   H5        1.0  0.97109  0.9861  0.5616  1.0000
  H   H6        1.0  0.8530800000000001  0.8510999999999999  0.67106  1.0000
  H   H7        1.0  0.10927999999999995  0.82131  0.89334  1.0000
  H   H8        1.0  0.2201500000000001  0.96469  0.78313  1.0000
  H   H9        1.0  0.03863000000000004  0.3061599999999999  0.41779  1.0000
  H   H10       1.0  0.9705300000000002  0.43368  0.46244  1.0000
  H   H11       1.0  0.11158999999999998  0.43023  0.38504  1.0000
  H   H12       1.0  0.43049000000000004  0.9199  0.55553  1.0000
  H   H13       1.0  0.30576000000000014  0.8378299999999999  0.58622  1.0000
  H   H14       1.0  0.3312900000000001  0.91276  0.46927  1.0000
  H   H15       1.0  0.7404700000000001  0.4798799999999999  0.36477  1.0000
  H   H16       1.0  0.7595200000000002  0.44747999999999993  0.22237000000000007  1.0000
  H   H17       1.0  0.35176  0.37797  0.26204  1.0000
  H   H18       1.0  0.33340999999999993  0.4092800000000001  0.40557  1.0000
  H   H19       1.0  0.10508000000000015  0.7400699999999998  0.3245  1.0000
  H   H20       1.0  0.14508000000000001  0.65444  0.20524  1.0000
  H   H21       1.0  0.6713900000000004  0.7031999999999999  0.20362  1.0000
  H   H22       1.0  0.6358600000000001  0.77702  0.32941  1.0000
  H   H23       1.0  0.03126999999999999  0.011530000000000028  0.43894  1.0000
  H   H24       1.0  0.15022  0.14586  0.32954  1.0000
  H   H25       1.0  0.8916899999999998  0.17812  0.10707  1.0000
  H   H26       1.0  0.77946  0.03574999999999996  0.21724  1.0000
  H   H27       1.0  0.9637500000000001  0.6934799999999999  0.5822200000000001  1.0000
  H   H28       1.0  0.03253  0.56527  0.53814  1.0000
  H   H29       1.0  0.8913200000000001  0.56895  0.61551  1.0000
  H   H30       1.0  0.57119  0.07961999999999998  0.44522  1.0000
  H   H31       1.0  0.6962999999999999  0.16128000000000003  0.41439  1.0000
  H   H32       1.0  0.6712100000000001  0.08620000000000003  0.53139  1.0000
  H   H33       1.0  0.2607999999999999  0.5197300000000001  0.63566  1.0000
  H   H34       1.0  0.2424300000000001  0.5513599999999997  0.7783400000000003  1.0000
  H   H35       1.0  0.6497600000000001  0.62147  0.73843  1.0000
  H   H36       1.0  0.6678099999999999  0.59055  0.59472  1.0000
  C   C1        1.0  0.16317000000000004  0.19041999999999995  0.59128  1.0000
  C   C2        1.0  0.13429999999999997  0.23520000000000005  0.66521  1.0000
  C   C3        1.0  0.9908300000000003  0.26873  0.70096  1.0000
  C   C4        1.0  0.96837  0.31523  0.76848  1.0000
  C   C5        1.0  0.09001999999999995  0.32599000000000006  0.80316  1.0000
  C   C6        1.0  0.23508000000000004  0.2891299999999999  0.7691600000000001  1.0000
  C   C7        1.0  0.25558000000000003  0.24706  0.69965  1.0000
  C   C8        1.0  0.0629900000000001  0.38207999999999975  0.8723200000000002  1.0000
  C   C9        1.0  0.15585000000000007  0.07921000000000002  0.59262  1.0000
  C   C10       1.0  0.10036000000000019  0.9893399999999999  0.6637700000000002  1.0000
  C   C11       1.0  0.9999899999999998  0.95234  0.634  1.0000
  C   C12       1.0  0.9338500000000006  0.87554  0.69554  1.0000
  C   C13       1.0  0.97205  0.82858  0.78951  1.0000
  C   C14       1.0  0.07708000000000002  0.8600699999999998  0.8203400000000001  1.0000
  C   C15       1.0  0.13955  0.9406299999999999  0.75829  1.0000
  C   C16       1.0  0.90224  0.7446399999999999  0.85394  1.0000
  C   C17       1.0  0.07257000000000004  0.36560999999999994  0.44096  1.0000
  C   C18       1.0  0.3222100000000002  0.9229499999999998  0.5334  1.0000
  C   C19       1.0  0.5116600000000001  0.4829399999999998  0.4687600000000001  1.0000
  C   C20       1.0  0.5312700000000002  0.45248999999999995  0.39244  1.0000
  C   C21       1.0  0.6555400000000001  0.45810999999999996  0.34183  1.0000
  C   C22       1.0  0.6660800000000006  0.43987  0.26245  1.0000
  C   C23       1.0  0.55464  0.41401  0.23192  1.0000
  C   C24       1.0  0.43576000000000015  0.40106999999999987  0.2847000000000001  1.0000
  C   C25       1.0  0.42401  0.41997000000000007  0.36394  1.0000
  C   C26       1.0  0.56009  0.40479000000000004  0.14284  1.0000
  C   C27       1.0  0.65214  0.16366  0.66439  1.0000
  C   C28       1.0  0.8389500000000001  0.80844  0.40906000000000003  1.0000
  C   C29       1.0  0.8676300000000001  0.7640199999999999  0.33495000000000014  1.0000
  C   C30       1.0  0.010700000000000027  0.73094  0.29877  1.0000
  C   C31       1.0  0.03265  0.68442  0.23128  1.0000
  C   C32       1.0  0.9108299999999999  0.67348  0.19696  1.0000
  C   C33       1.0  0.7660300000000001  0.7101999999999999  0.23123  1.0000
  C   C34       1.0  0.7462199999999999  0.75197  0.30084  1.0000
  C   C35       1.0  0.93757  0.61712  0.12797  1.0000
  C   C36       1.0  0.8454900000000002  0.9199  0.40776  1.0000
  C   C37       1.0  0.90083  0.009769999999999977  0.33658  1.0000
  C   C38       1.0  0.0021600000000000204  0.045779999999999946  0.3664800000000001  1.0000
  C   C39       1.0  0.06875000000000006  0.1221499999999999  0.3049900000000001  1.0000
  C   C40       1.0  0.030070000000000017  0.16952999999999993  0.21101000000000006  1.0000
  C   C41       1.0  0.92408  0.13903  0.18009  1.0000
  C   C42       1.0  0.8610000000000001  0.05898  0.24207  1.0000
  C   C43       1.0  0.09993000000000003  0.25336000000000003  0.14655  1.0000
  C   C44       1.0  0.9302600000000001  0.6334400000000001  0.55945  1.0000
  C   C45       1.0  0.6798100000000002  0.07619999999999989  0.46722000000000014  1.0000
  C   C46       1.0  0.48965000000000003  0.5166399999999999  0.53162  1.0000
  C   C47       1.0  0.47010000000000013  0.5470699999999998  0.60795  1.0000
  C   C48       1.0  0.34592000000000017  0.5413  0.65862  1.0000
  C   C49       1.0  0.3356700000000001  0.55912  0.73813  1.0000
  C   C50       1.0  0.4472000000000003  0.5848199999999998  0.7687200000000001  1.0000
  C   C51       1.0  0.56584  0.59821  0.7158300000000001  1.0000
  C   C52       1.0  0.5773799999999999  0.57962  0.63646  1.0000
  C   C53       1.0  0.44166000000000005  0.59341  0.85802  1.0000
  C   C54       1.0  0.3531  0.8337600000000001  0.33599  1.0000
  O   O1        1.0  0.9188800000000003  0.4430799999999999  0.8848  1.0000
  O   O2        1.0  0.18293000000000012  0.3697499999999998  0.9128700000000002  1.0000
  O   O3        1.0  0.7618100000000002  0.7697799999999996  0.8339300000000002  1.0000
  O   O4        1.0  0.9884700000000002  0.64328  0.93119  1.0000
  O   O5        1.0  0.20545  0.27228  0.51508  1.0000
  O   O6        1.0  0.18605  0.05659000000000002  0.51512  1.0000
  O   O7        1.0  0.6526900000000001  0.4399  0.09056  1.0000
  O   O8        1.0  0.47109  0.36355  0.12258  1.0000
  O   O9        1.0  0.68573  0.1818  0.72216  1.0000
  O   O10       1.0  0.08172  0.55523  0.11584  1.0000
  O   O11       1.0  0.81734  0.63009  0.08727000000000001  1.0000
  O   O12       1.0  0.24099  0.22736000000000006  0.16601  1.0000
  O   O13       1.0  0.012840000000000056  0.3557499999999999  0.06980000000000001  1.0000
  O   O14       1.0  0.7974500000000004  0.7260599999999998  0.4853000000000001  1.0000
  O   O15       1.0  0.81557  0.9424  0.48528  1.0000
  O   O16       1.0  0.3489499999999999  0.55807  0.91011  1.0000
  O   O17       1.0  0.53053  0.6344  0.87869  1.0000
  O   O18       1.0  0.31982000000000016  0.8177299999999998  0.27701000000000003  1.0000
