data_image0
_chemical_formula_structural       Co4H50C64N8O18
_chemical_formula_sum              "Co4 H50 C64 N8 O18"
_cell_length_a       10.30605
_cell_length_b       10.343150000000001
_cell_length_c       18.35252
_cell_angle_alpha    100.26518
_cell_angle_beta     100.08332999999999
_cell_angle_gamma    95.69878

_space_group_name_H-M_alt    "P 1"
_space_group_IT_number       1

loop_
  _space_group_symop_operation_xyz
  'x, y, z'

loop_
  _atom_site_type_symbol
  _atom_site_label
  _atom_site_symmetry_multiplicity
  _atom_site_fract_x
  _atom_site_fract_y
  _atom_site_fract_z
  _atom_site_occupancy
  Co  Co1       1.0  0.49769  0.74991  0.78339  1.0000
  Co  Co2       1.0  0.24065999999999996  0.49928  0.71762  1.0000
  Co  Co3       1.0  0.5007299999999999  0.24074999999999994  0.21976  1.0000
  Co  Co4       1.0  0.7501600000000002  0.50279  0.28529  1.0000
  H   H1        1.0  0.69128  0.84855  0.02079  1.0000
  H   H2        1.0  0.37302  0.7724799999999999  0.53828  1.0000
  H   H3        1.0  0.6119599999999996  0.55242  0.01748  1.0000
  H   H4        1.0  0.78075  0.01549  0.28833  1.0000
  H   H5        1.0  0.7297299999999997  0.99474  0.14913  1.0000
  H   H6        1.0  0.78463  0.80766  0.34268  1.0000
  H   H7        1.0  0.6934199999999999  0.56924  0.13053  1.0000
  H   H8        1.0  0.9341799999999999  0.58834  0.42884  1.0000
  H   H9        1.0  0.34067  0.66712  0.4003  1.0000
  H   H10       1.0  0.09675  0.63083  0.53716  1.0000
  H   H11       1.0  0.009059999999999978  0.5372499999999998  0.21314  1.0000
  H   H12       1.0  0.25555  0.59859  0.26272  1.0000
  H   H13       1.0  0.1475  0.32752999999999993  0.48078000000000004  1.0000
  H   H14       1.0  0.21918999999999997  0.63056  0.95761  1.0000
  H   H15       1.0  0.45039  0.35972999999999994  0.489  1.0000
  H   H16       1.0  0.9862599999999999  0.21910999999999997  0.21464  1.0000
  H   H17       1.0  0.006080000000000007  0.27574  0.35391  1.0000
  H   H18       1.0  0.19563999999999995  0.20467999999999997  0.16113  1.0000
  H   H19       1.0  0.43295  0.3033799999999999  0.37331  1.0000
  H   H20       1.0  0.41878  0.06353  0.06993  1.0000
  H   H21       1.0  0.33191999999999994  0.65664  0.09355  1.0000
  H   H22       1.0  0.37955  0.8978999999999999  0.95948  1.0000
  H   H23       1.0  0.46079  0.98207  0.28388  1.0000
  H   H24       1.0  0.39594000000000007  0.7380199999999999  0.2322  1.0000
  H   H25       1.0  0.31562999999999997  0.15109  0.9794  1.0000
  H   H26       1.0  0.6424099999999999  0.22305999999999998  0.46502999999999994  1.0000
  H   H27       1.0  0.3742099999999998  0.4505399999999999  0.9851699999999999  1.0000
  H   H28       1.0  0.21681000000000003  0.9823199999999999  0.71303  1.0000
  H   H29       1.0  0.27096  0.005770000000000004  0.85245  1.0000
  H   H30       1.0  0.20568000000000008  0.18910999999999997  0.65783  1.0000
  H   H31       1.0  0.31331999999999993  0.43074  0.86878  1.0000
  H   H32       1.0  0.07075  0.43324999999999997  0.57109  1.0000
  H   H33       1.0  0.66679  0.34303  0.60165  1.0000
  H   H34       1.0  0.90007  0.39775  0.46329000000000004  1.0000
  H   H35       1.0  0.0027899999999999696  0.45671  0.78749  1.0000
  H   H36       1.0  0.7570099999999998  0.3957899999999999  0.7399799999999999  1.0000
  H   H37       1.0  0.85059  0.6981899999999999  0.52194  1.0000
  H   H38       1.0  0.77126  0.36552  0.03869  1.0000
  H   H39       1.0  0.5532699999999998  0.61331  0.51625  1.0000
  H   H40       1.0  0.012700000000000017  0.77796  0.79  1.0000
  H   H41       1.0  0.99592  0.73462  0.65108  1.0000
  H   H42       1.0  0.8018199999999999  0.7740999999999999  0.84284  1.0000
  H   H43       1.0  0.56786  0.69101  0.62976  1.0000
  H   H44       1.0  0.5834199999999999  0.92988  0.93002  1.0000
  H   H45       1.0  0.66167  0.33625  0.90346  1.0000
  H   H46       1.0  0.61982  0.09517  0.03917  1.0000
  H   H47       1.0  0.54417  0.005459999999999971  0.71505  1.0000
  H   H48       1.0  0.6039  0.25135  0.76534  1.0000
  H   H49       1.0  0.46396000000000004  0.50972  0.71049  1.0000
  H   H50       1.0  0.51122  0.47121  0.20927999999999997  1.0000
  C   C1        1.0  0.3016999999999999  0.7344799999999999  0.64026  1.0000
  C   C2        1.0  0.67563  0.75999  0.04438  1.0000
  C   C3        1.0  0.28777  0.7288  0.55744  1.0000
  C   C4        1.0  0.63017  0.6431599999999998  0.9964000000000001  1.0000
  C   C5        1.0  0.60308  0.62245  0.91236  1.0000
  C   C6        1.0  0.7617099999999999  0.91797  0.2515  1.0000
  C   C7        1.0  0.73364  0.9057799999999999  0.17317  1.0000
  C   C8        1.0  0.7065399999999997  0.77888  0.12673  1.0000
  C   C9        1.0  0.7634199999999998  0.80422  0.28215  1.0000
  C   C10       1.0  0.7107699999999998  0.66997  0.16286  1.0000
  C   C11       1.0  0.009160000000000005  0.5947599999999998  0.39431  1.0000
  C   C12       1.0  0.14307999999999998  0.6374999999999998  0.42767  1.0000
  C   C13       1.0  0.23402999999999993  0.64197  0.37904  1.0000
  C   C14       1.0  0.17546  0.66635  0.50986  1.0000
  C   C15       1.0  0.050539999999999995  0.5668  0.27329  1.0000
  C   C16       1.0  0.18659999999999993  0.60353  0.30144  1.0000
  C   C17       1.0  0.27142999999999995  0.69457  0.85675  1.0000
  C   C18       1.0  0.23891999999999994  0.32699  0.45857  1.0000
  C   C19       1.0  0.2702  0.7119299999999998  0.9386400000000001  1.0000
  C   C20       1.0  0.35604  0.35848  0.50806  1.0000
  C   C21       1.0  0.37065  0.39881  0.59101  1.0000
  C   C22       1.0  0.08369999999999998  0.23599999999999996  0.25167  1.0000
  C   C23       1.0  0.09517999999999997  0.26753  0.32987  1.0000
  C   C24       1.0  0.22214999999999996  0.29249  0.37651999999999997  1.0000
  C   C25       1.0  0.19834999999999997  0.22819  0.22157  1.0000
  C   C26       1.0  0.332  0.28425  0.3409  1.0000
  C   C27       1.0  0.40867999999999993  0.98768  0.10338  1.0000
  C   C28       1.0  0.36379999999999996  0.8547199999999998  0.06865  1.0000
  C   C29       1.0  0.35682  0.76256  0.11618  1.0000
  C   C30       1.0  0.33710999999999997  0.8224  0.9864300000000001  1.0000
  C   C31       1.0  0.4318699999999997  0.94254  0.22347  1.0000
  C   C32       1.0  0.39318999999999993  0.80749  0.19405  1.0000
  C   C33       1.0  0.69798  0.27297  0.36176  1.0000
  C   C34       1.0  0.32460000000000006  0.24042000000000008  0.9558200000000001  1.0000
  C   C35       1.0  0.71941  0.27821  0.44461  1.0000
  C   C36       1.0  0.36228  0.35752  0.00474  1.0000
  C   C37       1.0  0.39548  0.37172  0.08814  1.0000
  C   C38       1.0  0.23609999999999998  0.08041000000000001  0.74932  1.0000
  C   C39       1.0  0.26647999999999994  0.09390000000000001  0.82768  1.0000
  C   C40       1.0  0.2941  0.22133999999999998  0.87356  1.0000
  C   C41       1.0  0.23111999999999996  0.19391  0.71841  1.0000
  C   C42       1.0  0.29072  0.32968  0.83696  1.0000
  C   C43       1.0  0.99735  0.42014999999999997  0.60585  1.0000
  C   C44       1.0  0.8631199999999999  0.3768  0.57333  1.0000
  C   C45       1.0  0.7737299999999999  0.36637999999999993  0.62249  1.0000
  C   C46       1.0  0.8278299999999998  0.35158999999999996  0.49107999999999996  1.0000
  C   C47       1.0  0.9596499999999999  0.43311  0.7275  1.0000
  C   C48       1.0  0.82352  0.39683  0.70005  1.0000
  C   C49       1.0  0.72715  0.30155  0.14131  1.0000
  C   C50       1.0  0.76142  0.67974  0.545  1.0000
  C   C51       1.0  0.7237  0.28362  0.05876  1.0000
  C   C52       1.0  0.64508  0.6343399999999998  0.49624999999999997  1.0000
  C   C53       1.0  0.62698  0.61259  0.41251  1.0000
  C   C54       1.0  0.91548  0.7586799999999999  0.75263  1.0000
  C   C55       1.0  0.90551  0.735  0.6744  1.0000
  C   C56       1.0  0.7789099999999999  0.7075000000000001  0.62733  1.0000
  C   C57       1.0  0.80016  0.7564799999999999  0.78245  1.0000
  C   C58       1.0  0.66837  0.70797  0.66259  1.0000
  C   C59       1.0  0.5922899999999998  0.004849999999999989  0.89589  1.0000
  C   C60       1.0  0.6334899999999999  0.13854  0.92971  1.0000
  C   C61       1.0  0.6398599999999999  0.22979000000000005  0.88165  1.0000
  C   C62       1.0  0.65913  0.17165  0.0118  1.0000
  C   C63       1.0  0.5710999999999999  0.04687  0.77529  1.0000
  C   C64       1.0  0.6065299999999998  0.18258999999999995  0.8039  1.0000
  N   N1        1.0  0.7384  0.6812299999999999  0.23804  1.0000
  N   N2        1.0  0.96229  0.5628099999999999  0.31946  1.0000
  N   N3        1.0  0.32136  0.25154  0.26586  1.0000
  N   N4        1.0  0.43938  0.03205  0.17855  1.0000
  N   N5        1.0  0.25808  0.31738  0.76187  1.0000
  N   N6        1.0  0.04612000000000001  0.44454  0.68068  1.0000
  N   N7        1.0  0.67747  0.73221  0.73768  1.0000
  N   N8        1.0  0.5639799999999999  0.95859  0.82094  1.0000
  O   O1        1.0  0.41533000000000014  0.79228  0.68051  1.0000
  O   O2        1.0  0.6022699999999999  0.72898  0.88342  1.0000
  O   O3        1.0  0.58456  0.50592  0.87597  1.0000
  O   O4        1.0  0.20711999999999994  0.68113  0.66519  1.0000
  O   O5        1.0  0.20750999999999997  0.5849  0.81526  1.0000
  O   O6        1.0  0.26252999999999993  0.40394  0.61775  1.0000
  O   O7        1.0  0.48762999999999995  0.42807999999999996  0.62985  1.0000
  O   O8        1.0  0.33631999999999995  0.7845199999999999  0.83304  1.0000
  O   O9        1.0  0.59094  0.2019  0.32207  1.0000
  O   O10       1.0  0.39004  0.26592  0.1161  1.0000
  O   O11       1.0  0.42889999999999995  0.48871  0.1268  1.0000
  O   O12       1.0  0.7835799999999998  0.33906  0.33541  1.0000
  O   O13       1.0  0.7924999999999999  0.41044  0.18193  1.0000
  O   O14       1.0  0.7356499999999998  0.60897  0.38483  1.0000
  O   O15       1.0  0.5120299999999999  0.60108  0.37472  1.0000
  O   O16       1.0  0.66393  0.21075999999999998  0.16551  1.0000
  O   O17       1.0  0.41626999999999986  0.56513  0.74548  1.0000
  O   O18       1.0  0.56611  0.42817  0.2466  1.0000
