data_image0
_chemical_formula_structural       Ag4H40C48N24
_chemical_formula_sum              "Ag4 H40 C48 N24"
_cell_length_a       10.36766
_cell_length_b       10.378779999999999
_cell_length_c       16.42416
_cell_angle_alpha    108.50122000000002
_cell_angle_beta     108.25964999999998
_cell_angle_gamma    98.32644

_space_group_name_H-M_alt    "P 1"
_space_group_IT_number       1

loop_
  _space_group_symop_operation_xyz
  'x, y, z'

loop_
  _atom_site_type_symbol
  _atom_site_label
  _atom_site_symmetry_multiplicity
  _atom_site_fract_x
  _atom_site_fract_y
  _atom_site_fract_z
  _atom_site_occupancy
  Ag  Ag1       1.0  0.48812  0.37488  0.62206  1.0000
  Ag  Ag2       1.0  0.62498  0.51114  0.87775  1.0000
  Ag  Ag3       1.0  0.5118800000000001  0.62512  0.37794  1.0000
  Ag  Ag4       1.0  0.37502  0.48886  0.12225  1.0000
  H   H1        1.0  0.4960400000000001  0.15623000000000004  0.4072900000000001  1.0000
  H   H2        1.0  0.74362  0.88126  0.48714  1.0000
  H   H3        1.0  0.81444  0.04489000000000013  0.6528500000000003  1.0000
  H   H4        1.0  0.72471  0.2599199999999999  0.68619  1.0000
  H   H5        1.0  0.41613999999999984  0.69419  0.82728  1.0000
  H   H6        1.0  0.3398100000000002  0.8966400000000001  0.9112600000000002  1.0000
  H   H7        1.0  0.39644000000000007  0.9656999999999998  0.08150000000000002  1.0000
  H   H8        1.0  0.60382  0.63105  0.06944  1.0000
  H   H9        1.0  0.6926799999999999  0.12903999999999996  0.31753  1.0000
  H   H10       1.0  0.53174  0.14188  0.27496  1.0000
  H   H11       1.0  0.8440799999999999  0.50497  0.09324  1.0000
  H   H12       1.0  0.11837999999999999  0.25616  0.01218  1.0000
  H   H13       1.0  0.9549800000000002  0.18533999999999995  0.84676  1.0000
  H   H14       1.0  0.7403199999999999  0.27544  0.81411  1.0000
  H   H15       1.0  0.30504  0.58385  0.6725  1.0000
  H   H16       1.0  0.10314999999999992  0.66041  0.58913  1.0000
  H   H17       1.0  0.03463  0.6037799999999999  0.41899  1.0000
  H   H18       1.0  0.3687699999999999  0.39577999999999997  0.4299  1.0000
  H   H19       1.0  0.87107  0.30756  0.18255  1.0000
  H   H20       1.0  0.8581999999999999  0.46858999999999995  0.22538  1.0000
  H   H21       1.0  0.50396  0.8437699999999999  0.59271  1.0000
  H   H22       1.0  0.25638  0.11873  0.51286  1.0000
  H   H23       1.0  0.18556  0.9551099999999998  0.3471500000000001  1.0000
  H   H24       1.0  0.27529  0.74007  0.31381  1.0000
  H   H25       1.0  0.58386  0.30581  0.17272  1.0000
  H   H26       1.0  0.66019  0.10336  0.08874  1.0000
  H   H27       1.0  0.60356  0.03429000000000004  0.9185  1.0000
  H   H28       1.0  0.39617999999999987  0.36895  0.93056  1.0000
  H   H29       1.0  0.30732  0.8709599999999998  0.68247  1.0000
  H   H30       1.0  0.46826  0.85812  0.72504  1.0000
  H   H31       1.0  0.15592  0.49503  0.90676  1.0000
  H   H32       1.0  0.8816199999999998  0.7438399999999998  0.98782  1.0000
  H   H33       1.0  0.04502  0.81465  0.15324  1.0000
  H   H34       1.0  0.25968  0.7245599999999999  0.18589  1.0000
  H   H35       1.0  0.69496  0.41615  0.3275  1.0000
  H   H36       1.0  0.89685  0.33958  0.41087  1.0000
  H   H37       1.0  0.96537  0.39620999999999995  0.58101  1.0000
  H   H38       1.0  0.6312300000000001  0.60421  0.5701000000000002  1.0000
  H   H39       1.0  0.12892999999999985  0.6924399999999998  0.81745  1.0000
  H   H40       1.0  0.14180999999999996  0.5314099999999999  0.77462  1.0000
  C   C1        1.0  0.569  0.12918  0.45919  1.0000
  C   C2        1.0  0.6163099999999999  0.006350000000000013  0.43169  1.0000
  C   C3        1.0  0.70527  0.97455  0.50468  1.0000
  C   C4        1.0  0.74497  0.06555000000000001  0.59606  1.0000
  C   C5        1.0  0.69365  0.18448  0.61553  1.0000
  C   C6        1.0  0.43716  0.7258299999999999  0.9009400000000001  1.0000
  C   C7        1.0  0.3953300000000002  0.83871  0.9487  1.0000
  C   C8        1.0  0.42871  0.87847  0.0436  1.0000
  C   C9        1.0  0.5022799999999998  0.8014299999999998  0.08995  1.0000
  C   C10       1.0  0.54345  0.69063  0.03622  1.0000
  C   C11       1.0  0.57453  0.9113799999999999  0.33739  1.0000
  C   C12       1.0  0.53241  0.82279  0.18524  1.0000
  C   C13       1.0  0.8710100000000001  0.43163  0.04117  1.0000
  C   C14       1.0  0.99366  0.3840899999999999  0.06834  1.0000
  C   C15       1.0  0.025230000000000113  0.2947100000000001  0.9950300000000002  1.0000
  C   C16       1.0  0.93439  0.25498  0.90377  1.0000
  C   C17       1.0  0.8156400000000001  0.30651  0.88467  1.0000
  C   C18       1.0  0.2737  0.56272  0.59888  1.0000
  C   C19       1.0  0.16111999999999999  0.60477  0.55147  1.0000
  C   C20       1.0  0.12163000000000002  0.5714  0.45661  1.0000
  C   C21       1.0  0.19852000000000003  0.49748999999999993  0.40988  1.0000
  C   C22       1.0  0.30912  0.45623  0.46331  1.0000
  C   C23       1.0  0.08855  0.42578  0.16254  1.0000
  C   C24       1.0  0.17708  0.46742  0.31453  1.0000
  C   C25       1.0  0.431  0.8708199999999999  0.54081  1.0000
  C   C26       1.0  0.38369  0.9936399999999999  0.56831  1.0000
  C   C27       1.0  0.29473  0.025439999999999973  0.49532  1.0000
  C   C28       1.0  0.25503  0.9344399999999999  0.40394  1.0000
  C   C29       1.0  0.30634999999999996  0.8155199999999999  0.38447  1.0000
  C   C30       1.0  0.56284  0.27416999999999997  0.09906  1.0000
  C   C31       1.0  0.60467  0.16127999999999998  0.0513  1.0000
  C   C32       1.0  0.5712900000000002  0.12152000000000014  0.9564000000000002  1.0000
  C   C33       1.0  0.49772  0.19857  0.91005  1.0000
  C   C34       1.0  0.45655  0.30936999999999987  0.96378  1.0000
  C   C35       1.0  0.42547  0.08862  0.66261  1.0000
  C   C36       1.0  0.46759  0.17720999999999992  0.81476  1.0000
  C   C37       1.0  0.12898999999999994  0.56836  0.95883  1.0000
  C   C38       1.0  0.006340000000000067  0.61591  0.93166  1.0000
  C   C39       1.0  0.97477  0.70528  0.00497  1.0000
  C   C40       1.0  0.06561000000000002  0.74501  0.09623000000000001  1.0000
  C   C41       1.0  0.18435999999999994  0.6934799999999999  0.11533  1.0000
  C   C42       1.0  0.7263000000000001  0.4372700000000001  0.40112000000000003  1.0000
  C   C43       1.0  0.83888  0.39523  0.44853  1.0000
  C   C44       1.0  0.8783699999999999  0.4285999999999999  0.54339  1.0000
  C   C45       1.0  0.80148  0.5025  0.59012  1.0000
  C   C46       1.0  0.69088  0.54377  0.53669  1.0000
  C   C47       1.0  0.9114499999999999  0.5742200000000001  0.8374600000000001  1.0000
  C   C48       1.0  0.8229200000000003  0.53257  0.68547  1.0000
  N   N1        1.0  0.60562  0.21501999999999993  0.54752  1.0000
  N   N2        1.0  0.51273  0.65416  0.94529  1.0000
  N   N3        1.0  0.54491  0.7196199999999998  0.21722  1.0000
  N   N4        1.0  0.5721  0.77344  0.31022  1.0000
  N   N5        1.0  0.54495  0.94615  0.25831  1.0000
  N   N6        1.0  0.59841  0.08205  0.26148  1.0000
  N   N7        1.0  0.7852  0.39481000000000016  0.9529600000000003  1.0000
  N   N8        1.0  0.34537  0.48693  0.55424  1.0000
  N   N9        1.0  0.28019  0.45491999999999994  0.28222  1.0000
  N   N10       1.0  0.22638999999999998  0.42801  0.18933  1.0000
  N   N11       1.0  0.053830000000000024  0.45523  0.24181000000000005  1.0000
  N   N12       1.0  0.91784  0.40188  0.23873  1.0000
  N   N13       1.0  0.39438  0.7849699999999998  0.45248  1.0000
  N   N14       1.0  0.4872699999999999  0.34583  0.05471  1.0000
  N   N15       1.0  0.45509000000000016  0.28038  0.7827800000000003  1.0000
  N   N16       1.0  0.42790999999999996  0.22655999999999996  0.68978  1.0000
  N   N17       1.0  0.45505  0.053839999999999985  0.74169  1.0000
  N   N18       1.0  0.40159  0.91795  0.73852  1.0000
  N   N19       1.0  0.21479999999999996  0.6051899999999999  0.04704  1.0000
  N   N20       1.0  0.65464  0.51307  0.44576000000000005  1.0000
  N   N21       1.0  0.71981  0.54507  0.71778  1.0000
  N   N22       1.0  0.77361  0.5719899999999999  0.8106700000000002  1.0000
  N   N23       1.0  0.94618  0.5447699999999999  0.75819  1.0000
  N   N24       1.0  0.08215000000000008  0.59812  0.7612700000000002  1.0000
