data_image0
_chemical_formula_structural       Cd2H40C52N8O12
_chemical_formula_sum              "Cd2 H40 C52 N8 O12"
_cell_length_a       9.28068
_cell_length_b       12.76755
_cell_length_c       12.3248
_cell_angle_alpha    109.83214
_cell_angle_beta     105.64827
_cell_angle_gamma    98.1077

_space_group_name_H-M_alt    "P 1"
_space_group_IT_number       1

loop_
  _space_group_symop_operation_xyz
  'x, y, z'

loop_
  _atom_site_type_symbol
  _atom_site_label
  _atom_site_symmetry_multiplicity
  _atom_site_fract_x
  _atom_site_fract_y
  _atom_site_fract_z
  _atom_site_occupancy
  Cd  Cd1       1.0  0.011659999999999986  0.39698  0.58258  1.0000
  Cd  Cd2       1.0  0.98835  0.6030199999999999  0.41742  1.0000
  H   H1        1.0  0.62101  0.36117  0.45109999999999995  1.0000
  H   H2        1.0  0.41994000000000004  0.16003999999999996  0.25922  1.0000
  H   H3        1.0  0.88128  0.12742  0.33751  1.0000
  H   H4        1.0  0.37606  0.9551  0.21361  1.0000
  H   H5        1.0  0.27691  0.76343  0.04273999999999999  1.0000
  H   H6        1.0  0.67855  0.82726  0.93909  1.0000
  H   H7        1.0  0.77524  0.021109999999999997  0.10752  1.0000
  H   H8        1.0  0.16568  0.65778  0.83095  1.0000
  H   H9        1.0  0.62364  0.6245399999999999  0.86487  1.0000
  H   H10       1.0  0.41004999999999997  0.43205  0.67124  1.0000
  H   H11       1.0  0.04157999999999996  0.047150000000000004  0.63011  1.0000
  H   H12       1.0  0.22681999999999997  0.13644  0.73296  1.0000
  H   H13       1.0  0.4087299999999999  0.24444999999999995  0.69649  1.0000
  H   H14       1.0  0.20659999999999998  0.8478799999999997  0.40777  1.0000
  H   H15       1.0  0.68322  0.29444999999999993  0.71028  1.0000
  H   H16       1.0  0.68046  0.6679099999999999  0.63112  1.0000
  H   H17       1.0  0.85581  0.7402499999999997  0.62793  1.0000
  H   H18       1.0  0.8190399999999999  0.8982699999999999  0.67076  1.0000
  H   H19       1.0  0.9064899999999999  0.11118999999999998  0.76465  1.0000
  H   H20       1.0  0.03398999999999995  0.21646999999999988  0.9890199999999999  1.0000
  H   H21       1.0  0.37899  0.6388299999999998  0.5489  1.0000
  H   H22       1.0  0.5800699999999998  0.8399599999999998  0.7407800000000001  1.0000
  H   H23       1.0  0.11872999999999992  0.8725899999999998  0.6625  1.0000
  H   H24       1.0  0.62395  0.04489999999999998  0.7864  1.0000
  H   H25       1.0  0.7230999999999999  0.23657999999999996  0.9572699999999998  1.0000
  H   H26       1.0  0.32145999999999997  0.17273999999999995  0.060910000000000006  1.0000
  H   H27       1.0  0.22476999999999983  0.9788999999999994  0.89248  1.0000
  H   H28       1.0  0.83433  0.3422199999999999  0.16906  1.0000
  H   H29       1.0  0.37637  0.37546  0.13513  1.0000
  H   H30       1.0  0.5899599999999999  0.5679599999999999  0.32877  1.0000
  H   H31       1.0  0.9584199999999999  0.95285  0.36988999999999994  1.0000
  H   H32       1.0  0.77318  0.86357  0.26704  1.0000
  H   H33       1.0  0.5912799999999999  0.7555499999999998  0.30351  1.0000
  H   H34       1.0  0.79341  0.15211999999999998  0.59224  1.0000
  H   H35       1.0  0.31678999999999996  0.7055499999999998  0.28972  1.0000
  H   H36       1.0  0.31955  0.33208999999999994  0.36888  1.0000
  H   H37       1.0  0.14418999999999998  0.2597499999999999  0.37206999999999996  1.0000
  H   H38       1.0  0.18097  0.10172999999999997  0.32925  1.0000
  H   H39       1.0  0.09351999999999994  0.8888099999999998  0.23536  1.0000
  H   H40       1.0  0.96602  0.78353  0.01099  1.0000
  C   C1        1.0  0.64416  0.28238  0.399  1.0000
  C   C2        1.0  0.54392  0.18475999999999998  0.30461  1.0000
  C   C3        1.0  0.78537  0.16604999999999998  0.34169  1.0000
  C   C4        1.0  0.5804500000000001  0.0004700000000000036  0.17023  1.0000
  C   C5        1.0  0.44009  0.92837  0.15157  1.0000
  C   C6        1.0  0.38465999999999995  0.8201399999999998  0.05552  1.0000
  C   C7        1.0  0.4709099999999999  0.7839499999999998  0.9789699999999999  1.0000
  C   C8        1.0  0.6125199999999998  0.85548  0.99907  1.0000
  C   C9        1.0  0.66725  0.96439  0.09436999999999998  1.0000
  C   C10       1.0  0.25953  0.62134  0.8132  1.0000
  C   C11       1.0  0.49845999999999996  0.6025199999999998  0.82853  1.0000
  C   C12       1.0  0.3917  0.50809  0.73351  1.0000
  C   C13       1.0  0.10325000000000001  0.20454  0.60874  1.0000
  C   C14       1.0  0.14739  0.10393  0.63777  1.0000
  C   C15       1.0  0.36085999999999996  0.07013  0.56635  1.0000
  C   C16       1.0  0.454  0.17991999999999994  0.64225  1.0000
  C   C17       1.0  0.42024999999999985  0.9846899999999997  0.49461999999999995  1.0000
  C   C18       1.0  0.32685999999999993  0.872  0.41557999999999995  1.0000
  C   C19       1.0  0.61048  0.20800999999999997  0.65048  1.0000
  C   C20       1.0  0.86769  0.58609  0.6596  1.0000
  C   C21       1.0  0.8075099999999997  0.6935099999999997  0.67511  1.0000
  C   C22       1.0  0.8988499999999999  0.8803899999999998  0.84401  1.0000
  C   C23       1.0  0.87566  0.94181  0.76975  1.0000
  C   C24       1.0  0.9260699999999998  0.06361999999999998  0.82345  1.0000
  C   C25       1.0  0.9973099999999999  0.12295999999999992  0.9484999999999999  1.0000
  C   C26       1.0  0.9759  0.9383399999999997  0.9741899999999999  1.0000
  C   C27       1.0  0.35584999999999994  0.7176199999999999  0.60101  1.0000
  C   C28       1.0  0.45608999999999994  0.81524  0.6954  1.0000
  C   C29       1.0  0.21464  0.8339599999999998  0.65831  1.0000
  C   C30       1.0  0.41955  0.9995299999999999  0.82977  1.0000
  C   C31       1.0  0.55991  0.07163  0.84843  1.0000
  C   C32       1.0  0.61535  0.17986  0.94449  1.0000
  C   C33       1.0  0.5291  0.21605  0.02103  1.0000
  C   C34       1.0  0.38747999999999994  0.14452  0.00093  1.0000
  C   C35       1.0  0.3327599999999999  0.03560999999999995  0.90563  1.0000
  C   C36       1.0  0.7404799999999998  0.3786599999999999  0.1868  1.0000
  C   C37       1.0  0.50155  0.39748  0.17147  1.0000
  C   C38       1.0  0.6083099999999999  0.49191999999999997  0.2665  1.0000
  C   C39       1.0  0.8967499999999999  0.7954599999999997  0.39126  1.0000
  C   C40       1.0  0.85262  0.89608  0.36223  1.0000
  C   C41       1.0  0.63915  0.9298799999999998  0.43365  1.0000
  C   C42       1.0  0.54601  0.82008  0.35775  1.0000
  C   C43       1.0  0.57976  0.015310000000000013  0.50539  1.0000
  C   C44       1.0  0.67315  0.128  0.58442  1.0000
  C   C45       1.0  0.38953000000000004  0.79199  0.34952  1.0000
  C   C46       1.0  0.13230999999999998  0.41390999999999994  0.3404  1.0000
  C   C47       1.0  0.1925  0.30649  0.32489  1.0000
  C   C48       1.0  0.10115999999999999  0.11960999999999998  0.156  1.0000
  C   C49       1.0  0.12434999999999997  0.058189999999999985  0.23025999999999996  1.0000
  C   C50       1.0  0.07392999999999993  0.9363799999999997  0.17655  1.0000
  C   C51       1.0  0.0026999999999999997  0.8770399999999999  0.0515  1.0000
  C   C52       1.0  0.02411  0.061659999999999986  0.02582  1.0000
  N   N1        1.0  0.7935999999999999  0.26956  0.42133999999999994  1.0000
  N   N2        1.0  0.63491  0.11146999999999997  0.26783  1.0000
  N   N3        1.0  0.41296999999999995  0.6741899999999997  0.87926  1.0000
  N   N4        1.0  0.24398999999999996  0.5210699999999999  0.7251  1.0000
  N   N5        1.0  0.20640999999999998  0.7304499999999999  0.57866  1.0000
  N   N6        1.0  0.3651  0.8885299999999998  0.73218  1.0000
  N   N7        1.0  0.58704  0.32581  0.12074  1.0000
  N   N8        1.0  0.75602  0.47892999999999997  0.2749  1.0000
  O   O1        1.0  0.12772  0.22180999999999998  0.51926  1.0000
  O   O2        1.0  0.04228999999999999  0.26591999999999993  0.67984  1.0000
  O   O3        1.0  0.88161  0.5375999999999999  0.55355  1.0000
  O   O4        1.0  0.8996200000000002  0.5497099999999999  0.7431100000000002  1.0000
  O   O5        1.0  0.84951  0.76298  0.80413  1.0000
  O   O6        1.0  0.20912  0.03190999999999998  0.55464  1.0000
  O   O7        1.0  0.8722899999999999  0.77819  0.48074  1.0000
  O   O8        1.0  0.9577099999999998  0.7340799999999997  0.32016  1.0000
  O   O9        1.0  0.11839999999999999  0.4624099999999999  0.44645  1.0000
  O   O10       1.0  0.10038999999999995  0.45028999999999997  0.2569  1.0000
  O   O11       1.0  0.15049  0.23701999999999995  0.19588  1.0000
  O   O12       1.0  0.79089  0.9681  0.44536  1.0000
