data_image0
_chemical_formula_structural       Zn4H36C80S2N8O20
_chemical_formula_sum              "Zn4 H36 C80 S2 N8 O20"
_cell_length_a       12.1029
_cell_length_b       12.10492
_cell_length_c       14.020509999999998
_cell_angle_alpha    87.33039
_cell_angle_beta     87.36285000000001
_cell_angle_gamma    71.83537

_space_group_name_H-M_alt    "P 1"
_space_group_IT_number       1

loop_
  _space_group_symop_operation_xyz
  'x, y, z'

loop_
  _atom_site_type_symbol
  _atom_site_label
  _atom_site_symmetry_multiplicity
  _atom_site_fract_x
  _atom_site_fract_y
  _atom_site_fract_z
  _atom_site_occupancy
  Zn  Zn1       1.0  0.31019  0.22365999999999997  0.3464599999999999  1.0000
  Zn  Zn2       1.0  0.77602  0.6900399999999998  0.15326  1.0000
  Zn  Zn3       1.0  0.68981  0.77634  0.65354  1.0000
  Zn  Zn4       1.0  0.22398000000000004  0.30996  0.84674  1.0000
  H   H1        1.0  0.17624000000000004  0.60049  0.29844  1.0000
  H   H2        1.0  0.21064000000000008  0.8099199999999998  0.04840999999999999  1.0000
  H   H3        1.0  0.23128999999999997  0.63868  0.94693  1.0000
  H   H4        1.0  0.07853  0.21037  0.29352999999999996  1.0000
  H   H5        1.0  0.94074  0.10567  0.35385  1.0000
  H   H6        1.0  0.1587900000000001  0.9899599999999997  0.59844  1.0000
  H   H7        1.0  0.28925  0.09225  0.52601  1.0000
  H   H8        1.0  0.22664  0.09910999999999999  0.18762999999999994  1.0000
  H   H9        1.0  0.29819  0.03282  0.025699999999999997  1.0000
  H   H10       1.0  0.39925000000000005  0.8237099999999998  0.20136  1.0000
  H   H11       1.0  0.19008999999999998  0.78938  0.4514  1.0000
  H   H12       1.0  0.3613600000000001  0.7688099999999999  0.55295  1.0000
  H   H13       1.0  0.78946  0.9214099999999998  0.20625  1.0000
  H   H14       1.0  0.89421  0.059219999999999995  0.14602  1.0000
  H   H15       1.0  0.010029999999999985  0.8413  0.90152  1.0000
  H   H16       1.0  0.9076500000000001  0.7108699999999998  0.9738699999999998  1.0000
  H   H17       1.0  0.90045  0.77346  0.3123599999999999  1.0000
  H   H18       1.0  0.96686  0.70181  0.47432999999999986  1.0000
  H   H19       1.0  0.8237700000000001  0.39950999999999987  0.70156  1.0000
  H   H20       1.0  0.78936  0.19007999999999997  0.95159  1.0000
  H   H21       1.0  0.76872  0.3613199999999999  0.05307  1.0000
  H   H22       1.0  0.9214700000000001  0.78964  0.7064699999999998  1.0000
  H   H23       1.0  0.05927000000000008  0.8943399999999999  0.64615  1.0000
  H   H24       1.0  0.8412100000000001  0.010050000000000002  0.40155  1.0000
  H   H25       1.0  0.71076  0.90775  0.47398  1.0000
  H   H26       1.0  0.77336  0.9008899999999997  0.81237  1.0000
  H   H27       1.0  0.7018200000000006  0.96718  0.9742999999999999  1.0000
  H   H28       1.0  0.60075  0.1763  0.79863  1.0000
  H   H29       1.0  0.80991  0.21061999999999995  0.54859  1.0000
  H   H30       1.0  0.6386400000000002  0.23119  0.44705  1.0000
  H   H31       1.0  0.21054  0.0786  0.79375  1.0000
  H   H32       1.0  0.10579000000000006  0.9407799999999997  0.85398  1.0000
  H   H33       1.0  0.98997  0.15869999999999998  0.09848  1.0000
  H   H34       1.0  0.09235000000000002  0.28913999999999995  0.02613  1.0000
  H   H35       1.0  0.09955000000000004  0.22654999999999995  0.68764  1.0000
  H   H36       1.0  0.03314  0.2982  0.52567  1.0000
  C   C1        1.0  0.20369000000000007  0.39985999999999994  0.21592999999999998  1.0000
  C   C2        1.0  0.20155000000000003  0.5133  0.16519  1.0000
  C   C3        1.0  0.18705000000000002  0.6097299999999999  0.22138  1.0000
  C   C4        1.0  0.18759000000000003  0.71607  0.17845  1.0000
  C   C5        1.0  0.2068900000000001  0.7274299999999998  0.07992999999999997  1.0000
  C   C6        1.0  0.21853000000000003  0.63213  0.024  1.0000
  C   C7        1.0  0.21489000000000005  0.52542  0.06527  1.0000
  C   C8        1.0  0.23338  0.4255499999999999  0.00021999999999999995  1.0000
  C   C9        1.0  0.09333000000000001  0.15701  0.35931  1.0000
  C   C10       1.0  0.01641999999999999  0.09955  0.39495  1.0000
  C   C11       1.0  0.03841000000000001  0.033650000000000006  0.4811899999999999  1.0000
  C   C12       1.0  0.13730000000000003  0.0344  0.5295  1.0000
  C   C13       1.0  0.21201  0.09185  0.48929  1.0000
  C   C14       1.0  0.31629999999999997  0.08745999999999998  0.16509999999999997  1.0000
  C   C15       1.0  0.35691  0.051049999999999984  0.07453  1.0000
  C   C16       1.0  0.47662  0.035649999999999994  0.04335  1.0000
  C   C17       1.0  0.55738  0.02241  0.12662  1.0000
  C   C18       1.0  0.48708000000000007  0.10523  0.18794999999999995  1.0000
  C   C19       1.0  0.51681  0.14991  0.04669  1.0000
  C   C20       1.0  0.53315  0.18922999999999995  0.13013  1.0000
  C   C21       1.0  0.6000200000000001  0.79647  0.28394  1.0000
  C   C22       1.0  0.4865999999999999  0.79862  0.33463  1.0000
  C   C23       1.0  0.39016  0.8129  0.27844  1.0000
  C   C24       1.0  0.28390000000000004  0.8122799999999999  0.32141999999999993  1.0000
  C   C25       1.0  0.27260000000000006  0.7931099999999998  0.4199599999999999  1.0000
  C   C26       1.0  0.36794  0.7816199999999999  0.4758799999999999  1.0000
  C   C27       1.0  0.47456000000000004  0.7854199999999998  0.43459  1.0000
  C   C28       1.0  0.57448  0.76718  0.49963999999999986  1.0000
  C   C29       1.0  0.84286  0.90666  0.14052  1.0000
  C   C30       1.0  0.9003700000000001  0.9835599999999998  0.10493  1.0000
  C   C31       1.0  0.96633  0.9615999999999998  0.01877  1.0000
  C   C32       1.0  0.96558  0.86276  0.97043  1.0000
  C   C33       1.0  0.9080800000000001  0.7880599999999998  0.01059  1.0000
  C   C34       1.0  0.9122900000000002  0.6837499999999999  0.33486  1.0000
  C   C35       1.0  0.94874  0.6430999999999999  0.42545  1.0000
  C   C36       1.0  0.96433  0.5233699999999999  0.45662  1.0000
  C   C37       1.0  0.97761  0.44268  0.37334999999999996  1.0000
  C   C38       1.0  0.89475  0.51296  0.31197  1.0000
  C   C39       1.0  0.85008  0.48307000000000005  0.4532699999999999  1.0000
  C   C40       1.0  0.81084  0.46676999999999996  0.36978  1.0000
  C   C41       1.0  0.7963200000000001  0.60014  0.78407  1.0000
  C   C42       1.0  0.79845  0.4867  0.83481  1.0000
  C   C43       1.0  0.8129499999999998  0.39027  0.77862  1.0000
  C   C44       1.0  0.81242  0.28393  0.82155  1.0000
  C   C45       1.0  0.79311  0.27257999999999993  0.92007  1.0000
  C   C46       1.0  0.78147  0.36787999999999993  0.9759999999999998  1.0000
  C   C47       1.0  0.78512  0.4745799999999999  0.93473  1.0000
  C   C48       1.0  0.76662  0.57445  0.9997799999999999  1.0000
  C   C49       1.0  0.9066700000000001  0.8429899999999999  0.64069  1.0000
  C   C50       1.0  0.98359  0.90046  0.60505  1.0000
  C   C51       1.0  0.9616000000000001  0.9663499999999999  0.51881  1.0000
  C   C52       1.0  0.8627100000000001  0.9655999999999998  0.47048999999999996  1.0000
  C   C53       1.0  0.78799  0.9081599999999997  0.51071  1.0000
  C   C54       1.0  0.6837  0.9125399999999998  0.8349  1.0000
  C   C55       1.0  0.64309  0.94896  0.92547  1.0000
  C   C56       1.0  0.5233900000000001  0.9643599999999998  0.9566399999999998  1.0000
  C   C57       1.0  0.4426200000000002  0.9775899999999997  0.87338  1.0000
  C   C58       1.0  0.51292  0.89477  0.81205  1.0000
  C   C59       1.0  0.48319  0.85009  0.95331  1.0000
  C   C60       1.0  0.46685000000000004  0.8107799999999998  0.86987  1.0000
  C   C61       1.0  0.39998  0.20353  0.71606  1.0000
  C   C62       1.0  0.5134  0.20138999999999996  0.66537  1.0000
  C   C63       1.0  0.60985  0.18710999999999997  0.72155  1.0000
  C   C64       1.0  0.7161000000000001  0.18773  0.67858  1.0000
  C   C65       1.0  0.7274000000000003  0.20689  0.5800399999999998  1.0000
  C   C66       1.0  0.6320699999999999  0.21837999999999996  0.52412  1.0000
  C   C67       1.0  0.52544  0.21457999999999997  0.5654099999999999  1.0000
  C   C68       1.0  0.42552  0.23282  0.50036  1.0000
  C   C69       1.0  0.15714  0.09335  0.85948  1.0000
  C   C70       1.0  0.09963000000000001  0.01645000000000001  0.8950699999999998  1.0000
  C   C71       1.0  0.033679999999999974  0.0384  0.98123  1.0000
  C   C72       1.0  0.034419999999999985  0.13725  0.02957  1.0000
  C   C73       1.0  0.09192000000000007  0.21193999999999993  0.9894  1.0000
  C   C74       1.0  0.08772000000000006  0.31624999999999986  0.66514  1.0000
  C   C75       1.0  0.05126000000000002  0.3569  0.57455  1.0000
  C   C76       1.0  0.03567999999999999  0.47663  0.54338  1.0000
  C   C77       1.0  0.022389999999999997  0.55732  0.6266499999999998  1.0000
  C   C78       1.0  0.10525000000000002  0.4870499999999999  0.68803  1.0000
  C   C79       1.0  0.14992999999999998  0.51693  0.54673  1.0000
  C   C80       1.0  0.18917000000000003  0.53323  0.63022  1.0000
  S   S1        1.0  0.1604  0.8394799999999999  0.24997  1.0000
  S   S2        1.0  0.8396  0.16051999999999997  0.75003  1.0000
  N   N1        1.0  0.19149  0.15074  0.40441  1.0000
  N   N2        1.0  0.38403000000000004  0.11751  0.22943  1.0000
  N   N3        1.0  0.84914  0.80855  0.09541  1.0000
  N   N4        1.0  0.88236  0.61604  0.27047  1.0000
  N   N5        1.0  0.80852  0.8492599999999998  0.5955799999999999  1.0000
  N   N6        1.0  0.6159800000000001  0.8824899999999998  0.7705699999999999  1.0000
  N   N7        1.0  0.15087000000000006  0.19144999999999998  0.9045899999999998  1.0000
  N   N8        1.0  0.11764000000000006  0.3839699999999999  0.7295299999999999  1.0000
  O   O1        1.0  0.27107000000000003  0.37799  0.28891  1.0000
  O   O2        1.0  0.14438  0.33947999999999995  0.19033999999999995  1.0000
  O   O3        1.0  0.30366999999999994  0.32804  0.01939  1.0000
  O   O4        1.0  0.17318000000000006  0.45131999999999994  0.9230799999999998  1.0000
  O   O5        1.0  0.15569  0.93958  0.18526  1.0000
  O   O6        1.0  0.62193  0.7289799999999999  0.21106999999999995  1.0000
  O   O7        1.0  0.66042  0.85575  0.3095399999999999  1.0000
  O   O8        1.0  0.67201  0.6969599999999998  0.48057  1.0000
  O   O9        1.0  0.5487500000000002  0.82744  0.5766999999999999  1.0000
  O   O10       1.0  0.06031999999999998  0.84443  0.31461  1.0000
  O   O11       1.0  0.7289400000000001  0.6220099999999998  0.71109  1.0000
  O   O12       1.0  0.85563  0.6605199999999999  0.80966  1.0000
  O   O13       1.0  0.6963299999999999  0.6719700000000001  0.9806099999999999  1.0000
  O   O14       1.0  0.82682  0.54868  0.07692  1.0000
  O   O15       1.0  0.8443199999999998  0.060430000000000005  0.8147299999999997  1.0000
  O   O16       1.0  0.3780700000000001  0.27102  0.7889299999999999  1.0000
  O   O17       1.0  0.33958  0.14426  0.69046  1.0000
  O   O18       1.0  0.32798999999999995  0.30304  0.51943  1.0000
  O   O19       1.0  0.45125  0.17256  0.4232999999999999  1.0000
  O   O20       1.0  0.93968  0.15557  0.68538  1.0000
