data_image0
_chemical_formula_structural       Cd4H44C76N4O16
_chemical_formula_sum              "Cd4 H44 C76 N4 O16"
_cell_length_a       10.74679
_cell_length_b       12.56052
_cell_length_c       12.5624
_cell_angle_alpha    92.13689
_cell_angle_beta     92.96542
_cell_angle_gamma    92.92841

_space_group_name_H-M_alt    "P 1"
_space_group_IT_number       1

loop_
  _space_group_symop_operation_xyz
  'x, y, z'

loop_
  _atom_site_type_symbol
  _atom_site_label
  _atom_site_symmetry_multiplicity
  _atom_site_fract_x
  _atom_site_fract_y
  _atom_site_fract_z
  _atom_site_occupancy
  Cd  Cd1       1.0  0.75027  0.14121  0.85895  1.0000
  Cd  Cd2       1.0  0.5  0.0  0.0  1.0000
  Cd  Cd3       1.0  0.24974  0.85879  0.14106  1.0000
  Cd  Cd4       1.0  0.0  0.0  0.0  1.0000
  H   H1        1.0  0.00385  0.17034000000000005  0.42554999999999993  1.0000
  H   H2        1.0  0.01607  0.09754000000000003  0.75846  1.0000
  H   H3        1.0  0.51907  0.70023  0.67591  1.0000
  H   H4        1.0  0.48421  0.24170000000000005  0.9025099999999999  1.0000
  H   H5        1.0  0.66241  0.41137  0.11144999999999998  1.0000
  H   H6        1.0  0.1287  0.8919500000000002  0.69824  1.0000
  H   H7        1.0  0.31679000000000007  0.8174600000000001  0.38447  1.0000
  H   H8        1.0  0.45651  0.7761300000000001  0.8508599999999998  1.0000
  H   H9        1.0  0.02319  0.56391  0.07897  1.0000
  H   H10       1.0  0.019040000000000012  0.6758600000000002  0.7002299999999999  1.0000
  H   H11       1.0  0.54349  0.22387  0.14914  1.0000
  H   H12       1.0  0.9564200000000002  0.8508400000000003  0.77613  1.0000
  H   H13       1.0  0.62881  0.6982800000000001  0.89193  1.0000
  H   H14       1.0  0.97682  0.4360900000000001  0.92103  1.0000
  H   H15       1.0  0.51579  0.7583000000000001  0.0975  1.0000
  H   H16       1.0  0.8713  0.10805  0.30177  1.0000
  H   H17       1.0  0.8863299999999998  0.39789000000000013  0.09221  1.0000
  H   H18       1.0  0.33759999999999996  0.5886200000000001  0.88855  1.0000
  H   H19       1.0  0.50374  0.4254  0.17039999999999997  1.0000
  H   H20       1.0  0.61377  0.9078100000000001  0.60207  1.0000
  H   H21       1.0  0.49626  0.5746000000000001  0.82961  1.0000
  H   H22       1.0  0.68321  0.18254000000000004  0.61553  1.0000
  H   H23       1.0  0.38364  0.71847  0.51252  1.0000
  H   H24       1.0  0.3862300000000001  0.09219000000000002  0.39793  1.0000
  H   H25       1.0  0.9809599999999999  0.32414  0.29978  1.0000
  H   H26       1.0  0.61637  0.28153  0.4874899999999999  1.0000
  H   H27       1.0  0.8837000000000002  0.5124700000000001  0.7184700000000002  1.0000
  H   H28       1.0  0.37119  0.30172  0.10807000000000001  1.0000
  H   H29       1.0  0.99615  0.8296600000000002  0.57446  1.0000
  H   H30       1.0  0.18305  0.61559  0.18252  1.0000
  H   H31       1.0  0.79015  0.8918000000000003  0.24336999999999998  1.0000
  H   H32       1.0  0.47657  0.92101  0.43615  1.0000
  H   H33       1.0  0.8169499999999998  0.38441  0.81748  1.0000
  H   H34       1.0  0.16235  0.11142  0.4116  1.0000
  H   H35       1.0  0.11366999999999998  0.6021000000000002  0.9078  1.0000
  H   H36       1.0  0.20985000000000004  0.10820000000000003  0.75664  1.0000
  H   H37       1.0  0.8376499999999999  0.8885800000000001  0.58841  1.0000
  H   H38       1.0  0.48093  0.29977  0.3241  1.0000
  H   H39       1.0  0.52343  0.07899  0.56386  1.0000
  H   H40       1.0  0.29073000000000004  0.24352  0.89177  1.0000
  H   H41       1.0  0.70927  0.7564700000000002  0.10824  1.0000
  H   H42       1.0  0.04358  0.14916  0.22388  1.0000
  H   H43       1.0  0.1163  0.48753  0.28153  1.0000
  H   H44       1.0  0.98393  0.9024600000000002  0.24154  1.0000
  C   C1        1.0  0.7545399999999999  0.19381  0.40711  1.0000
  C   C2        1.0  0.4243  0.08965  0.56829  1.0000
  C   C3        1.0  0.5757  0.9103400000000003  0.43172  1.0000
  C   C4        1.0  0.21160000000000004  0.84663  0.6923100000000001  1.0000
  C   C5        1.0  0.33209  0.5044100000000001  0.17503  1.0000
  C   C6        1.0  0.54173  0.9206600000000003  0.23427  1.0000
  C   C7        1.0  0.7796700000000001  0.8915400000000002  0.51528  1.0000
  C   C8        1.0  0.95982  0.15925  0.50046  1.0000
  C   C9        1.0  0.1524  0.52377  0.90284  1.0000
  C   C10       1.0  0.75475  0.12341000000000002  0.10927  1.0000
  C   C11       1.0  0.83292  0.8851500000000002  0.41511  1.0000
  C   C12       1.0  0.24554999999999996  0.10566  0.6770500000000002  1.0000
  C   C13       1.0  0.45967  0.50033  0.15927  1.0000
  C   C14       1.0  0.74527  0.8907800000000001  0.87656  1.0000
  C   C15       1.0  0.25473  0.32303  0.89434  1.0000
  C   C16       1.0  0.8565700000000002  0.58846  0.75182  1.0000
  C   C17       1.0  0.71441  0.16615  0.21465  1.0000
  C   C18       1.0  0.71168  0.6923400000000001  0.84662  1.0000
  C   C19       1.0  0.9582599999999999  0.76568  0.07919  1.0000
  C   C20       1.0  0.12681  0.33125  0.90761  1.0000
  C   C21       1.0  0.66693  0.58474  0.11487  1.0000
  C   C22       1.0  0.04018000000000001  0.8407500000000001  0.49954  1.0000
  C   C23       1.0  0.031200000000000002  0.8784200000000002  0.3147  1.0000
  C   C24       1.0  0.7884000000000001  0.15337  0.3077  1.0000
  C   C25       1.0  0.65236  0.9028700000000002  0.52371  1.0000
  C   C26       1.0  0.22033  0.10846000000000001  0.48473  1.0000
  C   C27       1.0  0.60285  0.21840000000000004  0.22115  1.0000
  C   C28       1.0  0.4321  0.74053  0.68066  1.0000
  C   C29       1.0  0.25444  0.40708000000000005  0.19384999999999997  1.0000
  C   C30       1.0  0.14343  0.4115300000000001  0.24818  1.0000
  C   C31       1.0  0.9321  0.68063  0.74051  1.0000
  C   C32       1.0  0.27972  0.5154400000000001  0.89151  1.0000
  C   C33       1.0  0.46856  0.6851600000000002  0.12153999999999998  1.0000
  C   C34       1.0  0.35652  0.75186  0.58848  1.0000
  C   C35       1.0  0.34764  0.09712  0.47629  1.0000
  C   C36       1.0  0.71924  0.3954  0.83099  1.0000
  C   C37       1.0  0.5679  0.2594700000000001  0.31935  1.0000
  C   C38       1.0  0.28076  0.6046000000000001  0.16901  1.0000
  C   C39       1.0  0.16776000000000002  0.8250000000000002  0.49553  1.0000
  C   C40       1.0  0.9688  0.12158  0.6853  1.0000
  C   C41       1.0  0.37344  0.09246000000000003  0.66871  1.0000
  C   C42       1.0  0.53161  0.5904100000000001  0.13133  1.0000
  C   C43       1.0  0.21906  0.8309800000000003  0.39536  1.0000
  C   C44       1.0  0.28832  0.30766  0.15338  1.0000
  C   C45       1.0  0.16708  0.11484  0.5849  1.0000
  C   C46       1.0  0.78094  0.16902  0.60464  1.0000
  C   C47       1.0  0.45826999999999996  0.07934  0.7657400000000001  1.0000
  C   C48       1.0  0.24525  0.8765800000000001  0.89074  1.0000
  C   C49       1.0  0.8971200000000001  0.7788300000000001  0.78159  1.0000
  C   C50       1.0  0.62656  0.90754  0.3313  1.0000
  C   C51       1.0  0.28559  0.8338500000000002  0.78536  1.0000
  C   C52       1.0  0.7455599999999999  0.59292  0.80616  1.0000
  C   C53       1.0  0.8322399999999999  0.175  0.50447  1.0000
  C   C54       1.0  0.25474  0.10922  0.12344  1.0000
  C   C55       1.0  0.87319  0.6687500000000001  0.09239  1.0000
  C   C56       1.0  0.92408  0.56829  0.08965  1.0000
  C   C57       1.0  0.24546000000000004  0.80619  0.59289  1.0000
  C   C58       1.0  0.46839  0.40958  0.86868  1.0000
  C   C59       1.0  0.54033  0.49967  0.84073  1.0000
  C   C60       1.0  0.03179  0.13133  0.59058  1.0000
  C   C61       1.0  0.0679  0.31937  0.2595  1.0000
  C   C62       1.0  0.39714999999999995  0.7815900000000001  0.77886  1.0000
  C   C63       1.0  0.66791  0.49559  0.82497  1.0000
  C   C64       1.0  0.72028  0.48456  0.10849  1.0000
  C   C65       1.0  0.78563  0.7853700000000002  0.8338599999999999  1.0000
  C   C66       1.0  0.96821  0.86867  0.40942000000000006  1.0000
  C   C67       1.0  0.21438  0.21463000000000004  0.16615000000000002  1.0000
  C   C68       1.0  0.10288  0.22116  0.21842  1.0000
  C   C69       1.0  0.64348  0.24814  0.41152  1.0000
  C   C70       1.0  0.07592  0.4317100000000001  0.91036  1.0000
  C   C71       1.0  0.75445  0.8943400000000001  0.32296  1.0000
  C   C72       1.0  0.53144  0.31484000000000006  0.87846  1.0000
  C   C73       1.0  0.04173999999999999  0.23432000000000006  0.9208099999999999  1.0000
  C   C74       1.0  0.33308  0.4152600000000001  0.8851299999999999  1.0000
  C   C75       1.0  0.74528  0.67697  0.10566  1.0000
  C   C76       1.0  0.8476  0.47623  0.09715999999999998  1.0000
  N   N1        1.0  0.15224000000000001  0.8571  0.30772  1.0000
  N   N2        1.0  0.34754  0.69221  0.14284  1.0000
  N   N3        1.0  0.84777  0.14290000000000003  0.69228  1.0000
  N   N4        1.0  0.65246  0.30779  0.85717  1.0000
  O   O1        1.0  0.82443  0.9717900000000003  0.8723399999999999  1.0000
  O   O2        1.0  0.5932500000000002  0.9297400000000001  0.14507  1.0000
  O   O3        1.0  0.86316  0.09021000000000003  0.10657  1.0000
  O   O4        1.0  0.42556999999999995  0.92103  0.24817  1.0000
  O   O5        1.0  0.07438  0.75154  0.07882  1.0000
  O   O6        1.0  0.9069900000000002  0.85505  0.07026  1.0000
  O   O7        1.0  0.92562  0.24845000000000003  0.92118  1.0000
  O   O8        1.0  0.36306  0.10649  0.0902  1.0000
  O   O9        1.0  0.40675  0.07026  0.85493  1.0000
  O   O10       1.0  0.63695  0.8935100000000002  0.9098  1.0000
  O   O11       1.0  0.57443  0.07896999999999998  0.7518399999999998  1.0000
  O   O12       1.0  0.17557  0.028210000000000006  0.12766  1.0000
  O   O13       1.0  0.13685  0.90979  0.89344  1.0000
  O   O14       1.0  0.32438  0.8724  0.9718  1.0000
  O   O15       1.0  0.67562  0.1276  0.0282  1.0000
  O   O16       1.0  0.09301000000000001  0.14495000000000002  0.9297399999999999  1.0000
