data_image0
_chemical_formula_structural       Cd6H30C24N54
_chemical_formula_sum              "Cd6 H30 C24 N54"
_cell_length_a       11.62205
_cell_length_b       12.75382
_cell_length_c       12.752710000000002
_cell_angle_alpha    111.18982
_cell_angle_beta     107.68876
_cell_angle_gamma    107.68245000000002

_symmetry_space_group_name_H-M    'P 1'
_symmetry_Int_Tables_number       1

loop_
  _symmetry_equiv_pos_as_xyz
  'x,y,z'

loop_
  _atom_site_type_symbol
  _atom_site_label
  _atom_site_symmetry_multiplicity
  _atom_site_fract_x
  _atom_site_fract_y
  _atom_site_fract_z
  _atom_site_occupancy
  Cd  Cd1       1.0  0.7629400000000001  0.9422100000000002  0.44338  1.0000
  Cd  Cd2       1.0  0.31965  0.55657  0.49871000000000004  1.0000
  Cd  Cd3       1.0  0.82083  0.50136  0.057890000000000004  1.0000
  Cd  Cd4       1.0  0.23706  0.05779  0.55662  1.0000
  Cd  Cd5       1.0  0.6803499999999998  0.44343  0.50129  1.0000
  Cd  Cd6       1.0  0.17917000000000005  0.49864000000000014  0.9421100000000001  1.0000
  H   H1        1.0  0.37705  0.43964000000000003  0.2463  1.0000
  H   H2        1.0  0.25045  0.31172000000000005  0.09540000000000001  1.0000
  H   H3        1.0  0.55102  0.59874  0.12882  1.0000
  H   H4        1.0  0.54075  0.60392  0.26485  1.0000
  H   H5        1.0  0.3857499999999999  0.40809  0.03888  1.0000
  H   H6        1.0  0.13103999999999996  0.75397  0.19337  1.0000
  H   H7        1.0  0.15523  0.90483  0.21643  1.0000
  H   H8        1.0  0.42224999999999996  0.87104  0.46968  1.0000
  H   H9        1.0  0.27601  0.73524  0.33898  1.0000
  H   H10       1.0  0.34693999999999997  0.96138  0.36939  1.0000
  H   H11       1.0  0.9377600000000003  0.80668  0.56048  1.0000
  H   H12       1.0  0.9390799999999999  0.78386  0.6884200000000001  1.0000
  H   H13       1.0  0.9523  0.53005  0.40132000000000007  1.0000
  H   H14       1.0  0.9367199999999997  0.66077  0.39594  1.0000
  H   H15       1.0  0.9776799999999997  0.63076  0.59197  1.0000
  H   H16       1.0  0.62294  0.56035  0.75369  1.0000
  H   H17       1.0  0.7495399999999999  0.6882700000000002  0.9046000000000001  1.0000
  H   H18       1.0  0.44897  0.40125999999999995  0.87118  1.0000
  H   H19       1.0  0.45924  0.39607000000000003  0.73515  1.0000
  H   H20       1.0  0.61424  0.59191  0.96111  1.0000
  H   H21       1.0  0.8689599999999998  0.24603000000000003  0.80663  1.0000
  H   H22       1.0  0.84476  0.09515999999999998  0.7835700000000001  1.0000
  H   H23       1.0  0.5777400000000001  0.12896000000000005  0.53032  1.0000
  H   H24       1.0  0.72399  0.26476  0.66101  1.0000
  H   H25       1.0  0.65306  0.038610000000000005  0.6306  1.0000
  H   H26       1.0  0.06223999999999999  0.19332  0.43951  1.0000
  H   H27       1.0  0.06091  0.21614  0.31157  1.0000
  H   H28       1.0  0.04770000000000002  0.46995000000000003  0.59868  1.0000
  H   H29       1.0  0.06326999999999999  0.33923  0.60406  1.0000
  H   H30       1.0  0.022309999999999997  0.36924  0.40803  1.0000
  C   C1        1.0  0.29874999999999996  0.41556000000000004  0.1549  1.0000
  C   C2        1.0  0.48322  0.59448  0.17286  1.0000
  C   C3        1.0  0.19318  0.45136  0.17503  1.0000
  C   C4        1.0  0.45377  0.70445  0.19335  1.0000
  C   C5        1.0  0.144  0.84528  0.26070000000000004  1.0000
  C   C6        1.0  0.31043  0.8271600000000001  0.42155  1.0000
  C   C7        1.0  0.018310000000000035  0.82522  0.27634  1.0000
  C   C8        1.0  0.26063  0.8067300000000001  0.51112  1.0000
  C   C9        1.0  0.88347  0.73943  0.58458  1.0000
  C   C10       1.0  0.88874  0.57834  0.40558000000000005  1.0000
  C   C11       1.0  0.7421699999999998  0.72382  0.5488500000000001  1.0000
  C   C12       1.0  0.7493699999999998  0.48886  0.29566  1.0000
  C   C13       1.0  0.70125  0.58444  0.84509  1.0000
  C   C14       1.0  0.51678  0.4055200000000001  0.8271300000000001  1.0000
  C   C15       1.0  0.8068100000000002  0.54863  0.82497  1.0000
  C   C16       1.0  0.5462200000000001  0.2955400000000002  0.8066500000000001  1.0000
  C   C17       1.0  0.85599  0.15472  0.7393  1.0000
  C   C18       1.0  0.68956  0.17284  0.57845  1.0000
  C   C19       1.0  0.98168  0.17478  0.72366  1.0000
  C   C20       1.0  0.7393599999999999  0.19327000000000003  0.48888000000000004  1.0000
  C   C21       1.0  0.11652000000000004  0.26056000000000007  0.41541000000000006  1.0000
  C   C22       1.0  0.11125000000000006  0.42166000000000003  0.5944200000000001  1.0000
  C   C23       1.0  0.25782000000000005  0.27618000000000004  0.45114000000000004  1.0000
  C   C24       1.0  0.25062  0.51114  0.70434  1.0000
  N   N1        1.0  0.35832  0.47065  0.08814  1.0000
  N   N2        1.0  0.17868000000000003  0.48201000000000005  0.28139  1.0000
  N   N3        1.0  0.06708  0.50005  0.25784  1.0000
  N   N4        1.0  0.018040000000000014  0.48216000000000003  0.14156  1.0000
  N   N5        1.0  0.09421999999999998  0.45066  0.08635  1.0000
  N   N6        1.0  0.3347000000000001  0.6938400000000002  0.12199  1.0000
  N   N7        1.0  0.34815999999999997  0.8133  0.1655  1.0000
  N   N8        1.0  0.47111  0.89328  0.26093  1.0000
  N   N9        1.0  0.54039  0.82706  0.28023  1.0000
  N   N10       1.0  0.27024000000000004  0.9119300000000001  0.38256  1.0000
  N   N11       1.0  0.8975100000000003  0.7188500000000001  0.20063000000000003  1.0000
  N   N12       1.0  0.8094  0.74232  0.24215000000000003  1.0000
  N   N13       1.0  0.87656  0.8585900000000001  0.34051  1.0000
  N   N14       1.0  0.007969999999999967  0.91387  0.36425  1.0000
  N   N15       1.0  0.21269000000000005  0.87794  0.5716900000000001  1.0000
  N   N16       1.0  0.18284999999999998  0.8345800000000001  0.64781  1.0000
  N   N17       1.0  0.2107  0.73936  0.63265  1.0000
  N   N18       1.0  0.26065  0.72004  0.5471  1.0000
  N   N19       1.0  0.88772  0.6175  0.52944  1.0000
  N   N20       1.0  0.69702  0.7995400000000001  0.51825  1.0000
  N   N21       1.0  0.5673199999999999  0.75781  0.50006  1.0000
  N   N22       1.0  0.5361400000000001  0.6593200000000001  0.51777  1.0000
  N   N23       1.0  0.64389  0.63568  0.54933  1.0000
  N   N24       1.0  0.64085  0.42797  0.30615  1.0000
  N   N25       1.0  0.5349500000000001  0.35201000000000005  0.18662000000000004  1.0000
  N   N26       1.0  0.57797  0.36765  0.10673  1.0000
  N   N27       1.0  0.7134299999999999  0.45327  0.17306  1.0000
  N   N28       1.0  0.64167  0.52934  0.91186  1.0000
  N   N29       1.0  0.82131  0.51798  0.71861  1.0000
  N   N30       1.0  0.93291  0.4999500000000001  0.74216  1.0000
  N   N31       1.0  0.98195  0.5178300000000001  0.8584400000000001  1.0000
  N   N32       1.0  0.9057699999999997  0.54934  0.91365  1.0000
  N   N33       1.0  0.66529  0.30616000000000015  0.8780100000000001  1.0000
  N   N34       1.0  0.65183  0.1867  0.8344900000000001  1.0000
  N   N35       1.0  0.5288900000000001  0.10671000000000007  0.7390700000000001  1.0000
  N   N36       1.0  0.45959999999999995  0.17294  0.71977  1.0000
  N   N37       1.0  0.72975  0.08807  0.61744  1.0000
  N   N38       1.0  0.10248000000000007  0.28115000000000007  0.7993700000000001  1.0000
  N   N39       1.0  0.19060000000000002  0.25767000000000007  0.7578400000000001  1.0000
  N   N40       1.0  0.12343000000000001  0.14141000000000006  0.65948  1.0000
  N   N41       1.0  0.99202  0.08612000000000002  0.63574  1.0000
  N   N42       1.0  0.7873099999999998  0.12205999999999997  0.42831  1.0000
  N   N43       1.0  0.8171399999999998  0.16542000000000004  0.35218  1.0000
  N   N44       1.0  0.7892899999999999  0.26063  0.36734  1.0000
  N   N45       1.0  0.73934  0.27996  0.4529  1.0000
  N   N46       1.0  0.11227000000000001  0.3825000000000001  0.47056  1.0000
  N   N47       1.0  0.30297  0.20046  0.48174  1.0000
  N   N48       1.0  0.43267  0.24218000000000003  0.49994  1.0000
  N   N49       1.0  0.46384999999999993  0.34068000000000004  0.48223  1.0000
  N   N50       1.0  0.35610000000000014  0.36431000000000013  0.45066000000000006  1.0000
  N   N51       1.0  0.3591399999999999  0.57203  0.69385  1.0000
  N   N52       1.0  0.46504  0.64798  0.81338  1.0000
  N   N53       1.0  0.42202  0.63235  0.89327  1.0000
  N   N54       1.0  0.28656  0.54673  0.8269400000000001  1.0000
