data_image0
_chemical_formula_structural       Cd3H28C44O28
_chemical_formula_sum              "Cd3 H28 C44 O28"
_cell_length_a       13.13706
_cell_length_b       12.51983
_cell_length_c       17.10317
_cell_angle_alpha    96.44548
_cell_angle_beta     89.59838
_cell_angle_gamma    122.79341999999998

_symmetry_space_group_name_H-M    'P 1'
_symmetry_Int_Tables_number       1

loop_
  _symmetry_equiv_pos_as_xyz
  'x,y,z'

loop_
  _atom_site_type_symbol
  _atom_site_label
  _atom_site_symmetry_multiplicity
  _atom_site_fract_x
  _atom_site_fract_y
  _atom_site_fract_z
  _atom_site_occupancy
  Cd  Cd1       1.0  0.26895  0.52865  0.9687000000000001  1.0000
  Cd  Cd2       1.0  0.74127  0.46663  0.030400000000000003  1.0000
  Cd  Cd3       1.0  0.46203  0.0002800000000000032  0.4984700000000001  1.0000
  H   H1        1.0  0.10768999999999998  0.8351599999999999  0.6416100000000001  1.0000
  H   H2        1.0  0.36841  0.78793  0.75726  1.0000
  H   H3        1.0  0.025470000000000104  0.6571300000000002  0.8574400000000002  1.0000
  H   H4        1.0  0.85151  0.56399  0.7907900000000001  1.0000
  H   H5        1.0  0.98516  0.39098000000000005  0.8539  1.0000
  H   H6        1.0  0.87138  0.2256  0.60834  1.0000
  H   H7        1.0  0.64308  0.2987  0.75501  1.0000
  H   H8        1.0  0.3254600000000001  0.42059  0.7850600000000002  1.0000
  H   H9        1.0  0.23636000000000001  0.29598  0.70631  1.0000
  H   H10       1.0  0.28589  0.45799  0.69736  1.0000
  H   H11       1.0  0.15616999999999995  0.45744  0.8030700000000002  1.0000
  H   H12       1.0  0.69997  0.62097  0.82581  1.0000
  H   H13       1.0  0.7406300000000002  0.7159700000000001  0.7439600000000002  1.0000
  H   H14       1.0  0.6641  0.54231  0.72927  1.0000
  H   H15       1.0  0.26799  0.17158  0.36549  1.0000
  H   H16       1.0  0.57308  0.20902000000000004  0.24569000000000005  1.0000
  H   H17       1.0  0.37246000000000007  0.34917  0.14963000000000004  1.0000
  H   H18       1.0  0.28804000000000013  0.43764000000000014  0.21045000000000005  1.0000
  H   H19       1.0  0.58673  0.60043  0.14594000000000001  1.0000
  H   H20       1.0  0.6434599999999999  0.7762099999999998  0.3893900000000001  1.0000
  H   H21       1.0  0.3423299999999999  0.7012599999999998  0.24187  1.0000
  H   H22       1.0  0.89358  0.57039  0.21551  1.0000
  H   H23       1.0  0.9314400000000002  0.69393  0.2949000000000001  1.0000
  H   H24       1.0  0.81327  0.53178  0.30298  1.0000
  H   H25       1.0  0.68627  0.53385  0.19821000000000003  1.0000
  H   H26       1.0  0.07344999999999997  0.37593  0.18329  1.0000
  H   H27       1.0  0.026400000000000024  0.29057000000000005  0.26967000000000013  1.0000
  H   H28       1.0  0.12707000000000004  0.46399  0.2771  1.0000
  C   C1        1.0  0.22993000000000005  0.6601900000000002  0.8739100000000002  1.0000
  C   C2        1.0  0.33285000000000003  0.8767300000000001  0.62906  1.0000
  C   C3        1.0  0.10409  0.27723  0.84247  1.0000
  C   C4        1.0  0.13377  0.80335  0.68981  1.0000
  C   C5        1.0  0.2799900000000002  0.7758500000000002  0.7545  1.0000
  C   C6        1.0  0.98318  0.82476  0.9881  1.0000
  C   C7        1.0  0.79232  0.39976999999999996  0.8891400000000003  1.0000
  C   C8        1.0  0.08540999999999993  0.70097  0.81066  1.0000
  C   C9        1.0  0.19932000000000008  0.7166  0.81257  1.0000
  C   C10       1.0  0.94406  0.31215  0.72876  1.0000
  C   C11       1.0  0.81461  0.35161  0.81137  1.0000
  C   C12       1.0  0.05660000000000004  0.7448  0.7488  1.0000
  C   C13       1.0  0.84629  0.63924  0.76821  1.0000
  C   C14       1.0  0.748  0.25617  0.67525  1.0000
  C   C15       1.0  0.9219700000000001  0.35478  0.80263  1.0000
  C   C16       1.0  0.8562  0.26189  0.66508  1.0000
  C   C17       1.0  0.64895  0.19065  0.61053  1.0000
  C   C18       1.0  0.72786  0.30381  0.74782  1.0000
  C   C19       1.0  0.25412000000000007  0.3860600000000001  0.7382100000000003  1.0000
  C   C20       1.0  0.24730999999999995  0.8181699999999998  0.6928600000000001  1.0000
  C   C21       1.0  0.14041  0.36635  0.7749600000000001  1.0000
  C   C22       1.0  0.73268  0.63301  0.7656000000000002  1.0000
  C   C23       1.0  0.56589  0.33403  0.12649  1.0000
  C   C24       1.0  0.4482  0.12351  0.37397  1.0000
  C   C25       1.0  0.82019  0.71393  0.15858000000000005  1.0000
  C   C26       1.0  0.32729  0.20263  0.31688  1.0000
  C   C27       1.0  0.49926  0.22457999999999997  0.24908  1.0000
  C   C28       1.0  0.19772  0.19575  0.01963  1.0000
  C   C29       1.0  0.38845  0.5988  0.10879000000000003  1.0000
  C   C30       1.0  0.38592  0.30412  0.19561  1.0000
  C   C31       1.0  0.48085  0.28405  0.19116000000000005  1.0000
  C   C32       1.0  0.6254900000000001  0.68313  0.27055  1.0000
  C   C33       1.0  0.45876  0.64578  0.18673  1.0000
  C   C34       1.0  0.31216  0.26236  0.25832  1.0000
  C   C35       1.0  0.20809000000000002  0.36536  0.23746  1.0000
  C   C36       1.0  0.48915  0.74419  0.3221  1.0000
  C   C37       1.0  0.5609700000000001  0.63961  0.19638  1.0000
  C   C38       1.0  0.59057  0.73769  0.33312000000000014  1.0000
  C   C39       1.0  0.45400999999999997  0.8092399999999998  0.38512  1.0000
  C   C40       1.0  0.4214  0.69585  0.24957  1.0000
  C   C41       1.0  0.8567900000000002  0.60436  0.26258000000000004  1.0000
  C   C42       1.0  0.4237  0.18468000000000004  0.31194  1.0000
  C   C43       1.0  0.76447  0.62487  0.22609  1.0000
  C   C44       1.0  0.10047000000000002  0.37074  0.24326000000000003  1.0000
  O   O1        1.0  0.32785  0.66197  0.8692700000000002  1.0000
  O   O2        1.0  0.17629000000000003  0.33251  0.90537  1.0000
  O   O3        1.0  0.05953000000000005  0.8993  0.03605  1.0000
  O   O4        1.0  0.43717999999999996  0.8964899999999999  0.6350700000000002  1.0000
  O   O5        1.0  0.84071  0.3950699999999999  0.95195  1.0000
  O   O6        1.0  0.15267000000000008  0.6043400000000001  0.9248600000000002  1.0000
  O   O7        1.0  0.66033  0.12567  0.5517  1.0000
  O   O8        1.0  0.55593  0.19632  0.61636  1.0000
  O   O9        1.0  0.9413  0.73255  0.7425700000000002  1.0000
  O   O10       1.0  0.047410000000000035  0.31564  0.71306  1.0000
  O   O11       1.0  0.29330999999999996  0.9029399999999999  0.57043  1.0000
  O   O12       1.0  0.016339999999999983  0.1657  0.82953  1.0000
  O   O13       1.0  0.72596  0.44626  0.8895500000000002  1.0000
  O   O14       1.0  0.9102999999999999  0.7524099999999999  0.93709  1.0000
  O   O15       1.0  0.65853  0.32601  0.12727  1.0000
  O   O16       1.0  0.84158  0.6623  0.09602000000000002  1.0000
  O   O17       1.0  0.22877999999999998  0.14843999999999993  0.9703  1.0000
  O   O18       1.0  0.53333  0.10528000000000001  0.3658800000000001  1.0000
  O   O19       1.0  0.4415800000000001  0.59689  0.04656000000000001  1.0000
  O   O20       1.0  0.5465100000000002  0.3914  0.07685  1.0000
  O   O21       1.0  0.5297000000000002  0.87478  0.44467  1.0000
  O   O22       1.0  0.35472  0.8017  0.37713  1.0000
  O   O23       1.0  0.21047000000000002  0.27631  0.26594  1.0000
  O   O24       1.0  0.72261  0.67625  0.28786  1.0000
  O   O25       1.0  0.38145  0.09332  0.4329  1.0000
  O   O26       1.0  0.8408899999999999  0.8231699999999998  0.17049000000000006  1.0000
  O   O27       1.0  0.27577  0.56017  0.10745000000000002  1.0000
  O   O28       1.0  0.16845  0.24266  0.07107  1.0000
