data_image0
_chemical_formula_structural       Eu4H28C56O24
_chemical_formula_sum              "Eu4 H28 C56 O24"
_cell_length_a       6.53296
_cell_length_b       17.488
_cell_length_c       24.366770000000002
_cell_angle_alpha    90.0
_cell_angle_beta     89.32134
_cell_angle_gamma    90.0

_symmetry_space_group_name_H-M    'P 1'
_symmetry_Int_Tables_number       1

loop_
  _symmetry_equiv_pos_as_xyz
  'x,y,z'

loop_
  _atom_site_type_symbol
  _atom_site_label
  _atom_site_symmetry_multiplicity
  _atom_site_fract_x
  _atom_site_fract_y
  _atom_site_fract_z
  _atom_site_occupancy
  Eu  Eu1       1.0  0.26619  0.05407000000000001  0.024230000000000005  1.0000
  Eu  Eu2       1.0  0.7338299999999999  0.5540700000000002  0.47577  1.0000
  Eu  Eu3       1.0  0.7338400000000002  0.9459300000000002  0.97577  1.0000
  Eu  Eu4       1.0  0.2662  0.4459300000000001  0.52423  1.0000
  H   H1        1.0  0.6593700000000001  0.77938  0.81592  1.0000
  H   H2        1.0  0.04534000000000002  0.83071  0.7637  1.0000
  H   H3        1.0  0.9846000000000003  0.9031900000000002  0.84999  1.0000
  H   H4        1.0  0.08668000000000001  0.6986500000000002  0.74022  1.0000
  H   H5        1.0  0.74138  0.70542  0.63445  1.0000
  H   H6        1.0  0.69203  0.79324  0.71467  1.0000
  H   H7        1.0  0.14703  0.57885  0.62566  1.0000
  H   H8        1.0  0.34066  0.27938  0.68408  1.0000
  H   H9        1.0  0.9546900000000003  0.33071  0.7363  1.0000
  H   H10       1.0  0.015430000000000003  0.4031900000000001  0.65002  1.0000
  H   H11       1.0  0.91334  0.19865000000000005  0.75978  1.0000
  H   H12       1.0  0.25865000000000005  0.20542000000000005  0.8655499999999999  1.0000
  H   H13       1.0  0.30799  0.29324  0.78533  1.0000
  H   H14       1.0  0.8529900000000001  0.07885  0.87434  1.0000
  H   H15       1.0  0.34065  0.22062  0.18408  1.0000
  H   H16       1.0  0.95468  0.16929  0.2363  1.0000
  H   H17       1.0  0.01542  0.09681  0.15002  1.0000
  H   H18       1.0  0.9133300000000002  0.30135000000000006  0.25978  1.0000
  H   H19       1.0  0.25864  0.29458  0.36555  1.0000
  H   H20       1.0  0.30798  0.20676  0.28533  1.0000
  H   H21       1.0  0.8529900000000001  0.42115  0.37433999999999995  1.0000
  H   H22       1.0  0.65936  0.72062  0.31592  1.0000
  H   H23       1.0  0.04533  0.6692900000000003  0.2637  1.0000
  H   H24       1.0  0.98459  0.59681  0.34999  1.0000
  H   H25       1.0  0.08667  0.80135  0.24022  1.0000
  H   H26       1.0  0.7413700000000002  0.79458  0.13445  1.0000
  H   H27       1.0  0.69202  0.70676  0.21467  1.0000
  H   H28       1.0  0.14702  0.92115  0.12566  1.0000
  C   C1        1.0  0.24041000000000004  0.93117  0.93055  1.0000
  C   C2        1.0  0.2888600000000001  0.88829  0.87988  1.0000
  C   C3        1.0  0.4898600000000001  0.85485  0.86905  1.0000
  C   C4        1.0  0.5127300000000002  0.80787  0.8210899999999999  1.0000
  C   C5        1.0  0.35737000000000013  0.7991100000000002  0.78315  1.0000
  C   C6        1.0  0.1671  0.83578  0.79351  1.0000
  C   C7        1.0  0.13441  0.87796  0.84143  1.0000
  C   C8        1.0  0.38643  0.7518100000000002  0.73329  1.0000
  C   C9        1.0  0.22842000000000004  0.7033900000000002  0.7167399999999999  1.0000
  C   C10       1.0  0.25259  0.65643  0.6704099999999998  1.0000
  C   C11       1.0  0.44212  0.65622  0.6409  1.0000
  C   C12       1.0  0.5980000000000002  0.7061400000000002  0.65774  1.0000
  C   C13       1.0  0.57161  0.75382  0.70292  1.0000
  C   C14       1.0  0.4754700000000001  0.60383  0.59364  1.0000
  C   C15       1.0  0.75963  0.43117  0.56945  1.0000
  C   C16       1.0  0.7111700000000001  0.38829  0.62012  1.0000
  C   C17       1.0  0.51017  0.35485  0.63095  1.0000
  C   C18       1.0  0.48729000000000006  0.30787  0.67891  1.0000
  C   C19       1.0  0.6426500000000003  0.29911  0.71685  1.0000
  C   C20       1.0  0.83292  0.33578  0.70649  1.0000
  C   C21       1.0  0.86561  0.37796  0.65857  1.0000
  C   C22       1.0  0.6135900000000002  0.25181  0.7667099999999999  1.0000
  C   C23       1.0  0.7716000000000002  0.20339  0.78326  1.0000
  C   C24       1.0  0.74743  0.15643000000000007  0.82959  1.0000
  C   C25       1.0  0.55791  0.15622  0.8591  1.0000
  C   C26       1.0  0.40202000000000004  0.20614  0.84226  1.0000
  C   C27       1.0  0.4284100000000001  0.2538200000000001  0.79708  1.0000
  C   C28       1.0  0.52455  0.10383  0.90636  1.0000
  C   C29       1.0  0.75963  0.06883  0.06945  1.0000
  C   C30       1.0  0.71116  0.11172000000000003  0.12012  1.0000
  C   C31       1.0  0.51016  0.14515000000000006  0.13095  1.0000
  C   C32       1.0  0.48729000000000006  0.19213000000000005  0.17891  1.0000
  C   C33       1.0  0.6426500000000003  0.20089  0.21685  1.0000
  C   C34       1.0  0.83291  0.16422  0.20649  1.0000
  C   C35       1.0  0.86561  0.12204  0.15857  1.0000
  C   C36       1.0  0.61358  0.24819  0.26671  1.0000
  C   C37       1.0  0.7716000000000002  0.29661  0.28326  1.0000
  C   C38       1.0  0.74743  0.34357  0.32958999999999994  1.0000
  C   C39       1.0  0.5579  0.34378  0.3591  1.0000
  C   C40       1.0  0.40202000000000004  0.29386  0.34226  1.0000
  C   C41       1.0  0.4284  0.24618  0.29708  1.0000
  C   C42       1.0  0.52455  0.39617  0.40636  1.0000
  C   C43       1.0  0.2404  0.56883  0.43055  1.0000
  C   C44       1.0  0.28885  0.6117200000000002  0.37987999999999994  1.0000
  C   C45       1.0  0.48985  0.64515  0.36905  1.0000
  C   C46       1.0  0.51273  0.69213  0.32109  1.0000
  C   C47       1.0  0.35736  0.70089  0.28315  1.0000
  C   C48       1.0  0.1671  0.6642200000000003  0.29351  1.0000
  C   C49       1.0  0.13441  0.62204  0.34143  1.0000
  C   C50       1.0  0.38642  0.74819  0.23328999999999997  1.0000
  C   C51       1.0  0.22841  0.79662  0.21674  1.0000
  C   C52       1.0  0.25258  0.8435700000000003  0.17041  1.0000
  C   C53       1.0  0.44211  0.8437800000000002  0.1409  1.0000
  C   C54       1.0  0.5979900000000001  0.79386  0.15774  1.0000
  C   C55       1.0  0.57161  0.7461800000000002  0.20292  1.0000
  C   C56       1.0  0.47546000000000005  0.8961700000000002  0.09364  1.0000
  O   O1        1.0  0.06554  0.9633100000000001  0.93614  1.0000
  O   O2        1.0  0.3709300000000001  0.93531  0.9693300000000001  1.0000
  O   O3        1.0  0.63487  0.61012  0.56356  1.0000
  O   O4        1.0  0.33513  0.55243  0.5861  1.0000
  O   O5        1.0  0.6468700000000002  0.86506  0.8997699999999998  1.0000
  O   O6        1.0  0.09184  0.6126100000000002  0.65598  1.0000
  O   O7        1.0  0.93451  0.4633  0.56386  1.0000
  O   O8        1.0  0.6291100000000002  0.43531000000000003  0.53067  1.0000
  O   O9        1.0  0.36515000000000003  0.11012000000000001  0.93644  1.0000
  O   O10       1.0  0.6648900000000002  0.05243  0.9139099999999999  1.0000
  O   O11       1.0  0.35316000000000003  0.3650600000000001  0.60023  1.0000
  O   O12       1.0  0.9081800000000002  0.11261000000000002  0.84402  1.0000
  O   O13       1.0  0.9345  0.03670000000000002  0.06386  1.0000
  O   O14       1.0  0.6291100000000002  0.06469  0.03067  1.0000
  O   O15       1.0  0.36515000000000003  0.3898800000000001  0.43644  1.0000
  O   O16       1.0  0.66488  0.44757  0.4139  1.0000
  O   O17       1.0  0.35315  0.13494000000000003  0.10022999999999999  1.0000
  O   O18       1.0  0.9081800000000002  0.38739  0.34401999999999994  1.0000
  O   O19       1.0  0.06553  0.5366900000000002  0.43614  1.0000
  O   O20       1.0  0.37092  0.5647  0.46933  1.0000
  O   O21       1.0  0.63487  0.8898800000000001  0.06356  1.0000
  O   O22       1.0  0.33513  0.9475700000000001  0.0861  1.0000
  O   O23       1.0  0.64686  0.6349400000000002  0.39977  1.0000
  O   O24       1.0  0.09183  0.88739  0.15598  1.0000
