data_image0
_chemical_formula_structural       Cd4H28C44N12O20
_chemical_formula_sum              "Cd4 H28 C44 N12 O20"
_cell_length_a       9.07446
_cell_length_b       10.60013
_cell_length_c       18.05549
_cell_angle_alpha    90.04653
_cell_angle_beta     89.7665
_cell_angle_gamma    88.18374

_symmetry_space_group_name_H-M    'P 1'
_symmetry_Int_Tables_number       1

loop_
  _symmetry_equiv_pos_as_xyz
  'x,y,z'

loop_
  _atom_site_type_symbol
  _atom_site_label
  _atom_site_symmetry_multiplicity
  _atom_site_fract_x
  _atom_site_fract_y
  _atom_site_fract_z
  _atom_site_occupancy
  Cd  Cd1       1.0  0.09394999999999999  0.65614  0.53969  1.0000
  Cd  Cd2       1.0  0.40693999999999997  0.84413  0.03989  1.0000
  Cd  Cd3       1.0  0.9060500000000001  0.34386  0.46031000000000005  1.0000
  Cd  Cd4       1.0  0.59306  0.15587  0.9601  1.0000
  H   H1        1.0  0.281  0.79401  0.7859200000000001  1.0000
  H   H2        1.0  0.65674  0.03433  0.79899  1.0000
  H   H3        1.0  0.48514  0.9243799999999999  0.58685  1.0000
  H   H4        1.0  0.76796  0.16226  0.57495  1.0000
  H   H5        1.0  0.58958  0.09951  0.55649  1.0000
  H   H6        1.0  0.77021  0.74202  0.43528  1.0000
  H   H7        1.0  0.94275  0.91652  0.62383  1.0000
  H   H8        1.0  0.21756000000000003  0.7047699999999999  0.28531  1.0000
  H   H9        1.0  0.84141  0.46542  0.29967  1.0000
  H   H10       1.0  0.014460000000000004  0.57466  0.08679  1.0000
  H   H11       1.0  0.73387  0.33936999999999995  0.07285  1.0000
  H   H12       1.0  0.91298  0.40216999999999997  0.05699  1.0000
  H   H13       1.0  0.73151  0.75856  0.93438  1.0000
  H   H14       1.0  0.55907  0.5845  0.12373000000000002  1.0000
  H   H15       1.0  0.719  0.20599  0.21408  1.0000
  H   H16       1.0  0.34326  0.9656699999999999  0.201  1.0000
  H   H17       1.0  0.51485  0.07562  0.41314  1.0000
  H   H18       1.0  0.23203999999999997  0.83774  0.42504  1.0000
  H   H19       1.0  0.41042  0.90048  0.44350000000000006  1.0000
  H   H20       1.0  0.22978999999999997  0.25798  0.56472  1.0000
  H   H21       1.0  0.05724  0.08348  0.37617  1.0000
  H   H22       1.0  0.78243  0.29523  0.71468  1.0000
  H   H23       1.0  0.15859  0.53458  0.7003300000000001  1.0000
  H   H24       1.0  0.98554  0.42534  0.9132100000000001  1.0000
  H   H25       1.0  0.26613  0.66063  0.9271500000000001  1.0000
  H   H26       1.0  0.08702000000000001  0.59783  0.943  1.0000
  H   H27       1.0  0.26849  0.24144  0.06562  1.0000
  H   H28       1.0  0.44093000000000004  0.4154999999999999  0.87627  1.0000
  C   C1        1.0  0.37452  0.8529399999999999  0.68201  1.0000
  C   C2        1.0  0.36604  0.84807  0.75928  1.0000
  C   C3        1.0  0.47009999999999996  0.91156  0.80173  1.0000
  C   C4        1.0  0.5781  0.98215  0.76696  1.0000
  C   C5        1.0  0.58118  0.9902799999999999  0.68983  1.0000
  C   C6        1.0  0.4833700000000001  0.92317  0.64689  1.0000
  C   C7        1.0  0.26815  0.78412  0.6347700000000001  1.0000
  C   C8        1.0  0.46641  0.90591  0.8843  1.0000
  C   C9        1.0  0.69623  0.08263  0.58387  1.0000
  C   C10       1.0  0.78684  0.8096399999999999  0.4792100000000001  1.0000
  C   C11       1.0  0.87803  0.8966199999999999  0.57511  1.0000
  C   C12       1.0  0.12446  0.64602  0.18175  1.0000
  C   C13       1.0  0.13285  0.65038  0.25898  1.0000
  C   C14       1.0  0.0289  0.5866  0.30166  1.0000
  C   C15       1.0  0.92045  0.51662  0.26706  1.0000
  C   C16       1.0  0.91701  0.50906  0.18986  1.0000
  C   C17       1.0  0.01572  0.57585  0.14684  1.0000
  C   C18       1.0  0.23105  0.71554  0.13446  1.0000
  C   C19       1.0  0.03266000000000001  0.59271  0.38431000000000004  1.0000
  C   C20       1.0  0.80482  0.41884  0.08324  1.0000
  C   C21       1.0  0.7153799999999999  0.69159  0.9787000000000001  1.0000
  C   C22       1.0  0.62382  0.60483  0.07485  1.0000
  C   C23       1.0  0.62548  0.14706  0.31799  1.0000
  C   C24       1.0  0.63395  0.15192999999999998  0.24072  1.0000
  C   C25       1.0  0.5299  0.08844  0.19826  1.0000
  C   C26       1.0  0.4219  0.01785  0.23304000000000002  1.0000
  C   C27       1.0  0.41881  0.00972  0.31017  1.0000
  C   C28       1.0  0.51663  0.07683  0.35311000000000003  1.0000
  C   C29       1.0  0.73185  0.21587999999999996  0.36523  1.0000
  C   C30       1.0  0.53359  0.09409  0.1157  1.0000
  C   C31       1.0  0.30377  0.91737  0.41612  1.0000
  C   C32       1.0  0.21316  0.19036  0.52079  1.0000
  C   C33       1.0  0.12197000000000001  0.10338  0.42488  1.0000
  C   C34       1.0  0.8755400000000001  0.35398  0.81825  1.0000
  C   C35       1.0  0.86714  0.34962  0.7410200000000001  1.0000
  C   C36       1.0  0.9711  0.4134  0.69833  1.0000
  C   C37       1.0  0.07954  0.48338  0.73293  1.0000
  C   C38       1.0  0.08299  0.49093999999999993  0.81014  1.0000
  C   C39       1.0  0.98428  0.42414999999999997  0.85315  1.0000
  C   C40       1.0  0.76895  0.28445999999999994  0.86554  1.0000
  C   C41       1.0  0.9673399999999999  0.40728999999999993  0.61569  1.0000
  C   C42       1.0  0.19517000000000007  0.58116  0.9167500000000001  1.0000
  C   C43       1.0  0.28462  0.30841  0.0213  1.0000
  C   C44       1.0  0.37618  0.39516999999999997  0.92514  1.0000
  N   N1        1.0  0.76234  0.9671  0.55039  1.0000
  N   N2        1.0  0.70203  0.9126199999999998  0.48941  1.0000
  N   N3        1.0  0.8963199999999999  0.79577  0.53097  1.0000
  N   N4        1.0  0.74017  0.5347899999999999  0.05004  1.0000
  N   N5        1.0  0.80083  0.58908  0.98895  1.0000
  N   N6        1.0  0.60537  0.70534  0.03064  1.0000
  N   N7        1.0  0.23766  0.0329  0.44961  1.0000
  N   N8        1.0  0.29797  0.08738  0.51059  1.0000
  N   N9        1.0  0.10367000000000001  0.20422999999999997  0.46903  1.0000
  N   N10       1.0  0.25983  0.46521  0.9499600000000001  1.0000
  N   N11       1.0  0.19917  0.41092  0.01105  1.0000
  N   N12       1.0  0.39463  0.2946599999999999  0.96936  1.0000
  O   O1        1.0  0.30359  0.7624599999999999  0.56669  1.0000
  O   O2        1.0  0.14701  0.74946  0.66274  1.0000
  O   O3        1.0  0.36201  0.84771  0.91535  1.0000
  O   O4        1.0  0.5699200000000001  0.9558  0.9221200000000002  1.0000
  O   O5        1.0  0.68761  0.06879  0.66153  1.0000
  O   O6        1.0  0.19944999999999996  0.73148  0.06566000000000001  1.0000
  O   O7        1.0  0.34859  0.75643  0.16281  1.0000
  O   O8        1.0  0.13804  0.64991  0.41489  1.0000
  O   O9        1.0  0.92793  0.5443299999999999  0.42238000000000003  1.0000
  O   O10       1.0  0.80984  0.43184999999999996  0.16107  1.0000
  O   O11       1.0  0.69641  0.23754  0.43331  1.0000
  O   O12       1.0  0.85299  0.25054  0.33726  1.0000
  O   O13       1.0  0.63799  0.15228999999999998  0.08464  1.0000
  O   O14       1.0  0.43008  0.0442  0.07788  1.0000
  O   O15       1.0  0.31239  0.93121  0.33847000000000005  1.0000
  O   O16       1.0  0.80055  0.26852  0.9343400000000001  1.0000
  O   O17       1.0  0.6514  0.24357  0.83718  1.0000
  O   O18       1.0  0.86195  0.35009  0.58511  1.0000
  O   O19       1.0  0.07207  0.45567  0.57762  1.0000
  O   O20       1.0  0.19016000000000002  0.5681499999999999  0.8389300000000001  1.0000
