data_image0
_chemical_formula_structural       Li2Cd2H32C56O20
_chemical_formula_sum              "Li2 Cd2 H32 C56 O20"
_cell_length_a       4.49132
_cell_length_b       18.55377
_cell_length_c       17.68397
_cell_angle_alpha    87.05207000000001
_cell_angle_beta     81.55909
_cell_angle_gamma    80.37558999999999

_symmetry_space_group_name_H-M    'P 1'
_symmetry_Int_Tables_number       1

loop_
  _symmetry_equiv_pos_as_xyz
  'x,y,z'

loop_
  _atom_site_type_symbol
  _atom_site_label
  _atom_site_symmetry_multiplicity
  _atom_site_fract_x
  _atom_site_fract_y
  _atom_site_fract_z
  _atom_site_occupancy
  Li  Li1       1.0  0.6143099999999999  0.57803  0.49692  1.0000
  Li  Li2       1.0  0.02924999999999995  0.07311  0.91109  1.0000
  Cd  Cd1       1.0  0.23042999999999997  0.46826  0.49893  1.0000
  Cd  Cd2       1.0  0.47291999999999995  0.98693  0.01452  1.0000
  H   H1        1.0  0.9978600000000006  0.55563  0.79461  1.0000
  H   H2        1.0  0.1805200000000001  0.51087  0.9200099999999999  1.0000
  H   H3        1.0  0.00883999999999997  0.3978  0.79736  1.0000
  H   H4        1.0  0.81668  0.44044  0.67255  1.0000
  H   H5        1.0  0.4028800000000001  0.45108999999999994  0.21945  1.0000
  H   H6        1.0  0.63046  0.48951  0.08728  1.0000
  H   H7        1.0  0.2213  0.60575  0.18707  1.0000
  H   H8        1.0  0.99325  0.56574  0.3183199999999999  1.0000
  H   H9        1.0  0.4021800000000002  0.19517000000000004  0.5604899999999998  1.0000
  H   H10       1.0  0.31772  0.07197  0.51994  1.0000
  H   H11       1.0  0.60041  0.17866  0.3976899999999999  1.0000
  H   H12       1.0  0.6911700000000001  0.30108  0.43789999999999996  1.0000
  H   H13       1.0  0.23373000000000005  0.79378  0.44979  1.0000
  H   H14       1.0  0.9126599999999999  0.91389  0.48972  1.0000
  H   H15       1.0  0.23394999999999994  0.79922  0.61564  1.0000
  H   H16       1.0  0.5642700000000003  0.68  0.5792399999999998  1.0000
  H   H17       1.0  0.7616000000000002  0.7014299999999999  0.94127  1.0000
  H   H18       1.0  0.6080500000000001  0.5786  0.9839799999999999  1.0000
  H   H19       1.0  0.77  0.68789  0.10550999999999998  1.0000
  H   H20       1.0  0.9287599999999999  0.81003  0.06334  1.0000
  H   H21       1.0  0.43410000000000004  0.28833  0.04658  1.0000
  H   H22       1.0  0.18346  0.41345  0.00644  1.0000
  H   H23       1.0  0.6037700000000001  0.31434999999999996  0.88468  1.0000
  H   H24       1.0  0.8356  0.19167000000000003  0.9305899999999999  1.0000
  H   H25       1.0  0.34845999999999994  0.94643  0.2975199999999999  1.0000
  H   H26       1.0  0.45166  0.98261  0.42625  1.0000
  H   H27       1.0  0.13816000000000006  0.10242  0.3136599999999999  1.0000
  H   H28       1.0  0.02881000000000001  0.06637  0.18538  1.0000
  H   H29       1.0  0.49273  0.04474000000000001  0.69395  1.0000
  H   H30       1.0  0.8209299999999999  0.0009499999999999988  0.57171  1.0000
  H   H31       1.0  0.5006  0.88618  0.70101  1.0000
  H   H32       1.0  0.16863000000000025  0.9307199999999999  0.8231399999999998  1.0000
  C   C1        1.0  0.2831499999999999  0.5211  0.65311  1.0000
  C   C2        1.0  0.39778000000000024  0.49852  0.7266699999999998  1.0000
  C   C3        1.0  0.20650999999999992  0.51697  0.79621  1.0000
  C   C4        1.0  0.3192  0.49673  0.86549  1.0000
  C   C5        1.0  0.6085100000000002  0.45662  0.8645599999999998  1.0000
  C   C6        1.0  0.8023699999999998  0.4372  0.79614  1.0000
  C   C7        1.0  0.6867700000000001  0.4576299999999999  0.72704  1.0000
  C   C8        1.0  0.5452100000000003  0.49307  0.35543  1.0000
  C   C9        1.0  0.6740000000000003  0.51148  0.27614  1.0000
  C   C10       1.0  0.5654400000000002  0.4888799999999999  0.21151999999999996  1.0000
  C   C11       1.0  0.71137  0.50505  0.13824  1.0000
  C   C12       1.0  0.9474  0.54525  0.13063  1.0000
  C   C13       1.0  0.05924000000000015  0.56798  0.19445  1.0000
  C   C14       1.0  0.91355  0.55119  0.26695  1.0000
  C   C15       1.0  0.11035000000000002  0.32856  0.51405  1.0000
  C   C16       1.0  0.05997000000000001  0.25467  0.49678999999999995  1.0000
  C   C17       1.0  0.24505000000000002  0.19077  0.52055  1.0000
  C   C18       1.0  0.17882  0.12250000000000001  0.50361  1.0000
  C   C19       1.0  0.94458  0.11949  0.46180999999999994  1.0000
  C   C20       1.0  0.7563  0.18261  0.43797  1.0000
  C   C21       1.0  0.8247199999999999  0.25021  0.45505999999999996  1.0000
  C   C22       1.0  0.11583000000000002  0.66044  0.4874299999999999  1.0000
  C   C23       1.0  0.9162900000000006  0.7297  0.5122899999999998  1.0000
  C   C24       1.0  0.02587000000000006  0.79591  0.49  1.0000
  C   C25       1.0  0.8359900000000001  0.8624199999999999  0.5077  1.0000
  C   C26       1.0  0.5507899999999998  0.8626500000000001  0.54978  1.0000
  C   C27       1.0  0.43883999999999995  0.79759  0.57448  1.0000
  C   C28       1.0  0.6328700000000003  0.73117  0.5566199999999998  1.0000
  C   C29       1.0  0.44512000000000007  0.83496  0.9838699999999999  1.0000
  C   C30       1.0  0.3554800000000001  0.7621  0.0036099999999999995  1.0000
  C   C31       1.0  0.5582500000000002  0.6973999999999999  0.9816599999999999  1.0000
  C   C32       1.0  0.4603100000000001  0.62973  0.99994  1.0000
  C   C33       1.0  0.17591000000000004  0.6278  0.04161  1.0000
  C   C34       1.0  0.97106  0.69163  0.06441999999999998  1.0000
  C   C35       1.0  0.07065999999999996  0.75883  0.04566  1.0000
  C   C36       1.0  0.3169199999999999  0.15744  0.00905  1.0000
  C   C37       1.0  0.16858999999999993  0.23162999999999997  0.98473  1.0000
  C   C38       1.0  0.26865000000000006  0.29488  0.00686  1.0000
  C   C39       1.0  0.11020000000000003  0.36429  0.98976  1.0000
  C   C40       1.0  0.8698900000000003  0.37051  0.94805  1.0000
  C   C41       1.0  0.7677400000000002  0.30854  0.9246399999999999  1.0000
  C   C42       1.0  0.9240300000000004  0.23974000000000004  0.94367  1.0000
  C   C43       1.0  0.61557  0.99134  0.15856  1.0000
  C   C44       1.0  0.67609  0.00827  0.23495  1.0000
  C   C45       1.0  0.50193  0.98482  0.30206  1.0000
  C   C46       1.0  0.5791500000000003  0.9996099999999999  0.37313  1.0000
  C   C47       1.0  0.8121200000000001  0.03922  0.37566  1.0000
  C   C48       1.0  0.9866700000000002  0.06361  0.30939  1.0000
  C   C49       1.0  0.9084  0.04837  0.23886  1.0000
  C   C50       1.0  0.6243700000000001  0.015810000000000008  0.8366399999999998  1.0000
  C   C51       1.0  0.8130400000000003  0.9880699999999999  0.76524  1.0000
  C   C52       1.0  0.70137  0.005870000000000006  0.6948099999999998  1.0000
  C   C53       1.0  0.89359  0.9855  0.6269399999999998  1.0000
  C   C54       1.0  0.17938000000000004  0.9449499999999998  0.63023  1.0000
  C   C55       1.0  0.29308000000000006  0.9253  0.69986  1.0000
  C   C56       1.0  0.09932000000000007  0.94637  0.76752  1.0000
  O   O1        1.0  0.47253000000000017  0.50567  0.5905499999999998  1.0000
  O   O2        1.0  0.01280999999999999  0.5533  0.65517  1.0000
  O   O3        1.0  0.65728  0.5166  0.40999  1.0000
  O   O4        1.0  0.3294000000000001  0.45533999999999997  0.36693  1.0000
  O   O5        1.0  0.92949  0.38277  0.48903  1.0000
  O   O6        1.0  0.32665  0.33727  0.54981  1.0000
  O   O7        1.0  0.011770000000000025  0.5992  0.49961999999999995  1.0000
  O   O8        1.0  0.38276000000000004  0.66564  0.45495  1.0000
  O   O9        1.0  0.24459000000000006  0.89078  0.0072299999999999994  1.0000
  O   O10       1.0  0.7028400000000001  0.8400499999999999  0.9468699999999999  1.0000
  O   O11       1.0  0.19985000000000025  0.10193000000000002  0.9914399999999999  1.0000
  O   O12       1.0  0.53905  0.15302  0.0452  1.0000
  O   O13       1.0  0.7840700000000002  0.013239999999999997  0.09972999999999997  1.0000
  O   O14       1.0  0.3998  0.95636  0.1521  1.0000
  O   O15       1.0  0.7559500000000001  0.0071899999999999985  0.89825  1.0000
  O   O16       1.0  0.35544  0.04754999999999999  0.83307  1.0000
  O   O17       1.0  0.71335  0.44038  0.9349799999999999  1.0000
  O   O18       1.0  0.08608999999999997  0.5596  0.05681999999999999  1.0000
  O   O19       1.0  0.8851400000000003  0.05056  0.44738999999999995  1.0000
  O   O20       1.0  0.36724  0.93065  0.5608399999999999  1.0000
