data_image0
_chemical_formula_structural       Cu6H27C51N3O24
_chemical_formula_sum              "Cu6 H27 C51 N3 O24"
_cell_length_a       15.09007
_cell_length_b       15.09138
_cell_length_c       15.091719999999999
_cell_angle_alpha    102.49968
_cell_angle_beta     102.47251
_cell_angle_gamma    102.46911

_symmetry_space_group_name_H-M    'P 1'
_symmetry_Int_Tables_number       1

loop_
  _symmetry_equiv_pos_as_xyz
  'x,y,z'

loop_
  _atom_site_type_symbol
  _atom_site_label
  _atom_site_symmetry_multiplicity
  _atom_site_fract_x
  _atom_site_fract_y
  _atom_site_fract_z
  _atom_site_occupancy
  Cu  Cu1       1.0  0.05856  0.46968  0.46883  1.0000
  Cu  Cu2       1.0  0.9173  0.50469  0.50452  1.0000
  Cu  Cu3       1.0  0.46882999999999997  0.05855999999999998  0.4697499999999999  1.0000
  Cu  Cu4       1.0  0.5045199999999999  0.9172599999999999  0.50462  1.0000
  Cu  Cu5       1.0  0.46979  0.46889  0.05859  1.0000
  Cu  Cu6       1.0  0.50471  0.50449  0.91728  1.0000
  H   H1        1.0  0.7426000000000003  0.47481  0.22581999999999997  1.0000
  H   H2        1.0  0.79945  0.52703  0.97196  1.0000
  H   H3        1.0  0.01894999999999999  0.48972  0.18484  1.0000
  H   H4        1.0  0.9152500000000001  0.39526  0.9058  1.0000
  H   H5        1.0  0.006779999999999999  0.39031  0.99893  1.0000
  H   H6        1.0  0.9652399999999999  0.567  0.9759899999999998  1.0000
  H   H7        1.0  0.17365  0.44372  0.0007699999999999997  1.0000
  H   H8        1.0  0.23504000000000005  0.50415  0.7513699999999999  1.0000
  H   H9        1.0  0.9536000000000003  0.47104999999999997  0.7809499999999999  1.0000
  H   H10       1.0  0.22585000000000005  0.7426  0.47474  1.0000
  H   H11       1.0  0.97193  0.79944  0.52702  1.0000
  H   H12       1.0  0.18477999999999997  0.018879999999999977  0.4896699999999999  1.0000
  H   H13       1.0  0.9058000000000003  0.9152400000000002  0.39525  1.0000
  H   H14       1.0  0.9989900000000002  0.00673  0.39032  1.0000
  H   H15       1.0  0.9759400000000003  0.96529  0.56701  1.0000
  H   H16       1.0  0.000819999999999983  0.17362999999999998  0.4437399999999999  1.0000
  H   H17       1.0  0.7513700000000002  0.23505000000000004  0.50422  1.0000
  H   H18       1.0  0.7809700000000003  0.95363  0.47107  1.0000
  H   H19       1.0  0.47483  0.22573  0.74264  1.0000
  H   H20       1.0  0.52699  0.97181  0.79941  1.0000
  H   H21       1.0  0.4897400000000001  0.18482  0.018949999999999998  1.0000
  H   H22       1.0  0.39524999999999993  0.9057899999999999  0.9152499999999998  1.0000
  H   H23       1.0  0.39032  0.999  0.00677  1.0000
  H   H24       1.0  0.567  0.97591  0.9652299999999999  1.0000
  H   H25       1.0  0.4438100000000001  0.0009100000000000044  0.17369  1.0000
  H   H26       1.0  0.50415  0.75143  0.23495  1.0000
  H   H27       1.0  0.47104000000000007  0.78095  0.9535499999999999  1.0000
  C   C1        1.0  0.91798  0.47096  0.31215  1.0000
  C   C2        1.0  0.6611300000000001  0.50061  0.057759999999999985  1.0000
  C   C3        1.0  0.88393  0.47988000000000003  0.21467999999999995  1.0000
  C   C4        1.0  0.79096  0.48402  0.1826  1.0000
  C   C5        1.0  0.76119  0.50088  0.095  1.0000
  C   C6        1.0  0.82436  0.51445  0.04011  1.0000
  C   C7        1.0  0.9172300000000001  0.50997  0.07149  1.0000
  C   C8        1.0  0.9465  0.49162  0.15887  1.0000
  C   C9        1.0  0.9855799999999999  0.43482999999999994  0.9541699999999997  1.0000
  C   C10       1.0  0.05521999999999998  0.45502  0.89792  1.0000
  C   C11       1.0  0.14956999999999995  0.4569899999999999  0.9328099999999998  1.0000
  C   C12       1.0  0.21439000000000002  0.47497  0.8805  1.0000
  C   C13       1.0  0.18523999999999993  0.49195999999999995  0.7926999999999997  1.0000
  C   C14       1.0  0.09135  0.49145  0.75776  1.0000
  C   C15       1.0  0.026790000000000015  0.47318  0.81054  1.0000
  C   C16       1.0  0.3143200000000001  0.47498  0.9179999999999999  1.0000
  C   C17       1.0  0.05802000000000001  0.50226  0.66101  1.0000
  C   C18       1.0  0.31214  0.91794  0.47095  1.0000
  C   C19       1.0  0.05773000000000001  0.66106  0.50054  1.0000
  C   C20       1.0  0.21466  0.88388  0.47984  1.0000
  C   C21       1.0  0.18258  0.79091  0.4839499999999999  1.0000
  C   C22       1.0  0.09495999999999999  0.7611200000000001  0.50078  1.0000
  C   C23       1.0  0.04007  0.82431  0.51441  1.0000
  C   C24       1.0  0.07146000000000001  0.91718  0.50995  1.0000
  C   C25       1.0  0.1588400000000001  0.94645  0.49157  1.0000
  C   C26       1.0  0.9542000000000003  0.98556  0.4348399999999999  1.0000
  C   C27       1.0  0.89796  0.055220000000000005  0.45505  1.0000
  C   C28       1.0  0.93285  0.14955  0.45701999999999987  1.0000
  C   C29       1.0  0.8805099999999999  0.21437  0.47499999999999987  1.0000
  C   C30       1.0  0.7927  0.18524  0.49199  1.0000
  C   C31       1.0  0.75777  0.09136  0.49148  1.0000
  C   C32       1.0  0.8105700000000002  0.02680999999999997  0.47321999999999986  1.0000
  C   C33       1.0  0.91803  0.31426  0.47497999999999996  1.0000
  C   C34       1.0  0.6610000000000003  0.05800999999999999  0.50222  1.0000
  C   C35       1.0  0.4710100000000001  0.31212  0.91808  1.0000
  C   C36       1.0  0.50054  0.05765000000000001  0.66108  1.0000
  C   C37       1.0  0.47996  0.21465999999999996  0.8839899999999999  1.0000
  C   C38       1.0  0.48403000000000007  0.18252  0.791  1.0000
  C   C39       1.0  0.50078  0.09485  0.7611499999999999  1.0000
  C   C40       1.0  0.51439  0.03996999999999997  0.82431  1.0000
  C   C41       1.0  0.50998  0.07142  0.91719  1.0000
  C   C42       1.0  0.49167  0.15883  0.94652  1.0000
  C   C43       1.0  0.4348300000000001  0.9541999999999999  0.98557  1.0000
  C   C44       1.0  0.45504000000000006  0.8979800000000002  0.0552  1.0000
  C   C45       1.0  0.45703  0.93292  0.14955  1.0000
  C   C46       1.0  0.47499  0.8805800000000001  0.21432999999999994  1.0000
  C   C47       1.0  0.4919700000000001  0.79276  0.18517  1.0000
  C   C48       1.0  0.49146999999999996  0.7578  0.09128999999999998  1.0000
  C   C49       1.0  0.47321  0.81058  0.026739999999999993  1.0000
  C   C50       1.0  0.47499  0.91808  0.31424  1.0000
  C   C51       1.0  0.5023  0.6610400000000001  0.05799  1.0000
  N   N1        1.0  0.98259  0.52402  0.0168  1.0000
  N   N2        1.0  0.016770000000000014  0.98256  0.52402  1.0000
  N   N3        1.0  0.52403  0.016749999999999984  0.98256  1.0000
  O   O1        1.0  0.9970700000000002  0.45155  0.33391  1.0000
  O   O2        1.0  0.86617  0.48648  0.3676  1.0000
  O   O3        1.0  0.60511  0.48120999999999997  0.10795999999999997  1.0000
  O   O4        1.0  0.63847  0.51801  0.97767  1.0000
  O   O5        1.0  0.33697999999999995  0.4597899999999999  0.9991399999999999  1.0000
  O   O6        1.0  0.36979  0.49086  0.86632  1.0000
  O   O7        1.0  0.11144  0.49104  0.6064699999999998  1.0000
  O   O8        1.0  0.97736  0.51854  0.63899  1.0000
  O   O9        1.0  0.3339  0.99704  0.4515799999999999  1.0000
  O   O10       1.0  0.3676  0.86615  0.48645  1.0000
  O   O11       1.0  0.10790000000000001  0.605  0.4811099999999999  1.0000
  O   O12       1.0  0.97765  0.6384400000000002  0.51801  1.0000
  O   O13       1.0  0.99919  0.33684  0.4598  1.0000
  O   O14       1.0  0.8663600000000002  0.36976  0.49083  1.0000
  O   O15       1.0  0.60646  0.11144  0.49105  1.0000
  O   O16       1.0  0.63894  0.97732  0.51839  1.0000
  O   O17       1.0  0.45159  0.33391000000000004  0.99718  1.0000
  O   O18       1.0  0.48648999999999976  0.36753999999999987  0.8662599999999998  1.0000
  O   O19       1.0  0.48113000000000006  0.10785999999999997  0.60508  1.0000
  O   O20       1.0  0.51802  0.97759  0.6384099999999999  1.0000
  O   O21       1.0  0.4598100000000001  0.99924  0.3369  1.0000
  O   O22       1.0  0.4908200000000001  0.86637  0.36968  1.0000
  O   O23       1.0  0.49103000000000013  0.60654  0.11140999999999997  1.0000
  O   O24       1.0  0.5186500000000002  0.63898  0.9773699999999999  1.0000
