data_image0
_chemical_formula_structural       Dy4H18C48N6O36
_chemical_formula_sum              "Dy4 H18 C48 N6 O36"
_cell_length_a       13.76288
_cell_length_b       13.7701
_cell_length_c       16.1436
_cell_angle_alpha    66.21654
_cell_angle_beta     66.58007
_cell_angle_gamma    73.03559999999999

_space_group_name_H-M_alt    "P 1"
_space_group_IT_number       1

loop_
  _space_group_symop_operation_xyz
  'x, y, z'

loop_
  _atom_site_type_symbol
  _atom_site_label
  _atom_site_symmetry_multiplicity
  _atom_site_fract_x
  _atom_site_fract_y
  _atom_site_fract_z
  _atom_site_occupancy
  Dy  Dy1       1.0  0.84732  0.55581  0.49767  1.0000
  Dy  Dy2       1.0  0.44427999999999995  0.15045  0.0035  1.0000
  Dy  Dy3       1.0  0.15279000000000004  0.4481199999999999  0.50188  1.0000
  Dy  Dy4       1.0  0.5544599999999997  0.8472099999999997  0.99822  1.0000
  H   H1        1.0  0.6684999999999997  0.75893  0.25243  1.0000
  H   H2        1.0  0.53361  0.09431999999999999  0.21757  1.0000
  H   H3        1.0  0.6603000000000001  0.9027399999999998  0.44979  1.0000
  H   H4        1.0  0.9134099999999994  0.8664099999999999  0.35452  1.0000
  H   H5        1.0  0.24175  0.33103  0.24725  1.0000
  H   H6        1.0  0.90645  0.4656699999999999  0.2809  1.0000
  H   H7        1.0  0.09652999999999999  0.33967  0.049940000000000005  1.0000
  H   H8        1.0  0.13214  0.08675999999999998  0.14608  1.0000
  H   H9        1.0  0.3311999999999999  0.24147999999999997  0.74674  1.0000
  H   H10       1.0  0.46621  0.9060399999999998  0.78217  1.0000
  H   H11       1.0  0.3397299999999999  0.09703999999999999  0.5496  1.0000
  H   H12       1.0  0.08611999999999999  0.13331  0.64637  1.0000
  H   H13       1.0  0.7586300000000001  0.6684299999999999  0.75177  1.0000
  H   H14       1.0  0.09382999999999989  0.53412  0.7187500000000002  1.0000
  H   H15       1.0  0.9032799999999999  0.6602499999999999  0.9496600000000002  1.0000
  H   H16       1.0  0.8666899999999996  0.91217  0.85434  1.0000
  H   H17       1.0  0.2509799999999999  0.74809  0.2502  1.0000
  H   H18       1.0  0.7482800000000001  0.25135  0.75006  1.0000
  C   C1        1.0  0.71986  0.71592  0.41329  1.0000
  C   C2        1.0  0.6700800000000001  0.81936  0.35691  1.0000
  C   C3        1.0  0.64806  0.8281899999999999  0.27645  1.0000
  C   C4        1.0  0.59778  0.92689  0.22725  1.0000
  C   C5        1.0  0.5725  0.01751  0.25557  1.0000
  C   C6        1.0  0.5966699999999998  0.006170000000000013  0.33527  1.0000
  C   C7        1.0  0.64359  0.9087199999999999  0.38732  1.0000
  C   C8        1.0  0.57165  0.9351099999999998  0.14422  1.0000
  C   C9        1.0  0.06188999999999999  0.68713  0.37742000000000003  1.0000
  C   C10       1.0  0.08192000000000002  0.7967199999999998  0.31021  1.0000
  C   C11       1.0  0.9946199999999996  0.88098  0.30903  1.0000
  C   C12       1.0  0.28245000000000003  0.28181  0.08671  1.0000
  C   C13       1.0  0.17904000000000003  0.33006  0.14413  1.0000
  C   C14       1.0  0.17176  0.35233  0.22391  1.0000
  C   C15       1.0  0.07360999999999998  0.40199  0.27319  1.0000
  C   C16       1.0  0.9834399999999999  0.42698  0.2437  1.0000
  C   C17       1.0  0.9931599999999999  0.40339999999999987  0.16451  1.0000
  C   C18       1.0  0.09021  0.35683  0.11234  1.0000
  C   C19       1.0  0.06577999999999999  0.42777999999999994  0.35609  1.0000
  C   C20       1.0  0.31348999999999994  0.93907  0.12165  1.0000
  C   C21       1.0  0.20443000000000006  0.9191199999999998  0.18829  1.0000
  C   C22       1.0  0.11966  0.005219999999999998  0.19042  1.0000
  C   C23       1.0  0.28022  0.28366999999999987  0.58601  1.0000
  C   C24       1.0  0.3314099999999999  0.17979  0.64229  1.0000
  C   C25       1.0  0.35215999999999986  0.1717999999999999  0.7232300000000003  1.0000
  C   C26       1.0  0.4013999999999999  0.07295000000000003  0.77312  1.0000
  C   C27       1.0  0.4274700000000002  0.9828399999999999  0.74403  1.0000
  C   C28       1.0  0.40345  0.9930599999999997  0.66475  1.0000
  C   C29       1.0  0.35659  0.09044000000000002  0.61229  1.0000
  C   C30       1.0  0.42860999999999994  0.06537999999999998  0.85547  1.0000
  C   C31       1.0  0.9388200000000001  0.31442  0.62202  1.0000
  C   C32       1.0  0.9185999999999995  0.20423000000000002  0.68904  1.0000
  C   C33       1.0  0.00458999999999997  0.11920000000000001  0.69098  1.0000
  C   C34       1.0  0.71694  0.7205399999999997  0.91216  1.0000
  C   C35       1.0  0.8194599999999999  0.6692800000000001  0.85717  1.0000
  C   C36       1.0  0.8275699999999999  0.6482599999999998  0.77658  1.0000
  C   C37       1.0  0.9263199999999999  0.5988599999999998  0.72769  1.0000
  C   C38       1.0  0.017170000000000046  0.57278  0.75655  1.0000
  C   C39       1.0  0.006599999999999967  0.59672  0.8358800000000001  1.0000
  C   C40       1.0  0.9093399999999999  0.64353  0.88728  1.0000
  C   C41       1.0  0.9344199999999997  0.57223  0.64516  1.0000
  C   C42       1.0  0.6854100000000001  0.06151999999999994  0.8783100000000001  1.0000
  C   C43       1.0  0.79612  0.08059000000000002  0.81104  1.0000
  C   C44       1.0  0.8808299999999997  0.9938799999999999  0.8095700000000002  1.0000
  C   C45       1.0  0.18516000000000002  0.81566  0.24941  1.0000
  C   C46       1.0  0.017120000000000034  0.9835299999999999  0.24975000000000003  1.0000
  C   C47       1.0  0.8148900000000001  0.18493999999999994  0.75004  1.0000
  C   C48       1.0  0.9837100000000001  0.015990000000000004  0.75028  1.0000
  N   N1        1.0  0.57045  0.10125999999999993  0.3662300000000001  1.0000
  N   N2        1.0  0.89862  0.42903  0.13278  1.0000
  N   N3        1.0  0.42929000000000017  0.8985899999999999  0.63358  1.0000
  N   N4        1.0  0.10146999999999999  0.57059  0.86669  1.0000
  N   N5        1.0  0.92566  0.07425  0.25011  1.0000
  N   N6        1.0  0.07392999999999998  0.92555  0.75032  1.0000
  O   O1        1.0  0.7242699999999997  0.71008  0.49281  1.0000
  O   O2        1.0  0.7602699999999996  0.63598  0.38145  1.0000
  O   O3        1.0  0.58686  0.8514599999999999  0.12378  1.0000
  O   O4        1.0  0.5325799999999998  0.02789  0.09608  1.0000
  O   O5        1.0  0.58423  0.08685  0.44193  1.0000
  O   O6        1.0  0.5370299999999999  0.18924999999999995  0.31405000000000005  1.0000
  O   O7        1.0  0.9647900000000001  0.673  0.4159  1.0000
  O   O8        1.0  0.14103999999999994  0.6156100000000001  0.3947  1.0000
  O   O9        1.0  0.9470899999999998  0.16652999999999996  0.20189  1.0000
  O   O10       1.0  0.2878699999999999  0.27758  0.007350000000000001  1.0000
  O   O11       1.0  0.3634  0.24016999999999997  0.11829000000000003  1.0000
  O   O12       1.0  0.14868999999999993  0.4127  0.37842  1.0000
  O   O13       1.0  0.97277  0.46688  0.40174  1.0000
  O   O14       1.0  0.91279  0.41563  0.05731  1.0000
  O   O15       1.0  0.8112399999999997  0.46231999999999995  0.18472  1.0000
  O   O16       1.0  0.3288199999999999  0.03660999999999999  0.08360000000000001  1.0000
  O   O17       1.0  0.38238  0.85988  0.10433  1.0000
  O   O18       1.0  0.8339999999999997  0.05285  0.29797  1.0000
  O   O19       1.0  0.27855  0.29272999999999993  0.50423  1.0000
  O   O20       1.0  0.23971999999999985  0.36347000000000007  0.6178  1.0000
  O   O21       1.0  0.4109699999999999  0.1482799999999999  0.8776500000000003  1.0000
  O   O22       1.0  0.46687999999999974  0.97094  0.90273  1.0000
  O   O23       1.0  0.4155999999999999  0.9130899999999997  0.5578  1.0000
  O   O24       1.0  0.46279999999999955  0.81058  0.68577  1.0000
  O   O25       1.0  0.03593000000000006  0.3300899999999999  0.58473  1.0000
  O   O26       1.0  0.8585700000000002  0.38469  0.60485  1.0000
  O   O27       1.0  0.05299999999999995  0.8331599999999998  0.7982500000000002  1.0000
  O   O28       1.0  0.7115999999999997  0.72374  0.9919000000000001  1.0000
  O   O29       1.0  0.63555  0.75986  0.88149  1.0000
  O   O30       1.0  0.85091  0.59038  0.62222  1.0000
  O   O31       1.0  0.026880000000000005  0.5330099999999999  0.5984900000000001  1.0000
  O   O32       1.0  0.08728999999999999  0.58408  0.94239  1.0000
  O   O33       1.0  0.18858999999999995  0.53742  0.81499  1.0000
  O   O34       1.0  0.6708699999999997  0.9633600000000001  0.91429  1.0000
  O   O35       1.0  0.6158199999999999  0.14064999999999997  0.8954200000000001  1.0000
  O   O36       1.0  0.16601000000000005  0.9481599999999999  0.70169  1.0000
