data_image0
_chemical_formula_structural       Cu16H24C56I8N8O32
_chemical_formula_sum              "Cu16 H24 C56 I8 N8 O32"
_cell_length_a       11.00491
_cell_length_b       19.394049999999996
_cell_length_c       19.39192
_cell_angle_alpha    89.99865000000001
_cell_angle_beta     90.0
_cell_angle_gamma    89.99955

_symmetry_space_group_name_H-M    'P 1'
_symmetry_Int_Tables_number       1

loop_
  _symmetry_equiv_pos_as_xyz
  'x,y,z'

loop_
  _atom_site_type_symbol
  _atom_site_label
  _atom_site_symmetry_multiplicity
  _atom_site_fract_x
  _atom_site_fract_y
  _atom_site_fract_z
  _atom_site_occupancy
  Cu  Cu1       1.0  0.08430999999999998  0.6826499999999999  0.25  1.0000
  Cu  Cu2       1.0  0.08428  0.81734  0.25  1.0000
  Cu  Cu3       1.0  0.08425  0.24996  0.68263  1.0000
  Cu  Cu4       1.0  0.08429  0.25002  0.81738  1.0000
  Cu  Cu5       1.0  0.91572  0.31734999999999997  0.75002  1.0000
  Cu  Cu6       1.0  0.9157  0.18264999999999998  0.75  1.0000
  Cu  Cu7       1.0  0.9157299999999999  0.74998  0.18262  1.0000
  Cu  Cu8       1.0  0.9157299999999999  0.7499899999999999  0.3173799999999999  1.0000
  Cu  Cu9       1.0  0.5857  0.47078  0.47076999999999997  1.0000
  Cu  Cu10      1.0  0.58566  0.02922  0.02921  1.0000
  Cu  Cu11      1.0  0.58564  0.029199999999999997  0.47078999999999993  1.0000
  Cu  Cu12      1.0  0.58574  0.47078  0.02923  1.0000
  Cu  Cu13      1.0  0.41445999999999994  0.52918  0.9708199999999999  1.0000
  Cu  Cu14      1.0  0.41432  0.9708  0.52921  1.0000
  Cu  Cu15      1.0  0.41433  0.97082  0.9708  1.0000
  Cu  Cu16      1.0  0.41438  0.52919  0.52919  1.0000
  H   H1        1.0  0.21682  0.6021899999999999  0.35709  1.0000
  H   H2        1.0  0.2168  0.89779  0.1429  1.0000
  H   H3        1.0  0.21687999999999996  0.14290999999999998  0.60227  1.0000
  H   H4        1.0  0.21689999999999998  0.35712  0.8977199999999999  1.0000
  H   H5        1.0  0.7831799999999999  0.39780999999999994  0.8571  1.0000
  H   H6        1.0  0.78317  0.1022  0.64289  1.0000
  H   H7        1.0  0.7831  0.85711  0.10229  1.0000
  H   H8        1.0  0.7831199999999999  0.6429199999999999  0.3977499999999999  1.0000
  H   H9        1.0  0.7831799999999999  0.39778  0.6428799999999999  1.0000
  H   H10       1.0  0.7831799999999999  0.1022  0.8571  1.0000
  H   H11       1.0  0.78311  0.85709  0.39772  1.0000
  H   H12       1.0  0.78311  0.64293  0.10223999999999998  1.0000
  H   H13       1.0  0.21682  0.6022  0.14289  1.0000
  H   H14       1.0  0.2168  0.8978  0.35711  1.0000
  H   H15       1.0  0.21687  0.14295  0.8977499999999999  1.0000
  H   H16       1.0  0.21685999999999997  0.3570799999999999  0.6022899999999999  1.0000
  H   H17       1.0  0.48435  0.47986999999999996  0.24997  1.0000
  H   H18       1.0  0.4842699999999999  0.02016  0.25  1.0000
  H   H19       1.0  0.4842  0.25002  0.47976  1.0000
  H   H20       1.0  0.48425  0.25005  0.02023  1.0000
  H   H21       1.0  0.51577  0.52019  0.74996  1.0000
  H   H22       1.0  0.51568  0.9798499999999999  0.75  1.0000
  H   H23       1.0  0.51582  0.7500599999999998  0.97973  1.0000
  H   H24       1.0  0.51579  0.7500199999999998  0.52026  1.0000
  C   C1        1.0  0.25646  0.58239  0.30969  1.0000
  C   C2        1.0  0.35461  0.53667  0.31190999999999997  1.0000
  C   C3        1.0  0.40783  0.5170499999999999  0.38024  1.0000
  C   C4        1.0  0.25642  0.9176099999999999  0.1903  1.0000
  C   C5        1.0  0.35455  0.96334  0.18807  1.0000
  C   C6        1.0  0.40776  0.98296  0.11975  1.0000
  C   C7        1.0  0.25652  0.19029  0.58243  1.0000
  C   C8        1.0  0.35461  0.18808  0.53664  1.0000
  C   C9        1.0  0.40782  0.11976999999999999  0.5170399999999999  1.0000
  C   C10       1.0  0.25651  0.30973  0.91757  1.0000
  C   C11       1.0  0.35459  0.31196  0.9633599999999999  1.0000
  C   C12       1.0  0.40782  0.38025  0.9829599999999998  1.0000
  C   C13       1.0  0.74355  0.41761999999999994  0.80969  1.0000
  C   C14       1.0  0.64541  0.46334  0.81192  1.0000
  C   C15       1.0  0.59222  0.4829699999999999  0.8802499999999999  1.0000
  C   C16       1.0  0.7435599999999999  0.08239  0.6902999999999998  1.0000
  C   C17       1.0  0.64542  0.03665999999999999  0.68807  1.0000
  C   C18       1.0  0.5922  0.01705  0.61975  1.0000
  C   C19       1.0  0.74351  0.8097299999999998  0.08241999999999998  1.0000
  C   C20       1.0  0.64544  0.81196  0.03662  1.0000
  C   C21       1.0  0.59222  0.8802599999999999  0.01703  1.0000
  C   C22       1.0  0.74348  0.6903  0.41759  1.0000
  C   C23       1.0  0.64538  0.68808  0.46337  1.0000
  C   C24       1.0  0.59217  0.6197699999999999  0.48295999999999994  1.0000
  C   C25       1.0  0.74358  0.41761  0.69029  1.0000
  C   C26       1.0  0.64546  0.46335  0.68805  1.0000
  C   C27       1.0  0.59225  0.48296  0.61974  1.0000
  C   C28       1.0  0.74355  0.08239  0.8097  1.0000
  C   C29       1.0  0.64542  0.03667  0.81193  1.0000
  C   C30       1.0  0.59219  0.01705  0.8802499999999999  1.0000
  C   C31       1.0  0.7434999999999999  0.80972  0.41758  1.0000
  C   C32       1.0  0.64542  0.8119399999999998  0.46337  1.0000
  C   C33       1.0  0.59221  0.8802399999999999  0.48295999999999994  1.0000
  C   C34       1.0  0.74346  0.6903099999999998  0.08241  1.0000
  C   C35       1.0  0.64536  0.68809  0.036629999999999996  1.0000
  C   C36       1.0  0.59217  0.61978  0.01703  1.0000
  C   C37       1.0  0.25644  0.5823999999999999  0.19028999999999996  1.0000
  C   C38       1.0  0.35459  0.53667  0.18806  1.0000
  C   C39       1.0  0.40782  0.5170499999999999  0.11975  1.0000
  C   C40       1.0  0.25643  0.9176  0.3097  1.0000
  C   C41       1.0  0.35456  0.96333  0.31192999999999993  1.0000
  C   C42       1.0  0.40777  0.98296  0.38025  1.0000
  C   C43       1.0  0.25654  0.19032  0.91758  1.0000
  C   C44       1.0  0.35464  0.1881  0.96337  1.0000
  C   C45       1.0  0.40783  0.11979  0.9829599999999998  1.0000
  C   C46       1.0  0.25648  0.30971  0.58243  1.0000
  C   C47       1.0  0.35456  0.31194  0.53664  1.0000
  C   C48       1.0  0.40777  0.38024  0.5170399999999999  1.0000
  C   C49       1.0  0.4058  0.51391  0.24997999999999998  1.0000
  C   C50       1.0  0.40575  0.98609  0.25  1.0000
  C   C51       1.0  0.40573  0.25000999999999995  0.5138599999999999  1.0000
  C   C52       1.0  0.40576  0.25003  0.98614  1.0000
  C   C53       1.0  0.59425  0.48609999999999987  0.7499799999999998  1.0000
  C   C54       1.0  0.59422  0.01391  0.75  1.0000
  C   C55       1.0  0.59426  0.75003  0.01384  1.0000
  C   C56       1.0  0.59425  0.75001  0.48615  1.0000
  I   I1        1.0  0.8602  0.62862  0.24998999999999996  1.0000
  I   I2        1.0  0.8602  0.87138  0.25001  1.0000
  I   I3        1.0  0.86041  0.24999  0.6285299999999999  1.0000
  I   I4        1.0  0.86044  0.25000999999999995  0.87149  1.0000
  I   I5        1.0  0.13979  0.37137999999999993  0.7499899999999999  1.0000
  I   I6        1.0  0.13982  0.12862  0.7500299999999999  1.0000
  I   I7        1.0  0.13956  0.75001  0.12851  1.0000
  I   I8        1.0  0.13959  0.74998  0.37148  1.0000
  N   N1        1.0  0.2092  0.60597  0.24998999999999996  1.0000
  N   N2        1.0  0.20917999999999998  0.89403  0.25  1.0000
  N   N3        1.0  0.20932999999999996  0.24999  0.60603  1.0000
  N   N4        1.0  0.20934999999999998  0.25002  0.89398  1.0000
  N   N5        1.0  0.79082  0.39406  0.75  1.0000
  N   N6        1.0  0.79081  0.10595999999999998  0.75  1.0000
  N   N7        1.0  0.79067  0.75001  0.10598999999999999  1.0000
  N   N8        1.0  0.79067  0.75001  0.3939999999999999  1.0000
  O   O1        1.0  0.5068  0.48269999999999996  0.37899999999999995  1.0000
  O   O2        1.0  0.35063  0.5380899999999998  0.43362  1.0000
  O   O3        1.0  0.50671  0.01733  0.12097999999999999  1.0000
  O   O4        1.0  0.35057  0.9619199999999998  0.06636999999999998  1.0000
  O   O5        1.0  0.50681  0.12097999999999999  0.48270999999999986  1.0000
  O   O6        1.0  0.35058  0.06641  0.53807  1.0000
  O   O7        1.0  0.5068  0.37902  0.01731  1.0000
  O   O8        1.0  0.35065  0.43362  0.9619  1.0000
  O   O9        1.0  0.49324  0.5173099999999999  0.8790299999999999  1.0000
  O   O10       1.0  0.64946  0.46195  0.93362  1.0000
  O   O11       1.0  0.49322  0.98269  0.6209799999999999  1.0000
  O   O12       1.0  0.64939  0.03809  0.56637  1.0000
  O   O13       1.0  0.49324  0.87905  0.9826999999999999  1.0000
  O   O14       1.0  0.64942  0.93362  0.03809  1.0000
  O   O15       1.0  0.49315999999999993  0.62097  0.5172699999999999  1.0000
  O   O16       1.0  0.64942  0.56641  0.46194  1.0000
  O   O17       1.0  0.49329  0.51732  0.62095  1.0000
  O   O18       1.0  0.64945  0.46191  0.56636  1.0000
  O   O19       1.0  0.49321  0.98271  0.87902  1.0000
  O   O20       1.0  0.6494  0.03809  0.9336299999999998  1.0000
  O   O21       1.0  0.49322  0.87903  0.5173  1.0000
  O   O22       1.0  0.64941  0.9336099999999999  0.46191999999999994  1.0000
  O   O23       1.0  0.49315  0.62098  0.9827199999999999  1.0000
  O   O24       1.0  0.64945  0.56642  0.03804  1.0000
  O   O25       1.0  0.50677  0.48268  0.12099  1.0000
  O   O26       1.0  0.35066  0.5381  0.06636  1.0000
  O   O27       1.0  0.50673  0.01732  0.37902  1.0000
  O   O28       1.0  0.35057  0.9619199999999998  0.4336299999999999  1.0000
  O   O29       1.0  0.50684  0.12099  0.017279999999999997  1.0000
  O   O30       1.0  0.35059  0.06642  0.96193  1.0000
  O   O31       1.0  0.50674  0.37902  0.4826899999999999  1.0000
  O   O32       1.0  0.35058  0.4336  0.5380899999999998  1.0000
