data_image0
_chemical_formula_structural       Zn8P8H32C36N20O44
_chemical_formula_sum              "Zn8 P8 H32 C36 N20 O44"
_cell_length_a       8.97159
_cell_length_b       15.56317
_cell_length_c       17.374659999999995
_cell_angle_alpha    89.96598000000002
_cell_angle_beta     89.80651
_cell_angle_gamma    90.83707999999999

_space_group_name_H-M_alt    "P 1"
_space_group_IT_number       1

loop_
  _space_group_symop_operation_xyz
  'x, y, z'

loop_
  _atom_site_type_symbol
  _atom_site_label
  _atom_site_symmetry_multiplicity
  _atom_site_fract_x
  _atom_site_fract_y
  _atom_site_fract_z
  _atom_site_occupancy
  Zn  Zn1       1.0  0.09103  0.09731999999999998  0.40301  1.0000
  Zn  Zn2       1.0  0.59802  0.40933999999999987  0.5960400000000002  1.0000
  Zn  Zn3       1.0  0.9073300000000001  0.90241  0.90339  1.0000
  Zn  Zn4       1.0  0.40363  0.5911999999999998  0.09631000000000003  1.0000
  Zn  Zn5       1.0  0.89383  0.8942199999999998  0.6013400000000002  1.0000
  Zn  Zn6       1.0  0.43934  0.58261  0.39663  1.0000
  Zn  Zn7       1.0  0.10693  0.10514  0.09966  1.0000
  Zn  Zn8       1.0  0.56091  0.4209599999999999  0.8992  1.0000
  P   P1        1.0  0.21742  0.00967  0.55138  1.0000
  P   P2        1.0  0.74478  0.5033  0.4689  1.0000
  P   P3        1.0  0.7801  0.9913999999999997  0.05334  1.0000
  P   P4        1.0  0.25569  0.50036  0.97012  1.0000
  P   P5        1.0  0.77488  0.9855299999999998  0.45299  1.0000
  P   P6        1.0  0.26395  0.50476  0.54544  1.0000
  P   P7        1.0  0.22604  0.013209999999999996  0.95065  1.0000
  P   P8        1.0  0.73796  0.4964899999999999  0.04847  1.0000
  H   H1        1.0  0.16671  0.8543799999999998  0.4765400000000001  1.0000
  H   H2        1.0  0.07744999999999999  0.8601299999999997  0.38355  1.0000
  H   H3        1.0  0.4919700000000001  0.8838799999999998  0.45007  1.0000
  H   H4        1.0  0.51515  0.8813499999999997  0.34744  1.0000
  H   H5        1.0  0.71905  0.6494499999999997  0.5167  1.0000
  H   H6        1.0  0.5958  0.5794  0.56574  1.0000
  H   H7        1.0  0.99745  0.62586  0.54869  1.0000
  H   H8        1.0  0.021369999999999993  0.6287999999999998  0.64991  1.0000
  H   H9        1.0  0.82784  0.14532  0.9771  1.0000
  H   H10       1.0  0.9188099999999999  0.13864  0.88445  1.0000
  H   H11       1.0  0.50101  0.11881  0.94907  1.0000
  H   H12       1.0  0.4823  0.12250999999999997  0.84638  1.0000
  H   H13       1.0  0.2823  0.35349  0.014290000000000004  1.0000
  H   H14       1.0  0.40692  0.4214599999999999  0.06414000000000002  1.0000
  H   H15       1.0  0.005009999999999998  0.3745199999999999  0.04933  1.0000
  H   H16       1.0  0.9837100000000001  0.36823  0.15049  1.0000
  H   H17       1.0  0.82252  0.14146  0.52344  1.0000
  H   H18       1.0  0.91855  0.13128999999999993  0.6144400000000002  1.0000
  H   H19       1.0  0.50342  0.11491999999999997  0.55017  1.0000
  H   H20       1.0  0.47862  0.11558999999999997  0.65263  1.0000
  H   H21       1.0  0.28281999999999996  0.3323799999999999  0.47058  1.0000
  H   H22       1.0  0.41536  0.39906999999999987  0.40878  1.0000
  H   H23       1.0  0.9917100000000001  0.37806  0.43996  1.0000
  H   H24       1.0  0.97604  0.3649399999999999  0.33918  1.0000
  H   H25       1.0  0.1773  0.8581499999999997  0.023370000000000005  1.0000
  H   H26       1.0  0.08192  0.86869  0.11484000000000003  1.0000
  H   H27       1.0  0.49689999999999995  0.88423  0.04981  1.0000
  H   H28       1.0  0.5215  0.8855699999999997  0.15206  1.0000
  H   H29       1.0  0.71567  0.66928  0.96975  1.0000
  H   H30       1.0  0.58325  0.60221  0.90887  1.0000
  H   H31       1.0  0.009729999999999996  0.6185999999999998  0.9373  1.0000
  H   H32       1.0  0.02192  0.6349  0.8370100000000003  1.0000
  C   C1        1.0  0.18294  0.85353  0.41396  1.0000
  C   C2        1.0  0.43826999999999994  0.8672299999999997  0.39499  1.0000
  C   C3        1.0  0.39085  0.77374  0.39522  1.0000
  C   C4        1.0  0.26863  0.9538699999999998  0.31556  1.0000
  C   C5        1.0  0.71077  0.58617  0.54457  1.0000
  C   C6        1.0  0.9439900000000001  0.6433599999999998  0.60326  1.0000
  C   C7        1.0  0.9142100000000001  0.739  0.60407  1.0000
  C   C8        1.0  0.77368  0.5522899999999997  0.67851  1.0000
  C   C9        1.0  0.81284  0.14652  0.91451  1.0000
  C   C10       1.0  0.55763  0.13545  0.89459  1.0000
  C   C11       1.0  0.60781  0.22843999999999995  0.8956200000000002  1.0000
  C   C12       1.0  0.72698  0.04709999999999999  0.8163  1.0000
  C   C13       1.0  0.2915  0.4157099999999999  0.04385  1.0000
  C   C14       1.0  0.06040000000000001  0.35576  0.10283000000000003  1.0000
  C   C15       1.0  0.09209  0.26042  0.10132  1.0000
  C   C16       1.0  0.22867  0.44707  0.17848  1.0000
  C   C17       1.0  0.81143  0.14073999999999995  0.5863000000000002  1.0000
  C   C18       1.0  0.55694  0.12965  0.6057000000000001  1.0000
  C   C19       1.0  0.60795  0.22232  0.60775  1.0000
  C   C20       1.0  0.72478  0.04321999999999999  0.68575  1.0000
  C   C21       1.0  0.30349  0.37352999999999986  0.42106  1.0000
  C   C22       1.0  0.04627999999999998  0.3507499999999999  0.3888600000000001  1.0000
  C   C23       1.0  0.06881  0.25399  0.39604000000000006  1.0000
  C   C24       1.0  0.22402  0.4440999999999999  0.30828  1.0000
  C   C25       1.0  0.1889  0.8591599999999998  0.08618000000000003  1.0000
  C   C26       1.0  0.44328  0.8703599999999998  0.10571  1.0000
  C   C27       1.0  0.39238  0.7776999999999997  0.10911  1.0000
  C   C28       1.0  0.27375  0.9569399999999998  0.18501  1.0000
  C   C29       1.0  0.69527  0.6276  0.92076  1.0000
  C   C30       1.0  0.95402  0.64864  0.88793  1.0000
  C   C31       1.0  0.93574  0.7454299999999998  0.8975600000000002  1.0000
  C   C32       1.0  0.77554  0.5558199999999998  0.80838  1.0000
  C   C33       1.0  0.1272  0.05633  0.25051  1.0000
  C   C34       1.0  0.6231  0.45508999999999994  0.7497800000000001  1.0000
  C   C35       1.0  0.86932  0.9444599999999997  0.7524700000000002  1.0000
  C   C36       1.0  0.37764  0.54441  0.2497  1.0000
  N   N1        1.0  0.29794  0.91354  0.38672  1.0000
  N   N2        1.0  0.17549  0.01993  0.31899  1.0000
  N   N3        1.0  0.81056  0.58941  0.61124  1.0000
  N   N4        1.0  0.66961  0.4875899999999999  0.68004  1.0000
  N   N5        1.0  0.69662  0.08795  0.8869000000000002  1.0000
  N   N6        1.0  0.82114  0.98174  0.82051  1.0000
  N   N7        1.0  0.19255  0.4104799999999999  0.11104  1.0000
  N   N8        1.0  0.3335  0.51149  0.17997  1.0000
  N   N9        1.0  0.69535  0.08142999999999997  0.61351  1.0000
  N   N10       1.0  0.8167599999999999  0.9766999999999998  0.6833200000000003  1.0000
  N   N11       1.0  0.19189  0.3943199999999999  0.37761000000000006  1.0000
  N   N12       1.0  0.32299  0.50802  0.31736  1.0000
  N   N13       1.0  0.30477  0.9185899999999998  0.11300000000000002  1.0000
  N   N14       1.0  0.18251  0.023659999999999994  0.18191  1.0000
  N   N15       1.0  0.80705  0.6063299999999998  0.8772900000000002  1.0000
  N   N16       1.0  0.67591  0.4920799999999999  0.8175400000000003  1.0000
  N   N17       1.0  0.3264  0.9214799999999997  0.25012  1.0000
  N   N18       1.0  0.83611  0.58501  0.74464  1.0000
  N   N19       1.0  0.66984  0.07866  0.75048  1.0000
  N   N20       1.0  0.16502  0.41427999999999987  0.24454  1.0000
  O   O1        1.0  0.22257  0.08636999999999997  0.49779  1.0000
  O   O2        1.0  0.06637  0.9869199999999998  0.5832800000000001  1.0000
  O   O3        1.0  0.35569  0.9650499999999997  0.5724700000000001  1.0000
  O   O4        1.0  0.47527  0.7118199999999998  0.39425  1.0000
  O   O5        1.0  0.24289  0.76624  0.39781  1.0000
  O   O6        1.0  0.73376  0.41455999999999993  0.5116500000000003  1.0000
  O   O7        1.0  0.59963  0.5104899999999998  0.41943  1.0000
  O   O8        1.0  0.88884  0.51952  0.42796  1.0000
  O   O9        1.0  0.020669999999999997  0.7884299999999997  0.57934  1.0000
  O   O10       1.0  0.79228  0.7684499999999997  0.62818  1.0000
  O   O11       1.0  0.77048  0.9174899999999998  0.9969200000000001  1.0000
  O   O12       1.0  0.93323  0.01297  0.08281  1.0000
  O   O13       1.0  0.64387  0.03483999999999999  0.07963  1.0000
  O   O14       1.0  0.52497  0.29107  0.89512  1.0000
  O   O15       1.0  0.7561  0.23436999999999994  0.8981000000000002  1.0000
  O   O16       1.0  0.26608999999999994  0.5884999999999998  0.013740000000000002  1.0000
  O   O17       1.0  0.39896  0.4938899999999999  0.9184  1.0000
  O   O18       1.0  0.10973  0.48438  0.9313000000000001  1.0000
  O   O19       1.0  0.98555  0.21164999999999995  0.07589000000000003  1.0000
  O   O20       1.0  0.21372  0.23034999999999994  0.12469  1.0000
  O   O21       1.0  0.76092  0.90931  0.50643  1.0000
  O   O22       1.0  0.93065  0.004499999999999998  0.42473  1.0000
  O   O23       1.0  0.64394  0.03442  0.42775  1.0000
  O   O24       1.0  0.5261  0.28553  0.60998  1.0000
  O   O25       1.0  0.75632  0.22831999999999994  0.6058  1.0000
  O   O26       1.0  0.29708  0.57974  0.49251000000000006  1.0000
  O   O27       1.0  0.39204  0.4507499999999999  0.57104  1.0000
  O   O28       1.0  0.1109  0.4813499999999999  0.5696500000000001  1.0000
  O   O29       1.0  0.95699  0.20748  0.41604  1.0000
  O   O30       1.0  0.19595  0.22283999999999995  0.38233  1.0000
  O   O31       1.0  0.23909999999999998  0.09002999999999997  0.00335  1.0000
  O   O32       1.0  0.07014  0.9918399999999998  0.92462  1.0000
  O   O33       1.0  0.35787  0.9659199999999998  0.9239500000000002  1.0000
  O   O34       1.0  0.4738  0.7147199999999998  0.11321000000000002  1.0000
  O   O35       1.0  0.24401999999999996  0.77175  0.10597  1.0000
  O   O36       1.0  0.70433  0.4239599999999999  0.99291  1.0000
  O   O37       1.0  0.61241  0.5553499999999998  0.06779  1.0000
  O   O38       1.0  0.8879  0.51251  0.0803  1.0000
  O   O39       1.0  0.04936999999999999  0.7902499999999999  0.91626  1.0000
  O   O40       1.0  0.80855  0.7784699999999998  0.88632  1.0000
  O   O41       1.0  0.03856  0.11639999999999998  0.2506  1.0000
  O   O42       1.0  0.53433  0.3931099999999999  0.75417  1.0000
  O   O43       1.0  0.9560800000000002  0.8833799999999998  0.75394  1.0000
  O   O44       1.0  0.46604  0.60661  0.2544100000000001  1.0000
