data_image0
_chemical_formula_structural       Cu8P8H28C28N4O28
_chemical_formula_sum              "Cu8 P8 H28 C28 N4 O28"
_cell_length_a       10.01614
_cell_length_b       10.93685
_cell_length_c       12.052390000000003
_cell_angle_alpha    76.12877
_cell_angle_beta     83.38869
_cell_angle_gamma    78.37465

_space_group_name_H-M_alt    "P 1"
_space_group_IT_number       1

loop_
  _space_group_symop_operation_xyz
  'x, y, z'

loop_
  _atom_site_type_symbol
  _atom_site_label
  _atom_site_symmetry_multiplicity
  _atom_site_fract_x
  _atom_site_fract_y
  _atom_site_fract_z
  _atom_site_occupancy
  Cu  Cu1       1.0  0.55169  0.005580000000000043  0.7935399999999999  1.0000
  Cu  Cu2       1.0  0.46639  0.7638800000000001  0.9497899999999998  1.0000
  Cu  Cu3       1.0  0.47886000000000006  0.59348  0.6625299999999998  1.0000
  Cu  Cu4       1.0  0.03615000000000003  0.21179000000000003  0.0644  1.0000
  Cu  Cu5       1.0  0.44831  0.9941200000000001  0.21003  1.0000
  Cu  Cu6       1.0  0.53335  0.2365  0.050639999999999984  1.0000
  Cu  Cu7       1.0  0.5207200000000001  0.40727000000000013  0.33779999999999993  1.0000
  Cu  Cu8       1.0  0.9616000000000001  0.78777  0.9356299999999999  1.0000
  P   P1        1.0  0.41248  0.8799200000000001  0.67215  1.0000
  P   P2        1.0  0.2323600000000001  0.7128900000000001  0.82479  1.0000
  P   P3        1.0  0.48141  0.30405000000000004  0.7968399999999999  1.0000
  P   P4        1.0  0.30444  0.13469000000000006  0.9465099999999997  1.0000
  P   P5        1.0  0.5868500000000001  0.12087000000000002  0.32792999999999994  1.0000
  P   P6        1.0  0.7672100000000002  0.2865  0.17643999999999996  1.0000
  P   P7        1.0  0.5168099999999999  0.6966400000000001  0.20317999999999997  1.0000
  P   P8        1.0  0.6946099999999998  0.8665800000000001  0.053999999999999986  1.0000
  H   H1        1.0  0.2172099999999999  0.9734400000000002  0.8344299999999999  1.0000
  H   H2        1.0  0.25130000000000013  0.4609100000000001  0.8404299999999998  1.0000
  H   H3        1.0  0.04292000000000001  0.88964  0.64279  1.0000
  H   H4        1.0  0.1787  0.7816400000000001  0.59193  1.0000
  H   H5        1.0  0.30033000000000004  0.84882  0.41095  1.0000
  H   H6        1.0  0.25531  0.22883  0.2381  1.0000
  H   H7        1.0  0.11753000000000004  0.3018600000000001  0.4039799999999999  1.0000
  H   H8        1.0  0.07344000000000003  0.13637  0.58376  1.0000
  H   H9        1.0  0.12879000000000004  0.24142  0.75996  1.0000
  H   H10       1.0  0.28743  0.16414000000000006  0.70545  1.0000
  H   H11       1.0  0.06255000000000001  0.4939  0.67567  1.0000
  H   H12       1.0  0.08339  0.65991  0.49129  1.0000
  H   H13       1.0  0.2749400000000001  0.61612  0.34653  1.0000
  H   H14       1.0  0.40466000000000013  0.25148  0.54061  1.0000
  H   H15       1.0  0.7816600000000004  0.024630000000000003  0.16802999999999998  1.0000
  H   H16       1.0  0.7429100000000002  0.53942  0.15956  1.0000
  H   H17       1.0  0.9543200000000001  0.11151000000000004  0.35812999999999995  1.0000
  H   H18       1.0  0.81848  0.21971000000000002  0.40883  1.0000
  H   H19       1.0  0.6959199999999999  0.15204000000000004  0.59002  1.0000
  H   H20       1.0  0.74235  0.77168  0.7622299999999999  1.0000
  H   H21       1.0  0.87995  0.69935  0.59599  1.0000
  H   H22       1.0  0.9238199999999996  0.8655800000000002  0.41649999999999987  1.0000
  H   H23       1.0  0.8701500000000002  0.75865  0.23885  1.0000
  H   H24       1.0  0.7122700000000001  0.83686  0.29334  1.0000
  H   H25       1.0  0.9352199999999999  0.50708  0.32311  1.0000
  H   H26       1.0  0.9145700000000001  0.34082  0.50744  1.0000
  H   H27       1.0  0.7238800000000001  0.38486  0.6527199999999999  1.0000
  H   H28       1.0  0.5950799999999999  0.7502800000000001  0.4594999999999999  1.0000
  C   C1        1.0  0.22893  0.86953  0.71943  1.0000
  C   C2        1.0  0.15190000000000003  0.87527  0.6145899999999999  1.0000
  C   C3        1.0  0.17773000000000003  0.9787  0.5104499999999998  1.0000
  C   C4        1.0  0.25479000000000007  0.9473200000000002  0.41338999999999987  1.0000
  C   C5        1.0  0.23085  0.16099  0.31612  1.0000
  C   C6        1.0  0.15479000000000004  0.20022  0.40952  1.0000
  C   C7        1.0  0.12983  0.10864000000000001  0.50819  1.0000
  C   C8        1.0  0.30003  0.27839  0.82887  1.0000
  C   C9        1.0  0.23356999999999997  0.25377  0.7279  1.0000
  C   C10       1.0  0.23223000000000002  0.35939  0.62236  1.0000
  C   C11       1.0  0.14086999999999997  0.47579  0.60803  1.0000
  C   C12       1.0  0.15348000000000003  0.56866  0.5068  1.0000
  C   C13       1.0  0.25837  0.5451600000000001  0.4244399999999999  1.0000
  C   C14       1.0  0.33283999999999997  0.34144  0.53423  1.0000
  C   C15       1.0  0.7687  0.13122  0.28135  1.0000
  C   C16       1.0  0.8453800000000001  0.12604  0.3862999999999999  1.0000
  C   C17       1.0  0.8192200000000001  0.022630000000000004  0.49024999999999996  1.0000
  C   C18       1.0  0.7418499999999999  0.05369000000000003  0.58734  1.0000
  C   C19       1.0  0.76638  0.8397500000000001  0.68427  1.0000
  C   C20       1.0  0.84249  0.8009  0.59073  1.0000
  C   C21       1.0  0.86731  0.89276  0.49224999999999997  1.0000
  C   C22       1.0  0.6980300000000002  0.7221200000000001  0.17089999999999997  1.0000
  C   C23       1.0  0.76541  0.7467800000000002  0.27140999999999993  1.0000
  C   C24       1.0  0.7665400000000007  0.64179  0.37723  1.0000
  C   C25       1.0  0.8574599999999999  0.5252100000000001  0.3911399999999999  1.0000
  C   C26       1.0  0.8449400000000001  0.4323  0.4923  1.0000
  C   C27       1.0  0.7405499999999999  0.45594000000000007  0.57496  1.0000
  C   C28       1.0  0.66639  0.66001  0.4656499999999999  1.0000
  N   N1        1.0  0.28248000000000006  0.036370000000000006  0.31908999999999993  1.0000
  N   N2        1.0  0.34735999999999995  0.43229  0.43873  1.0000
  N   N3        1.0  0.7144399999999999  0.96434  0.68152  1.0000
  N   N4        1.0  0.65193  0.56904  0.56111  1.0000
  O   O1        1.0  0.49444999999999995  0.83612  0.78401  1.0000
  O   O2        1.0  0.45311000000000007  0.77726  0.60029  1.0000
  O   O3        1.0  0.41992  0.016720000000000016  0.6166  1.0000
  O   O4        1.0  0.31185000000000007  0.6052900000000001  0.76787  1.0000
  O   O5        1.0  0.28625  0.7264500000000002  0.93408  1.0000
  O   O6        1.0  0.07928  0.6969600000000002  0.8447299999999998  1.0000
  O   O7        1.0  0.16012000000000004  0.9672  0.7750699999999998  1.0000
  O   O8        1.0  0.48561  0.41219999999999996  0.68883  1.0000
  O   O9        1.0  0.57299  0.18136  0.77193  1.0000
  O   O10       1.0  0.52051  0.34501000000000015  0.9008999999999998  1.0000
  O   O11       1.0  0.37963000000000013  0.018449999999999966  0.89902  1.0000
  O   O12       1.0  0.15372  0.1144800000000001  0.9788399999999998  1.0000
  O   O13       1.0  0.36593  0.16072000000000003  0.048899999999999985  1.0000
  O   O14       1.0  0.21504999999999994  0.38061000000000006  0.8722  1.0000
  O   O15       1.0  0.50454  0.16431000000000004  0.21552999999999997  1.0000
  O   O16       1.0  0.54585  0.22346  0.39969  1.0000
  O   O17       1.0  0.57427  0.98487  0.38305  1.0000
  O   O18       1.0  0.6874200000000001  0.39479  0.23222  1.0000
  O   O19       1.0  0.7135400000000001  0.27308000000000004  0.0663  1.0000
  O   O20       1.0  0.9197400000000001  0.30393  0.15462  1.0000
  O   O21       1.0  0.83951  0.03302000000000001  0.22590999999999997  1.0000
  O   O22       1.0  0.5142100000000001  0.58872  0.31160999999999994  1.0000
  O   O23       1.0  0.42482000000000003  0.81953  0.22735999999999995  1.0000
  O   O24       1.0  0.47905000000000003  0.65455  0.09946  1.0000
  O   O25       1.0  0.6203  0.98151  0.10386  1.0000
  O   O26       1.0  0.84604  0.8852000000000001  0.02225  1.0000
  O   O27       1.0  0.63274  0.84285  0.95092  1.0000
  O   O28       1.0  0.78059  0.61906  0.12783  1.0000
