data_image0
_chemical_formula_structural       Tb4Ag4H32C56N8O32
_chemical_formula_sum              "Tb4 Ag4 H32 C56 N8 O32"
_cell_length_a       9.69977
_cell_length_b       12.13195
_cell_length_c       16.77856
_cell_angle_alpha    96.41849000000002
_cell_angle_beta     89.99772
_cell_angle_gamma    113.34974

_symmetry_space_group_name_H-M    'P 1'
_symmetry_Int_Tables_number       1

loop_
  _symmetry_equiv_pos_as_xyz
  'x,y,z'

loop_
  _atom_site_type_symbol
  _atom_site_label
  _atom_site_symmetry_multiplicity
  _atom_site_fract_x
  _atom_site_fract_y
  _atom_site_fract_z
  _atom_site_occupancy
  Tb  Tb1       1.0  0.29492  0.99034  0.06675  1.0000
  Tb  Tb2       1.0  0.69714  0.991  0.56567  1.0000
  Tb  Tb3       1.0  0.7050699999999999  0.010469999999999993  0.93263  1.0000
  Tb  Tb4       1.0  0.30519  0.010759999999999997  0.4344799999999999  1.0000
  Ag  Ag1       1.0  0.72204  0.68333  0.41704999999999987  1.0000
  Ag  Ag2       1.0  0.96042  0.68279  0.91692  1.0000
  Ag  Ag3       1.0  0.27766  0.31661  0.58288  1.0000
  Ag  Ag4       1.0  0.03915  0.31694  0.08296  1.0000
  H   H1        1.0  0.83715  0.41055000000000014  0.95212  1.0000
  H   H2        1.0  0.09621999999999997  0.20011999999999996  0.7248299999999998  1.0000
  H   H3        1.0  0.12415999999999999  0.08978  0.83694  1.0000
  H   H4        1.0  0.23965999999999998  0.28988  0.9492  1.0000
  H   H5        1.0  0.5092599999999999  0.6426199999999999  0.8791999999999998  1.0000
  H   H6        1.0  0.76029  0.71034  0.05081  1.0000
  H   H7        1.0  0.86529  0.35581  0.62087  1.0000
  H   H8        1.0  0.57364  0.41169  0.45192  1.0000
  H   H9        1.0  0.3985500000000001  0.8113500000000001  0.72066  1.0000
  H   H10       1.0  0.7557899999999997  0.30182  0.1733  1.0000
  H   H11       1.0  0.42624  0.5881500000000001  0.54807  1.0000
  H   H12       1.0  0.03380000000000001  0.91043  0.66284  1.0000
  H   H13       1.0  0.9482699999999998  0.70923  0.55059  1.0000
  H   H14       1.0  0.54481  0.30167999999999995  0.6734299999999998  1.0000
  H   H15       1.0  0.96541  0.08928000000000001  0.33728  1.0000
  H   H16       1.0  0.41317  0.8118100000000001  0.22003999999999999  1.0000
  H   H17       1.0  0.60113  0.18869  0.27931  1.0000
  H   H18       1.0  0.13461999999999996  0.64407  0.37915  1.0000
  H   H19       1.0  0.8757099999999999  0.91019  0.16291  1.0000
  H   H20       1.0  0.10305  0.19936  0.22545999999999994  1.0000
  H   H21       1.0  0.24395000000000003  0.6980900000000001  0.8267199999999998  1.0000
  H   H22       1.0  0.8964399999999999  0.80037  0.7746899999999998  1.0000
  H   H23       1.0  0.16292999999999994  0.58969  0.04789  1.0000
  H   H24       1.0  0.56013  0.58474  0.13499  1.0000
  H   H25       1.0  0.58672  0.18825  0.77984  1.0000
  H   H26       1.0  0.49095999999999995  0.35746  0.12074999999999998  1.0000
  H   H27       1.0  0.9037199999999999  0.80006  0.27512  1.0000
  H   H28       1.0  0.051459999999999985  0.29056  0.44939  1.0000
  H   H29       1.0  0.45516  0.69854  0.32651  1.0000
  H   H30       1.0  0.43987  0.4154  0.8650099999999997  1.0000
  H   H31       1.0  0.022609999999999936  0.58226  0.63479  1.0000
  H   H32       1.0  0.9772699999999997  0.41757000000000005  0.3652  1.0000
  C   C1        1.0  0.7803300000000001  0.8652600000000003  0.19847  1.0000
  C   C2        1.0  0.77407  0.44728999999999997  0.9925999999999999  1.0000
  C   C3        1.0  0.03466000000000001  0.06886000000000003  0.51141  1.0000
  C   C4        1.0  0.41949999999999993  0.58194  0.9122499999999998  1.0000
  C   C5        1.0  0.67286  0.44730000000000003  0.49251  1.0000
  C   C6        1.0  0.79828  0.2528500000000001  0.21002  1.0000
  C   C7        1.0  0.61814  0.54251  0.09486999999999997  1.0000
  C   C8        1.0  0.3576099999999999  0.12767  0.81588  1.0000
  C   C9        1.0  0.83648  0.41685  0.5877  1.0000
  C   C10       1.0  0.7127899999999998  0.19068000000000004  0.2696999999999999  1.0000
  C   C11       1.0  0.38069  0.05580999999999998  0.8789599999999997  1.0000
  C   C12       1.0  0.5225500000000001  0.8095000000000001  0.23006  1.0000
  C   C13       1.0  0.70782  0.36946  0.53617  1.0000
  C   C14       1.0  0.03395999999999999  0.06977  0.0116  1.0000
  C   C15       1.0  0.67602  0.055920000000000004  0.37867999999999996  1.0000
  C   C16       1.0  0.62447  0.23624  0.02458  1.0000
  C   C17       1.0  0.45380999999999994  0.2527  0.71013  1.0000
  C   C18       1.0  0.29232  0.63072  0.46384  1.0000
  C   C19       1.0  0.66114  0.36984  0.03605999999999999  1.0000
  C   C20       1.0  0.0069899999999999815  0.80325  0.76043  1.0000
  C   C21       1.0  0.20143999999999998  0.74707  0.78999  1.0000
  C   C22       1.0  0.28684999999999994  0.8093200000000002  0.73032  1.0000
  C   C23       1.0  0.47730999999999996  0.19051999999999994  0.7698999999999998  1.0000
  C   C24       1.0  0.2235100000000001  0.9300400000000002  0.24564999999999998  1.0000
  C   C25       1.0  0.7698899999999999  0.1276  0.3156  1.0000
  C   C26       1.0  0.92278  0.54089  0.59474  1.0000
  C   C27       1.0  0.33916  0.63039  0.9641299999999999  1.0000
  C   C28       1.0  0.22603999999999996  0.55292  0.007429999999999998  1.0000
  C   C29       1.0  0.8821400000000001  0.6125500000000001  0.54818  1.0000
  C   C30       1.0  0.9925499999999999  0.19654  0.23964  1.0000
  C   C31       1.0  0.61051  0.23649  0.5251899999999998  1.0000
  C   C32       1.0  0.3893  0.76405  0.47504  1.0000
  C   C33       1.0  0.37506000000000006  0.7639600000000001  0.9750899999999999  1.0000
  C   C34       1.0  0.91496  0.13448000000000002  0.30162  1.0000
  C   C35       1.0  0.26967  0.38664  0.95166  1.0000
  C   C36       1.0  0.9666999999999999  0.93194  0.9882599999999999  1.0000
  C   C37       1.0  0.6422000000000001  0.8723800000000003  0.18409  1.0000
  C   C38       1.0  0.77715  0.06973  0.75449  1.0000
  C   C39       1.0  0.11772000000000002  0.38726000000000005  0.45176  1.0000
  C   C40       1.0  0.16354000000000002  0.5831000000000001  0.4123399999999999  1.0000
  C   C41       1.0  0.9648199999999999  0.93072  0.48825999999999997  1.0000
  C   C42       1.0  0.70649  0.92999  0.74453  1.0000
  C   C43       1.0  0.08455000000000014  0.8653700000000001  0.69846  1.0000
  C   C44       1.0  0.32703  0.55272  0.50749  1.0000
  C   C45       1.0  0.21956999999999996  0.13480000000000003  0.80142  1.0000
  C   C46       1.0  0.7304199999999997  0.6136100000000001  0.04838  1.0000
  C   C47       1.0  0.07713000000000005  0.4590100000000001  0.40527  1.0000
  C   C48       1.0  0.5461199999999999  0.74732  0.28978  1.0000
  C   C49       1.0  0.7962899999999999  0.8031799999999999  0.2604999999999999  1.0000
  C   C50       1.0  0.32369000000000003  0.9439100000000001  0.62104  1.0000
  C   C51       1.0  0.6192600000000001  0.9444900000000002  0.12112  1.0000
  C   C52       1.0  0.2941  0.06953999999999999  0.2549399999999999  1.0000
  C   C53       1.0  0.58074  0.41832000000000014  0.08780999999999997  1.0000
  C   C54       1.0  0.20364  0.19688  0.73937  1.0000
  C   C55       1.0  0.22964  0.87235  0.68436  1.0000
  C   C56       1.0  0.38197000000000003  0.45771  0.9051599999999997  1.0000
  N   N1        1.0  0.31858  0.25462  0.69325  1.0000
  N   N2        1.0  0.6813699999999999  0.7454  0.30662  1.0000
  N   N3        1.0  0.75933  0.5667600000000002  0.4971499999999999  1.0000
  N   N4        1.0  0.24059000000000003  0.4331600000000001  0.5027599999999998  1.0000
  N   N5        1.0  0.19316999999999993  0.43324  0.0028599999999999993  1.0000
  N   N6        1.0  0.9354099999999999  0.25457  0.19342  1.0000
  N   N7        1.0  0.06428000000000006  0.7453200000000001  0.80664  1.0000
  N   N8        1.0  0.80692  0.56698  0.9971799999999998  1.0000
  O   O1        1.0  0.20974999999999996  0.88093  0.30961  1.0000
  O   O2        1.0  0.5026  0.04056000000000001  0.87712  1.0000
  O   O3        1.0  0.25835  0.98307  0.57262  1.0000
  O   O4        1.0  0.16154  0.12653  0.48323  1.0000
  O   O5        1.0  0.84794  0.88564  0.9435799999999998  1.0000
  O   O6        1.0  0.66832  0.16726999999999997  0.5472799999999998  1.0000
  O   O7        1.0  0.66827  0.8799400000000002  0.80802  1.0000
  O   O8        1.0  0.18458  0.8763  0.17476999999999995  1.0000
  O   O9        1.0  0.72293  0.20352  0.9924599999999999  1.0000
  O   O10       1.0  0.5019200000000001  0.8318500000000001  0.95273  1.0000
  O   O11       1.0  0.03668000000000008  0.8840200000000001  0.44337  1.0000
  O   O12       1.0  0.33105000000000007  0.8327600000000001  0.4524899999999999  1.0000
  O   O13       1.0  0.78961  0.11995999999999998  0.6910699999999997  1.0000
  O   O14       1.0  0.69364  0.8769300000000001  0.67359  1.0000
  O   O15       1.0  0.74166  0.016849999999999976  0.4269699999999999  1.0000
  O   O16       1.0  0.47859  0.20491  0.49468  1.0000
  O   O17       1.0  0.49761999999999995  0.9605400000000001  0.12316999999999999  1.0000
  O   O18       1.0  0.49815999999999994  0.16817  0.04752999999999999  1.0000
  O   O19       1.0  0.8379199999999998  0.87317  0.51658  1.0000
  O   O20       1.0  0.15229  0.11619000000000002  0.05634999999999998  1.0000
  O   O21       1.0  0.33245  0.11859000000000003  0.19103  1.0000
  O   O22       1.0  0.30736  0.12383999999999999  0.3254999999999999  1.0000
  O   O23       1.0  0.96301  0.11596  0.55634  1.0000
  O   O24       1.0  0.46082  0.95981  0.62279  1.0000
  O   O25       1.0  0.03659999999999995  0.87409  0.016079999999999997  1.0000
  O   O26       1.0  0.53876  0.04003  0.37712  1.0000
  O   O27       1.0  0.72246  0.98365  0.07243  1.0000
  O   O28       1.0  0.27716  0.016449999999999996  0.92757  1.0000
  O   O29       1.0  0.27572  0.79662  0.00639  1.0000
  O   O30       1.0  0.5211999999999999  0.7960200000000001  0.5056399999999998  1.0000
  O   O31       1.0  0.8183099999999998  0.12295000000000002  0.82537  1.0000
  O   O32       1.0  0.9636199999999999  0.12729999999999997  0.9837299999999999  1.0000
