data_image0
_chemical_formula_structural       Dy2H36C30S6N24O12
_chemical_formula_sum              "Dy2 H36 C30 S6 N24 O12"
_cell_length_a       9.57343
_cell_length_b       11.47005
_cell_length_c       14.638000000000002
_cell_angle_alpha    69.96614999999998
_cell_angle_beta     85.7265
_cell_angle_gamma    86.52613000000001

_space_group_name_H-M_alt    "P 1"
_space_group_IT_number       1

loop_
  _space_group_symop_operation_xyz
  'x, y, z'

loop_
  _atom_site_type_symbol
  _atom_site_label
  _atom_site_symmetry_multiplicity
  _atom_site_fract_x
  _atom_site_fract_y
  _atom_site_fract_z
  _atom_site_occupancy
  Dy  Dy1       1.0  0.8115999999999999  0.9514100000000002  0.9992799999999998  1.0000
  Dy  Dy2       1.0  0.18646  0.05517000000000005  0.9994199999999999  1.0000
  H   H1        1.0  0.8566  0.3681300000000002  0.8478899999999998  1.0000
  H   H2        1.0  0.98043  0.3790599999999999  0.74518  1.0000
  H   H3        1.0  0.33341999999999994  0.36873000000000017  0.8967499999999998  1.0000
  H   H4        1.0  0.26999000000000006  0.47750000000000037  0.7971199999999999  1.0000
  H   H5        1.0  0.86996  0.9321600000000002  0.55917  1.0000
  H   H6        1.0  0.8637899999999998  0.07228000000000001  0.45755  1.0000
  H   H7        1.0  0.27471999999999996  0.35894  0.40017  1.0000
  H   H8        1.0  0.26421999999999995  0.29500000000000004  0.3084499999999999  1.0000
  H   H9        1.0  0.84869  0.08774000000000005  0.2886399999999999  1.0000
  H   H10       1.0  0.80179  0.23071  0.19619999999999996  1.0000
  H   H11       1.0  0.13042999999999996  0.5395000000000002  0.4291899999999999  1.0000
  H   H12       1.0  0.11908000000000003  0.40023999999999993  0.53201  1.0000
  H   H13       1.0  0.67596  0.0342  0.60986  1.0000
  H   H14       1.0  0.63393  0.10413999999999997  0.68757  1.0000
  H   H15       1.0  0.47139  0.8469600000000005  0.8124699999999998  1.0000
  H   H16       1.0  0.6439199999999999  0.838  0.7598099999999998  1.0000
  H   H17       1.0  0.028980000000000002  0.4824100000000001  0.9002699999999998  1.0000
  H   H18       1.0  0.08529  0.37689  0.01181  1.0000
  H   H19       1.0  0.14222  0.63338  0.15073  1.0000
  H   H20       1.0  0.017669999999999995  0.6224100000000001  0.25358  1.0000
  H   H21       1.0  0.66721  0.6314000000000001  0.10320999999999998  1.0000
  H   H22       1.0  0.72982  0.52265  0.20273999999999995  1.0000
  H   H23       1.0  0.12986000000000003  0.06786000000000005  0.4408499999999999  1.0000
  H   H24       1.0  0.13591999999999996  0.9275400000000003  0.54256  1.0000
  H   H25       1.0  0.72552  0.64057  0.60058  1.0000
  H   H26       1.0  0.73586  0.70463  0.69142  1.0000
  H   H27       1.0  0.15006  0.9128900000000002  0.7127199999999998  1.0000
  H   H28       1.0  0.19682  0.7705100000000005  0.8049899999999998  1.0000
  H   H29       1.0  0.86956  0.46048999999999995  0.5709  1.0000
  H   H30       1.0  0.8807  0.5995800000000002  0.46812  1.0000
  H   H31       1.0  0.32397  0.9657900000000001  0.3900899999999999  1.0000
  H   H32       1.0  0.36618  0.8957600000000002  0.3121599999999999  1.0000
  H   H33       1.0  0.52846  0.15291000000000002  0.18760999999999994  1.0000
  H   H34       1.0  0.35615  0.16182000000000005  0.24012999999999995  1.0000
  H   H35       1.0  0.97086  0.51766  0.09972999999999997  1.0000
  H   H36       1.0  0.9145199999999999  0.6232  0.9883  1.0000
  C   C1        1.0  0.91543  0.09797000000000004  0.14445999999999995  1.0000
  C   C2        1.0  0.88259  0.19597000000000003  0.6810099999999999  1.0000
  C   C3        1.0  0.0008300000000000145  0.2173700000000001  0.8696099999999998  1.0000
  C   C4        1.0  0.9119499999999999  0.31808000000000003  0.8026899999999998  1.0000
  C   C5        1.0  0.92749  0.01724  0.51885  1.0000
  C   C6        1.0  0.9805899999999999  0.30315000000000003  0.3144099999999999  1.0000
  C   C7        1.0  0.8838099999999999  0.15854000000000001  0.22057999999999994  1.0000
  C   C8        1.0  0.94234  0.09181000000000006  0.5826699999999999  1.0000
  C   C9        1.0  0.99385  0.40657  0.41536  1.0000
  C   C10       1.0  0.05724000000000002  0.4689900000000001  0.4756899999999999  1.0000
  C   C11       1.0  0.5782800000000001  0.8051800000000003  0.8286999999999998  1.0000
  C   C12       1.0  0.63952  0.85393  0.9022099999999997  1.0000
  C   C13       1.0  0.39987999999999996  0.61961  0.91512  1.0000
  C   C14       1.0  0.18896000000000002  0.5491400000000002  0.9603099999999998  1.0000
  C   C15       1.0  0.060769999999999984  0.4761099999999999  0.97274  1.0000
  C   C16       1.0  0.08194000000000004  0.9030400000000001  0.8576299999999998  1.0000
  C   C17       1.0  0.11710999999999996  0.8038500000000001  0.31879  1.0000
  C   C18       1.0  0.9984599999999999  0.78529  0.12975999999999996  1.0000
  C   C19       1.0  0.08712999999999999  0.6830700000000001  0.19644999999999996  1.0000
  C   C20       1.0  0.07222000000000002  0.98294  0.4813499999999999  1.0000
  C   C21       1.0  0.018969999999999997  0.69704  0.68576  1.0000
  C   C22       1.0  0.11421000000000003  0.8424800000000002  0.7810699999999998  1.0000
  C   C23       1.0  0.05754999999999999  0.90837  0.41734  1.0000
  C   C24       1.0  0.006100000000000019  0.5938600000000003  0.5848599999999998  1.0000
  C   C25       1.0  0.94271  0.53126  0.52463  1.0000
  C   C26       1.0  0.42204  0.19521000000000002  0.17155  1.0000
  C   C27       1.0  0.36049  0.14726  0.09795999999999998  1.0000
  C   C28       1.0  0.6001  0.38033999999999996  0.08493  1.0000
  C   C29       1.0  0.8111500000000001  0.45094  0.03964  1.0000
  C   C30       1.0  0.93934  0.52401  0.02719999999999999  1.0000
  S   S1        1.0  0.046730000000000015  0.22702000000000003  0.23379  1.0000
  S   S2        1.0  0.56782  0.63655  0.85671  1.0000
  S   S3        1.0  0.77268  0.2637700000000001  0.7520099999999997  1.0000
  S   S4        1.0  0.9532099999999999  0.7730100000000002  0.76651  1.0000
  S   S5        1.0  0.43268  0.3633700000000001  0.14345999999999998  1.0000
  S   S6        1.0  0.22785  0.73626  0.24807999999999997  1.0000
  N   N1        1.0  0.30832000000000004  0.53703  0.90488  1.0000
  N   N2        1.0  0.20696  0.63524  0.9993599999999999  1.0000
  N   N3        1.0  0.07494999999999997  0.34468000000000004  0.36249  1.0000
  N   N4        1.0  0.021189999999999994  0.20097  0.66506  1.0000
  N   N5        1.0  0.3419499999999999  0.6802600000000002  0.9715399999999997  1.0000
  N   N6        1.0  0.8289  0.12679000000000012  0.6323999999999997  1.0000
  N   N7        1.0  0.34006000000000003  0.45858000000000015  0.8504199999999997  1.0000
  N   N8        1.0  0.21856  0.30723000000000006  0.3714699999999999  1.0000
  N   N9        1.0  0.05842  0.13428000000000007  0.60224  1.0000
  N   N10       1.0  0.8592999999999998  0.4032600000000001  0.39956999999999987  1.0000
  N   N11       1.0  0.8503899999999999  0.3389900000000001  0.3346699999999999  1.0000
  N   N12       1.0  0.6826999999999999  0.11928000000000012  0.6186799999999998  1.0000
  N   N13       1.0  0.6917299999999998  0.46295  0.09498  1.0000
  N   N14       1.0  0.79316  0.3645400000000001  0.00103  1.0000
  N   N15       1.0  0.9249600000000001  0.6554500000000001  0.6377699999999997  1.0000
  N   N16       1.0  0.97828  0.7989800000000001  0.33482  1.0000
  N   N17       1.0  0.65827  0.31954  0.028839999999999994  1.0000
  N   N18       1.0  0.17109  0.87338  0.36737  1.0000
  N   N19       1.0  0.66036  0.54151  0.14915  1.0000
  N   N20       1.0  0.78179  0.6935900000000003  0.6282399999999998  1.0000
  N   N21       1.0  0.94135  0.86605  0.39788  1.0000
  N   N22       1.0  0.14059999999999997  0.5972600000000001  0.6005899999999997  1.0000
  N   N23       1.0  0.14915000000000003  0.6615500000000001  0.6653599999999997  1.0000
  N   N24       1.0  0.31789999999999996  0.8804400000000001  0.38137  1.0000
  O   O1        1.0  0.8231199999999999  0.041909999999999996  0.11861  1.0000
  O   O2        1.0  0.94465  0.11703000000000008  0.9264599999999997  1.0000
  O   O3        1.0  0.12845999999999996  0.23482000000000017  0.8764299999999998  1.0000
  O   O4        1.0  0.04206  0.10957000000000001  0.11026999999999999  1.0000
  O   O5        1.0  0.6867299999999997  0.7798900000000002  0.9813899999999998  1.0000
  O   O6        1.0  0.6454199999999999  0.97327  0.8745  1.0000
  O   O7        1.0  0.17459999999999995  0.9600600000000001  0.8815  1.0000
  O   O8        1.0  0.056100000000000004  0.88493  0.07367999999999997  1.0000
  O   O9        1.0  0.8697199999999999  0.7681600000000002  0.12357999999999997  1.0000
  O   O10       1.0  0.9551400000000002  0.8914500000000003  0.8933499999999999  1.0000
  O   O11       1.0  0.3127  0.22093000000000002  0.01905  1.0000
  O   O12       1.0  0.35314  0.028620000000000007  0.12421999999999997  1.0000
