data_image0
_chemical_formula_structural       Cu8H32C48N8O20
_chemical_formula_sum              "Cu8 H32 C48 N8 O20"
_cell_length_a       14.43204
_cell_length_b       10.41366
_cell_length_c       13.7985
_cell_angle_alpha    89.84823999999999
_cell_angle_beta     90.10475
_cell_angle_gamma    120.48385000000002

_space_group_name_H-M_alt    "P 1"
_space_group_IT_number       1

loop_
  _space_group_symop_operation_xyz
  'x, y, z'

loop_
  _atom_site_type_symbol
  _atom_site_label
  _atom_site_symmetry_multiplicity
  _atom_site_fract_x
  _atom_site_fract_y
  _atom_site_fract_z
  _atom_site_occupancy
  Cu  Cu1       1.0  0.11146  0.37641  0.5807699999999999  1.0000
  Cu  Cu2       1.0  0.5179  0.09464  0.9188399999999998  1.0000
  Cu  Cu3       1.0  0.38349  0.11510999999999999  0.08059999999999998  1.0000
  Cu  Cu4       1.0  0.98277  0.40777  0.41718  1.0000
  Cu  Cu5       1.0  0.88855  0.62359  0.41923  1.0000
  Cu  Cu6       1.0  0.48211000000000015  0.9053599999999999  0.08116  1.0000
  Cu  Cu7       1.0  0.61651  0.88489  0.9194  1.0000
  Cu  Cu8       1.0  0.01722999999999999  0.59223  0.5828299999999998  1.0000
  H   H1        1.0  0.54177  0.11141  0.6983899999999997  1.0000
  H   H2        1.0  0.69679  0.1541  0.5884199999999998  1.0000
  H   H3        1.0  0.90762  0.3234699999999999  0.8337199999999998  1.0000
  H   H4        1.0  0.74352  0.26387  0.93614  1.0000
  H   H5        1.0  0.27415  0.28768  0.5661999999999999  1.0000
  H   H6        1.0  0.38091  0.21677  0.67806  1.0000
  H   H7        1.0  0.21349000000000007  0.27649  0.9153499999999999  1.0000
  H   H8        1.0  0.11613  0.3454  0.79429  1.0000
  H   H9        1.0  0.9555700000000003  0.38598999999999994  0.19570999999999994  1.0000
  H   H10       1.0  0.79842  0.34152  0.08757  1.0000
  H   H11       1.0  0.59255  0.17743  0.33638  1.0000
  H   H12       1.0  0.75946  0.24128999999999998  0.43593999999999994  1.0000
  H   H13       1.0  0.22525  0.20806  0.06482  1.0000
  H   H14       1.0  0.12013  0.28274  0.17316999999999996  1.0000
  H   H15       1.0  0.28301  0.22200000000000003  0.41479  1.0000
  H   H16       1.0  0.38303  0.15308  0.29620999999999986  1.0000
  H   H17       1.0  0.45823000000000014  0.88859  0.30161  1.0000
  H   H18       1.0  0.30321  0.8459  0.41157999999999995  1.0000
  H   H19       1.0  0.09238000000000002  0.67653  0.16627999999999998  1.0000
  H   H20       1.0  0.2564800000000001  0.73613  0.06386  1.0000
  H   H21       1.0  0.72586  0.71232  0.43380999999999986  1.0000
  H   H22       1.0  0.6190899999999999  0.7832299999999999  0.32194  1.0000
  H   H23       1.0  0.78652  0.72351  0.08465  1.0000
  H   H24       1.0  0.88387  0.6546  0.20570999999999995  1.0000
  H   H25       1.0  0.044430000000000025  0.61401  0.80429  1.0000
  H   H26       1.0  0.20158  0.65848  0.91243  1.0000
  H   H27       1.0  0.40745  0.8225699999999999  0.66362  1.0000
  H   H28       1.0  0.24054000000000003  0.75871  0.56407  1.0000
  H   H29       1.0  0.7747500000000002  0.79194  0.9351899999999997  1.0000
  H   H30       1.0  0.8798800000000001  0.71726  0.82683  1.0000
  H   H31       1.0  0.71699  0.778  0.58521  1.0000
  H   H32       1.0  0.61697  0.84692  0.70379  1.0000
  C   C1        1.0  0.62412  0.15666  0.72472  1.0000
  C   C2        1.0  0.70947  0.18037  0.66507  1.0000
  C   C3        1.0  0.81278  0.23736  0.70436  1.0000
  C   C4        1.0  0.82746  0.27456  0.8027  1.0000
  C   C5        1.0  0.7384  0.24477  0.85845  1.0000
  C   C6        1.0  0.90585  0.25537  0.64297  1.0000
  C   C7        1.0  0.26557  0.28392  0.64434  1.0000
  C   C8        1.0  0.3233  0.24482  0.70676  1.0000
  C   C9        1.0  0.30501  0.24027  0.8064999999999999  1.0000
  C   C10       1.0  0.22995000000000004  0.2781  0.83873  1.0000
  C   C11       1.0  0.17567  0.31677  0.77224  1.0000
  C   C12       1.0  0.36228  0.19411  0.87836  1.0000
  C   C13       1.0  0.87414  0.3418399999999999  0.22320999999999994  1.0000
  C   C14       1.0  0.78784  0.31661  0.16448999999999997  1.0000
  C   C15       1.0  0.68508  0.26053  0.2047  1.0000
  C   C16       1.0  0.67192  0.22542000000000004  0.30355  1.0000
  C   C17       1.0  0.7623700000000002  0.25738  0.35813999999999996  1.0000
  C   C18       1.0  0.5923  0.24263  0.14224  1.0000
  C   C19       1.0  0.23416000000000003  0.21317  0.14311  1.0000
  C   C20       1.0  0.1774  0.25534  0.20399  1.0000
  C   C21       1.0  0.19517  0.26188  0.30392  1.0000
  C   C22       1.0  0.26885  0.22184999999999996  0.3377599999999999  1.0000
  C   C23       1.0  0.32338  0.18145  0.27282  1.0000
  C   C24       1.0  0.138  0.30888  0.37561  1.0000
  C   C25       1.0  0.37588  0.84333  0.27528  1.0000
  C   C26       1.0  0.29053  0.81963  0.3349299999999999  1.0000
  C   C27       1.0  0.18722  0.76264  0.29564  1.0000
  C   C28       1.0  0.17253999999999997  0.72544  0.1973  1.0000
  C   C29       1.0  0.26161  0.75523  0.14154999999999998  1.0000
  C   C30       1.0  0.09415  0.74462  0.35702999999999996  1.0000
  C   C31       1.0  0.73444  0.71608  0.35566  1.0000
  C   C32       1.0  0.67671  0.75518  0.2932399999999999  1.0000
  C   C33       1.0  0.69499  0.75972  0.19349999999999998  1.0000
  C   C34       1.0  0.77005  0.72189  0.16126999999999994  1.0000
  C   C35       1.0  0.82434  0.68323  0.22776  1.0000
  C   C36       1.0  0.6377300000000002  0.80589  0.12165  1.0000
  C   C37       1.0  0.12586000000000003  0.65816  0.77679  1.0000
  C   C38       1.0  0.21216  0.68339  0.83552  1.0000
  C   C39       1.0  0.31492  0.73947  0.7953  1.0000
  C   C40       1.0  0.32808000000000004  0.77458  0.69645  1.0000
  C   C41       1.0  0.23763000000000004  0.74262  0.6418599999999998  1.0000
  C   C42       1.0  0.40771000000000024  0.75737  0.85776  1.0000
  C   C43       1.0  0.76585  0.78683  0.85689  1.0000
  C   C44       1.0  0.8226000000000001  0.74465  0.79601  1.0000
  C   C45       1.0  0.80483  0.73812  0.69609  1.0000
  C   C46       1.0  0.73115  0.77815  0.6622399999999998  1.0000
  C   C47       1.0  0.6766300000000002  0.81855  0.7271799999999998  1.0000
  C   C48       1.0  0.8620100000000002  0.69112  0.6243899999999998  1.0000
  N   N1        1.0  0.63864  0.18551  0.82066  1.0000
  N   N2        1.0  0.19226  0.31833  0.6759  1.0000
  N   N3        1.0  0.86151  0.31617  0.31947999999999993  1.0000
  N   N4        1.0  0.30664  0.17782  0.17627  1.0000
  N   N5        1.0  0.36136999999999997  0.81449  0.17934  1.0000
  N   N6        1.0  0.80774  0.68167  0.32411  1.0000
  N   N7        1.0  0.13849  0.6838299999999999  0.6805199999999998  1.0000
  N   N8        1.0  0.69336  0.82217  0.82373  1.0000
  O   O1        1.0  0.0005099999999999999  0.34272  0.68038  1.0000
  O   O2        1.0  0.8893700000000003  0.18934  0.56382  1.0000
  O   O3        1.0  0.33071  0.17987  0.9657499999999998  1.0000
  O   O4        1.0  0.43631  0.17495  0.84461  1.0000
  O   O5        1.0  0.09386999999999997  0.51557  0.50912  1.0000
  O   O6        1.0  0.49708  0.1525  0.17686  1.0000
  O   O7        1.0  0.61084  0.31083  0.06273  1.0000
  O   O8        1.0  0.16868000000000005  0.31914  0.4633299999999999  1.0000
  O   O9        1.0  0.06574  0.33193  0.3416  1.0000
  O   O10       1.0  0.40306  0.97961  0.0064  1.0000
  O   O11       1.0  0.9994899999999999  0.65728  0.31961999999999996  1.0000
  O   O12       1.0  0.11062999999999994  0.81066  0.4361899999999999  1.0000
  O   O13       1.0  0.6692999999999999  0.8201299999999999  0.03425  1.0000
  O   O14       1.0  0.5637  0.82504  0.15539  1.0000
  O   O15       1.0  0.90613  0.48443  0.4908799999999999  1.0000
  O   O16       1.0  0.50292  0.8475  0.82314  1.0000
  O   O17       1.0  0.38916  0.68917  0.93727  1.0000
  O   O18       1.0  0.8313200000000001  0.68086  0.53667  1.0000
  O   O19       1.0  0.9342700000000003  0.66807  0.65841  1.0000
  O   O20       1.0  0.59695  0.02039  0.9935999999999998  1.0000
