data_image0
_chemical_formula_structural       U8Zn2P16H40C16O56
_chemical_formula_sum              "U8 Zn2 P16 H40 C16 O56"
_cell_length_a       10.06979
_cell_length_b       12.44773
_cell_length_c       16.47827
_cell_angle_alpha    97.91337000000001
_cell_angle_beta     90.91719000000002
_cell_angle_gamma    89.65933

_space_group_name_H-M_alt    "P 1"
_space_group_IT_number       1

loop_
  _space_group_symop_operation_xyz
  'x, y, z'

loop_
  _atom_site_type_symbol
  _atom_site_label
  _atom_site_symmetry_multiplicity
  _atom_site_fract_x
  _atom_site_fract_y
  _atom_site_fract_z
  _atom_site_occupancy
  U   U1        1.0  0.9267099999999999  0.7334900000000001  0.52509  1.0000
  U   U2        1.0  0.38026  0.7816  0.78337  1.0000
  U   U3        1.0  0.13007  0.21276000000000003  0.98157  1.0000
  U   U4        1.0  0.6074  0.21074000000000004  0.72465  1.0000
  U   U5        1.0  0.08324  0.2571400000000001  0.47945  1.0000
  U   U6        1.0  0.6181  0.19254  0.21642  1.0000
  U   U7        1.0  0.88067  0.74471  0.01408  1.0000
  U   U8        1.0  0.38874  0.81337  0.27859  1.0000
  Zn  Zn1       1.0  0.49463  0.50032  0.48919  1.0000
  Zn  Zn2       1.0  0.49642  0.99843  0.9976800000000001  1.0000
  P   P1        1.0  0.61024  0.6932600000000002  0.61079  1.0000
  P   P2        1.0  0.60599  0.7067800000000001  0.43036  1.0000
  P   P3        1.0  0.02108  0.77904  0.80983  1.0000
  P   P4        1.0  0.13303  0.61232  0.67708  1.0000
  P   P5        1.0  0.39753  0.16166  0.88851  1.0000
  P   P6        1.0  0.4539099999999999  0.23786  0.06886  1.0000
  P   P7        1.0  0.94876  0.25018  0.68394  1.0000
  P   P8        1.0  0.90496  0.12676000000000007  0.82631  1.0000
  P   P9        1.0  0.3971799999999999  0.29054000000000013  0.38448000000000004  1.0000
  P   P10       1.0  0.39005  0.31295  0.56805  1.0000
  P   P11       1.0  0.97705  0.21574  0.1914  1.0000
  P   P12       1.0  0.8608699999999999  0.37333  0.32825  1.0000
  P   P13       1.0  0.60619  0.8448900000000003  0.11084  1.0000
  P   P14       1.0  0.54315  0.75656  0.93515  1.0000
  P   P15       1.0  0.05487  0.7506300000000002  0.31991  1.0000
  P   P16       1.0  0.08763  0.87274  0.17417  1.0000
  H   H1        1.0  0.09839  0.46619  0.57671  1.0000
  H   H2        1.0  0.83188  0.8576200000000003  0.78602  1.0000
  H   H3        1.0  0.34388  0.705  0.56612  1.0000
  H   H4        1.0  0.8486300000000001  0.64926  0.70629  1.0000
  H   H5        1.0  0.43893  0.90084  0.49474  1.0000
  H   H6        1.0  0.59791  0.9155699999999999  0.54358  1.0000
  H   H7        1.0  0.4561200000000001  0.8993700000000002  0.60298  1.0000
  H   H8        1.0  0.99558  0.57788  0.88272  1.0000
  H   H9        1.0  0.16678  0.58864  0.85495  1.0000
  H   H10       1.0  0.06638  0.47861999999999993  0.80818  1.0000
  H   H11       1.0  0.02249  0.02170000000000004  0.89802  1.0000
  H   H12       1.0  0.08533999999999999  0.38728  0.691  1.0000
  H   H13       1.0  0.67091  0.13371000000000005  0.9104000000000001  1.0000
  H   H14       1.0  0.16733  0.17775  0.76565  1.0000
  H   H15       1.0  0.65182  0.36617  0.98975  1.0000
  H   H16       1.0  0.48897  0.39493000000000006  0.95254  1.0000
  H   H17       1.0  0.60904  0.33301  0.88365  1.0000
  H   H18       1.0  0.99572  0.029959999999999987  0.60808  1.0000
  H   H19       1.0  0.8333999999999999  0.03541  0.65156  1.0000
  H   H20       1.0  0.96  0.9532900000000001  0.69001  1.0000
  H   H21       1.0  0.89997  0.51826  0.42508  1.0000
  H   H22       1.0  0.17924  0.16281  0.22086  1.0000
  H   H23       1.0  0.65168  0.32132  0.43146  1.0000
  H   H24       1.0  0.1409  0.3525  0.29824  1.0000
  H   H25       1.0  0.58895  0.13149  0.5319  1.0000
  H   H26       1.0  0.4450700000000001  0.08892  0.47155  1.0000
  H   H27       1.0  0.5952  0.11513  0.42279  1.0000
  H   H28       1.0  0.98635  0.41883  0.12175  1.0000
  H   H29       1.0  0.81721  0.4015  0.1503  1.0000
  H   H30       1.0  0.9124599999999999  0.51353  0.19788  1.0000
  H   H31       1.0  0.9515699999999999  0.96685  0.10665  1.0000
  H   H32       1.0  0.91907  0.61013  0.31418  1.0000
  H   H33       1.0  0.32747  0.8699200000000001  0.08999  1.0000
  H   H34       1.0  0.83112  0.81891  0.23315  1.0000
  H   H35       1.0  0.34697  0.6374200000000001  0.02049  1.0000
  H   H36       1.0  0.51029  0.60783  0.05676  1.0000
  H   H37       1.0  0.39271  0.67561  0.1258  1.0000
  H   H38       1.0  0.9990799999999999  0.9692000000000001  0.39519  1.0000
  H   H39       1.0  0.15978  0.9697100000000002  0.35082  1.0000
  H   H40       1.0  0.02934  0.04762  0.31355  1.0000
  C   C1        1.0  0.52088  0.75181  0.52764  1.0000
  C   C2        1.0  0.50197  0.8741100000000002  0.54333  1.0000
  C   C3        1.0  0.01939  0.6331  0.766  1.0000
  C   C4        1.0  0.06673  0.56524  0.83185  1.0000
  C   C5        1.0  0.52269  0.22639000000000004  0.96384  1.0000
  C   C6        1.0  0.57183  0.33647000000000005  0.94685  1.0000
  C   C7        1.0  0.98896  0.12413000000000002  0.72668  1.0000
  C   C8        1.0  0.9407200000000001  0.028839999999999994  0.66496  1.0000
  C   C9        1.0  0.49049999999999994  0.25977  0.47757  1.0000
  C   C10       1.0  0.53226  0.14212  0.47564  1.0000
  C   C11       1.0  0.9698299999999999  0.3605  0.23762  1.0000
  C   C12       1.0  0.91658  0.42766  0.17291  1.0000
  C   C13       1.0  0.47777000000000003  0.7757000000000001  0.04039  1.0000
  C   C14       1.0  0.42875  0.6676800000000003  0.06198  1.0000
  C   C15       1.0  0.006890000000000002  0.8753799999999999  0.27581  1.0000
  C   C16       1.0  0.05186000000000001  0.9720500000000001  0.33769  1.0000
  O   O1        1.0  0.75305  0.74327  0.4422  1.0000
  O   O2        1.0  0.09451999999999999  0.6839500000000001  0.61138  1.0000
  O   O3        1.0  0.98403  0.79281  0.9002400000000003  1.0000
  O   O4        1.0  0.75857  0.73041  0.61531  1.0000
  O   O5        1.0  0.5401  0.74801  0.6898  1.0000
  O   O6        1.0  0.54163  0.77175  0.3658  1.0000
  O   O7        1.0  0.27519  0.63167  0.7086500000000001  1.0000
  O   O8        1.0  0.15316  0.83029  0.79282  1.0000
  O   O9        1.0  0.59658  0.57109  0.59224  1.0000
  O   O10       1.0  0.10609  0.48775000000000013  0.63952  1.0000
  O   O11       1.0  0.5898  0.58486  0.4125  1.0000
  O   O12       1.0  0.9055100000000001  0.82318  0.75459  1.0000
  O   O13       1.0  0.39392000000000005  0.69507  0.51518  1.0000
  O   O14       1.0  0.8878800000000001  0.60023  0.74203  1.0000
  O   O15       1.0  0.30846  0.27375  0.06469  1.0000
  O   O16       1.0  0.9595700000000001  0.22276000000000007  0.8856  1.0000
  O   O17       1.0  0.9613699999999998  0.22963  0.59023  1.0000
  O   O18       1.0  0.27966  0.23994  0.88024  1.0000
  O   O19       1.0  0.46667000000000003  0.12688  0.80628  1.0000
  O   O20       1.0  0.54271  0.31269  0.12938  1.0000
  O   O21       1.0  0.75345  0.12644  0.81369  1.0000
  O   O22       1.0  0.81028  0.29027  0.71049  1.0000
  O   O23       1.0  0.34726  0.06574000000000002  0.93162  1.0000
  O   O24       1.0  0.93987  0.015619999999999992  0.86077  1.0000
  O   O25       1.0  0.47046000000000004  0.12319  0.09775  1.0000
  O   O26       1.0  0.06216000000000001  0.32820000000000005  0.7239  1.0000
  O   O27       1.0  0.62601  0.14294999999999997  0.96444  1.0000
  O   O28       1.0  0.12798  0.11004  0.73877  1.0000
  O   O29       1.0  0.2587  0.24715000000000004  0.56266  1.0000
  O   O30       1.0  0.91829  0.30801  0.39352  1.0000
  O   O31       1.0  0.016089999999999997  0.20736  0.10171  1.0000
  O   O32       1.0  0.24726999999999996  0.25965  0.38872  1.0000
  O   O33       1.0  0.45951  0.21375  0.31182  1.0000
  O   O34       1.0  0.46756000000000003  0.28857  0.6452  1.0000
  O   O35       1.0  0.71867  0.34276  0.30168  1.0000
  O   O36       1.0  0.8483  0.15769  0.2058  1.0000
  O   O37       1.0  0.41678999999999994  0.4103000000000001  0.38152  1.0000
  O   O38       1.0  0.87431  0.49968000000000007  0.36435  1.0000
  O   O39       1.0  0.36549  0.4322700000000002  0.56121  1.0000
  O   O40       1.0  0.09216  0.16978  0.2461  1.0000
  O   O41       1.0  0.60662  0.33138  0.4844  1.0000
  O   O42       1.0  0.09964  0.39857000000000004  0.26112  1.0000
  O   O43       1.0  0.68802  0.71948  0.93716  1.0000
  O   O44       1.0  0.04111  0.77012  0.11893  1.0000
  O   O45       1.0  0.04633  0.7687600000000002  0.41374  1.0000
  O   O46       1.0  0.72647  0.76827  0.11896  1.0000
  O   O47       1.0  0.53661  0.87716  0.19401  1.0000
  O   O48       1.0  0.4514000000000001  0.67641  0.88057  1.0000
  O   O49       1.0  0.23902  0.8857600000000002  0.18579  1.0000
  O   O50       1.0  0.19557000000000005  0.7194300000000001  0.2913  1.0000
  O   O51       1.0  0.64424  0.94405  0.06944  1.0000
  O   O52       1.0  0.03969  0.9775800000000001  0.1345  1.0000
  O   O53       1.0  0.52139  0.8677499999999999  0.90119  1.0000
  O   O54       1.0  0.9463299999999999  0.66638  0.28031  1.0000
  O   O55       1.0  0.37247  0.85626  0.03615  1.0000
  O   O56       1.0  0.86702  0.8850900000000003  0.26498  1.0000
