data_image0
_chemical_formula_structural       In6H24C72O48
_chemical_formula_sum              "In6 H24 C72 O48"
_cell_length_a       17.9406
_cell_length_b       17.94094
_cell_length_c       17.94037
_cell_angle_alpha    109.47090999999999
_cell_angle_beta     109.47471
_cell_angle_gamma    109.47261

_symmetry_space_group_name_H-M    'P 1'
_symmetry_Int_Tables_number       1

loop_
  _symmetry_equiv_pos_as_xyz
  'x,y,z'

loop_
  _atom_site_type_symbol
  _atom_site_label
  _atom_site_symmetry_multiplicity
  _atom_site_fract_x
  _atom_site_fract_y
  _atom_site_fract_z
  _atom_site_occupancy
  In  In1       1.0  0.62469  0.87474  0.24995000000000006  1.0000
  In  In2       1.0  0.87498  0.62484  0.74988  1.0000
  In  In3       1.0  0.37501000000000007  0.7499200000000001  0.6248600000000002  1.0000
  In  In4       1.0  0.12485999999999992  0.24994999999999992  0.87491  1.0000
  In  In5       1.0  0.74992  0.37504  0.12495000000000002  1.0000
  In  In6       1.0  0.2499900000000001  0.12498000000000004  0.3751000000000001  1.0000
  H   H1        1.0  0.48263000000000017  0.8179400000000001  0.43703  1.0000
  H   H2        1.0  0.017560000000000065  0.9545599999999999  0.8353100000000001  1.0000
  H   H3        1.0  0.11917000000000005  0.6820800000000001  0.6647900000000001  1.0000
  H   H4        1.0  0.38093  0.54565  0.06312000000000002  1.0000
  H   H5        1.0  0.04566999999999997  0.56313  0.38087  1.0000
  H   H6        1.0  0.18207000000000007  0.16473  0.11926000000000003  1.0000
  H   H7        1.0  0.45439000000000007  0.33523  0.017440000000000008  1.0000
  H   H8        1.0  0.31778999999999996  0.9369599999999999  0.48254  1.0000
  H   H9        1.0  0.66474  0.61904  0.18206000000000006  1.0000
  H   H10       1.0  0.0631100000000001  0.88082  0.045510000000000016  1.0000
  H   H11       1.0  0.4368  0.98246  0.31769  1.0000
  H   H12       1.0  0.8352600000000002  0.5175300000000002  0.4544100000000001  1.0000
  H   H13       1.0  0.98261  0.43704  0.81789  1.0000
  H   H14       1.0  0.5174200000000001  0.83531  0.9546100000000002  1.0000
  H   H15       1.0  0.6191699999999999  0.66481  0.6822  1.0000
  H   H16       1.0  0.88083  0.0628700000000001  0.5455400000000002  1.0000
  H   H17       1.0  0.54566  0.38090000000000007  0.5630800000000001  1.0000
  H   H18       1.0  0.6824  0.11926000000000002  0.16476000000000005  1.0000
  H   H19       1.0  0.9544100000000001  0.017530000000000073  0.33517000000000013  1.0000
  H   H20       1.0  0.8178400000000001  0.4826000000000002  0.9370300000000003  1.0000
  H   H21       1.0  0.1647500000000001  0.18227000000000004  0.6191200000000002  1.0000
  H   H22       1.0  0.56303  0.04549000000000003  0.8808  1.0000
  H   H23       1.0  0.9368100000000001  0.31767999999999996  0.9824300000000001  1.0000
  H   H24       1.0  0.33525000000000016  0.45443000000000006  0.5174800000000003  1.0000
  C   C1        1.0  0.52172  0.88351  0.3310500000000001  1.0000
  C   C2        1.0  0.46547  0.8986100000000001  0.3730500000000001  1.0000
  C   C3        1.0  0.45215000000000005  0.8593900000000001  0.42655000000000004  1.0000
  C   C4        1.0  0.9782899999999999  0.8093  0.86152  1.0000
  C   C5        1.0  0.03456000000000025  0.9075700000000002  0.9330500000000003  1.0000
  C   C6        1.0  0.04786000000000013  0.9744400000000001  0.9072200000000002  1.0000
  C   C7        1.0  0.9476000000000002  0.6164300000000001  0.6382500000000001  1.0000
  C   C8        1.0  0.9744900000000001  0.6013800000000002  0.5668800000000003  1.0000
  C   C9        1.0  0.06723000000000005  0.64074  0.5928300000000002  1.0000
  C   C10       1.0  0.5525400000000001  0.69073  0.16897000000000006  1.0000
  C   C11       1.0  0.52559  0.59244  0.12693  1.0000
  C   C12       1.0  0.43284000000000006  0.52563  0.07355000000000003  1.0000
  C   C13       1.0  0.19073999999999994  0.66895  0.55235  1.0000
  C   C14       1.0  0.09247  0.62692  0.52553  1.0000
  C   C15       1.0  0.025619999999999976  0.57352  0.43277  1.0000
  C   C16       1.0  0.11659000000000008  0.13840000000000005  0.9477300000000001  1.0000
  C   C17       1.0  0.1014300000000001  0.06695000000000007  0.9745500000000002  1.0000
  C   C18       1.0  0.14063000000000003  0.09281999999999999  0.06727  1.0000
  C   C19       1.0  0.30924000000000024  0.3616400000000002  0.9783000000000002  1.0000
  C   C20       1.0  0.40753000000000006  0.43309  0.03453  1.0000
  C   C21       1.0  0.47431000000000006  0.40714  0.04774000000000001  1.0000
  C   C22       1.0  0.3834600000000002  0.8311700000000001  0.5218200000000002  1.0000
  C   C23       1.0  0.39861  0.87313  0.4655300000000001  1.0000
  C   C24       1.0  0.3592200000000001  0.9264600000000001  0.4520400000000001  1.0000
  C   C25       1.0  0.6382600000000003  0.44754  0.11644000000000003  1.0000
  C   C26       1.0  0.56686  0.4744  0.10133000000000003  1.0000
  C   C27       1.0  0.5928  0.56713  0.14063  1.0000
  C   C28       1.0  0.16896000000000005  0.05229000000000003  0.19073000000000004  1.0000
  C   C29       1.0  0.12695  0.02551  0.09246  1.0000
  C   C30       1.0  0.07355999999999999  0.93278  0.025560000000000006  1.0000
  C   C31       1.0  0.33098  0.021679999999999984  0.38333  1.0000
  C   C32       1.0  0.37301000000000006  0.9654800000000001  0.3985500000000001  1.0000
  C   C33       1.0  0.4265000000000001  0.9521500000000002  0.35931  1.0000
  C   C34       1.0  0.8616400000000001  0.4782699999999999  0.30922  1.0000
  C   C35       1.0  0.93311  0.5345400000000001  0.4075100000000001  1.0000
  C   C36       1.0  0.90718  0.54781  0.47433  1.0000
  C   C37       1.0  0.021750000000000127  0.3310800000000001  0.8834200000000002  1.0000
  C   C38       1.0  0.9654900000000001  0.37308  0.89859  1.0000
  C   C39       1.0  0.95221  0.42663  0.85941  1.0000
  C   C40       1.0  0.47824000000000005  0.8615300000000001  0.8093100000000001  1.0000
  C   C41       1.0  0.5345  0.9330500000000002  0.9076  1.0000
  C   C42       1.0  0.5478500000000001  0.9072200000000002  0.97448  1.0000
  C   C43       1.0  0.44760000000000005  0.63829  0.61651  1.0000
  C   C44       1.0  0.4744700000000003  0.5669100000000001  0.6014000000000003  1.0000
  C   C45       1.0  0.56723  0.59287  0.6406700000000001  1.0000
  C   C46       1.0  0.05238000000000014  0.1688800000000001  0.6906800000000002  1.0000
  C   C47       1.0  0.025510000000000106  0.12690000000000012  0.5924000000000003  1.0000
  C   C48       1.0  0.9327700000000001  0.07343000000000008  0.5255400000000002  1.0000
  C   C49       1.0  0.6907600000000002  0.5524100000000002  0.6689800000000002  1.0000
  C   C50       1.0  0.59248  0.52557  0.62698  1.0000
  C   C51       1.0  0.52564  0.43283  0.57354  1.0000
  C   C52       1.0  0.6167  0.9478100000000002  0.1385  1.0000
  C   C53       1.0  0.60149  0.9745600000000001  0.06699  1.0000
  C   C54       1.0  0.6409  0.06729  0.09284  1.0000
  C   C55       1.0  0.80927  0.97823  0.36151000000000005  1.0000
  C   C56       1.0  0.9075400000000001  0.03451000000000004  0.43303000000000014  1.0000
  C   C57       1.0  0.9743499999999999  0.04791999999999999  0.40709  1.0000
  C   C58       1.0  0.8834400000000002  0.5218  0.8311300000000003  1.0000
  C   C59       1.0  0.8986  0.4655300000000001  0.8731100000000003  1.0000
  C   C60       1.0  0.85932  0.45216  0.92657  1.0000
  C   C61       1.0  0.13829000000000002  0.11651999999999997  0.44757  1.0000
  C   C62       1.0  0.06689000000000002  0.10142000000000004  0.47442  1.0000
  C   C63       1.0  0.0928100000000001  0.1406600000000001  0.5671700000000002  1.0000
  C   C64       1.0  0.6689800000000001  0.19072000000000003  0.05230000000000001  1.0000
  C   C65       1.0  0.6270100000000001  0.09245  0.02551  1.0000
  C   C66       1.0  0.57345  0.025560000000000083  0.9327800000000003  1.0000
  C   C67       1.0  0.8310900000000002  0.38338  0.02176000000000001  1.0000
  C   C68       1.0  0.8730400000000001  0.3985600000000001  0.9654800000000002  1.0000
  C   C69       1.0  0.9264000000000003  0.3592000000000002  0.9520100000000002  1.0000
  C   C70       1.0  0.36167000000000005  0.30928999999999995  0.47824000000000005  1.0000
  C   C71       1.0  0.43313  0.40757000000000004  0.5345000000000001  1.0000
  C   C72       1.0  0.4071800000000002  0.4743700000000002  0.5479100000000002  1.0000
  O   O1        1.0  0.52956  0.91626  0.2781900000000001  1.0000
  O   O2        1.0  0.56254  0.84053  0.3477  1.0000
  O   O3        1.0  0.97041  0.7484500000000001  0.8862800000000002  1.0000
  O   O4        1.0  0.93753  0.78531  0.77783  1.0000
  O   O5        1.0  0.8619400000000003  0.58356  0.61334  1.0000
  O   O6        1.0  0.007240000000000141  0.6595100000000002  0.7220300000000002  1.0000
  O   O7        1.0  0.63819  0.75144  0.22195  1.0000
  O   O8        1.0  0.49293000000000003  0.71489  0.1523  1.0000
  O   O9        1.0  0.2515100000000001  0.72191  0.6379800000000002  1.0000
  O   O10       1.0  0.2148400000000001  0.6522300000000001  0.4927300000000001  1.0000
  O   O11       1.0  0.08379  0.11353999999999999  0.86209  1.0000
  O   O12       1.0  0.15962  0.22212  0.007420000000000002  1.0000
  O   O13       1.0  0.24840000000000018  0.3863900000000002  0.9703500000000003  1.0000
  O   O14       1.0  0.28529000000000004  0.27793000000000007  0.9376100000000002  1.0000
  O   O15       1.0  0.41611000000000015  0.7781800000000002  0.5295700000000002  1.0000
  O   O16       1.0  0.34047000000000016  0.8477800000000001  0.5625600000000002  1.0000
  O   O17       1.0  0.6133300000000002  0.36189  0.08359000000000003  1.0000
  O   O18       1.0  0.72201  0.5072  0.15947000000000006  1.0000
  O   O19       1.0  0.22195000000000006  0.13791000000000003  0.25156000000000006  1.0000
  O   O20       1.0  0.15220000000000006  0.9926  0.21476000000000006  1.0000
  O   O21       1.0  0.27813  0.0296  0.4161  1.0000
  O   O22       1.0  0.3477100000000001  0.06250000000000003  0.34042  1.0000
  O   O23       1.0  0.8864300000000002  0.47034000000000004  0.24840000000000007  1.0000
  O   O24       1.0  0.7779500000000001  0.4375300000000001  0.28526000000000007  1.0000
  O   O25       1.0  0.029600000000000133  0.2781900000000001  0.9161400000000002  1.0000
  O   O26       1.0  0.06258000000000004  0.34777  0.84049  1.0000
  O   O27       1.0  0.4703500000000001  0.8863000000000001  0.7484700000000002  1.0000
  O   O28       1.0  0.43753  0.77785  0.78535  1.0000
  O   O29       1.0  0.3619400000000001  0.6133900000000001  0.5836700000000002  1.0000
  O   O30       1.0  0.5072500000000001  0.7220400000000002  0.65955  1.0000
  O   O31       1.0  0.13804  0.22176000000000007  0.7514400000000001  1.0000
  O   O32       1.0  0.9928000000000007  0.15219000000000016  0.7148500000000002  1.0000
  O   O33       1.0  0.75153  0.63805  0.72187  1.0000
  O   O34       1.0  0.71486  0.49279  0.65226  1.0000
  O   O35       1.0  0.5839800000000002  0.8621800000000002  0.11370000000000002  1.0000
  O   O36       1.0  0.6596800000000002  0.0075000000000000275  0.22220000000000006  1.0000
  O   O37       1.0  0.7484000000000002  0.9703600000000001  0.38621000000000005  1.0000
  O   O38       1.0  0.7853300000000002  0.9375500000000001  0.2778200000000001  1.0000
  O   O39       1.0  0.9161600000000001  0.52963  0.77822  1.0000
  O   O40       1.0  0.84049  0.5626  0.8478100000000002  1.0000
  O   O41       1.0  0.11340000000000006  0.08369000000000008  0.36192000000000013  1.0000
  O   O42       1.0  0.22203000000000006  0.15948  0.50723  1.0000
  O   O43       1.0  0.7219  0.25151  0.13794  1.0000
  O   O44       1.0  0.6522300000000001  0.21480000000000005  0.9926700000000003  1.0000
  O   O45       1.0  0.7781100000000001  0.41603  0.02957  1.0000
  O   O46       1.0  0.84776  0.34043  0.06252  1.0000
  O   O47       1.0  0.38649  0.24850000000000003  0.4704400000000001  1.0000
  O   O48       1.0  0.2779600000000001  0.28527  0.43753  1.0000
