data_image0
_chemical_formula_structural       Cd6H32C64O32
_chemical_formula_sum              "Cd6 H32 C64 O32"
_cell_length_a       11.30884
_cell_length_b       11.323740000000003
_cell_length_c       15.251360000000002
_cell_angle_alpha    96.89881
_cell_angle_beta     96.83572
_cell_angle_gamma    104.62603999999999

_symmetry_space_group_name_H-M    'P 1'
_symmetry_Int_Tables_number       1

loop_
  _symmetry_equiv_pos_as_xyz
  'x,y,z'

loop_
  _atom_site_type_symbol
  _atom_site_label
  _atom_site_symmetry_multiplicity
  _atom_site_fract_x
  _atom_site_fract_y
  _atom_site_fract_z
  _atom_site_occupancy
  Cd  Cd1       1.0  0.55041  0.13191000000000003  0.4248400000000001  1.0000
  Cd  Cd2       1.0  0.86826  0.44936  0.07470000000000003  1.0000
  Cd  Cd3       1.0  0.44958999999999993  0.8680899999999999  0.57517  1.0000
  Cd  Cd4       1.0  0.13174  0.55064  0.9253  1.0000
  Cd  Cd5       1.0  0.3222  0.67758  0.75077  1.0000
  Cd  Cd6       1.0  0.6778  0.32242  0.24924000000000002  1.0000
  H   H1        1.0  0.17282  0.94394  0.55958  1.0000
  H   H2        1.0  0.37361000000000005  0.3216800000000001  0.6588400000000002  1.0000
  H   H3        1.0  0.01143000000000006  0.9629400000000001  0.6558200000000002  1.0000
  H   H4        1.0  0.03441000000000001  0.16398  0.75459  1.0000
  H   H5        1.0  0.58096  0.8187600000000002  0.91786  1.0000
  H   H6        1.0  0.7715199999999999  0.97718  0.9981900000000001  1.0000
  H   H7        1.0  0.3968  0.86518  0.14519  1.0000
  H   H8        1.0  0.77292  0.07882  0.15443  1.0000
  H   H9        1.0  0.05677000000000001  0.8276  0.94071  1.0000
  H   H10       1.0  0.67887  0.6261500000000001  0.84148  1.0000
  H   H11       1.0  0.03727000000000006  0.9884300000000003  0.8443300000000002  1.0000
  H   H12       1.0  0.83593  0.9649399999999998  0.74575  1.0000
  H   H13       1.0  0.18114999999999998  0.4185900000000001  0.5822300000000002  1.0000
  H   H14       1.0  0.022750000000000024  0.22841000000000006  0.5016300000000001  1.0000
  H   H15       1.0  0.13438  0.60292  0.35521  1.0000
  H   H16       1.0  0.9210199999999996  0.22711  0.3454700000000001  1.0000
  H   H17       1.0  0.82718  0.056060000000000026  0.4404200000000001  1.0000
  H   H18       1.0  0.62639  0.67832  0.34117000000000003  1.0000
  H   H19       1.0  0.98857  0.03706  0.34418  1.0000
  H   H20       1.0  0.9655899999999997  0.83602  0.24542000000000005  1.0000
  H   H21       1.0  0.41903  0.18124  0.08215  1.0000
  H   H22       1.0  0.22848  0.02282  0.00181  1.0000
  H   H23       1.0  0.60319  0.13483000000000006  0.8548100000000002  1.0000
  H   H24       1.0  0.22706999999999994  0.92118  0.84557  1.0000
  H   H25       1.0  0.9432299999999999  0.1724  0.05929  1.0000
  H   H26       1.0  0.32113  0.37385  0.15853  1.0000
  H   H27       1.0  0.96272  0.01157  0.15567  1.0000
  H   H28       1.0  0.16407  0.03507  0.25426  1.0000
  H   H29       1.0  0.81885  0.58141  0.41777  1.0000
  H   H30       1.0  0.9772499999999998  0.77159  0.49837  1.0000
  H   H31       1.0  0.86562  0.39708  0.64479  1.0000
  H   H32       1.0  0.07898000000000005  0.77289  0.6545400000000002  1.0000
  C   C1        1.0  0.3760200000000001  0.12254000000000004  0.5444400000000003  1.0000
  C   C2        1.0  0.28267  0.13131  0.60399  1.0000
  C   C3        1.0  0.18046  0.030060000000000007  0.60302  1.0000
  C   C4        1.0  0.29536  0.2429  0.65924  1.0000
  C   C5        1.0  0.09107000000000003  0.04114000000000003  0.6572400000000003  1.0000
  C   C6        1.0  0.10341000000000002  0.1525400000000001  0.7125800000000002  1.0000
  C   C7        1.0  0.20555  0.25394  0.7132600000000001  1.0000
  C   C8        1.0  0.21580000000000002  0.3774600000000001  0.76601  1.0000
  C   C9        1.0  0.36299  0.74242  0.9772800000000003  1.0000
  C   C10       1.0  0.5836  0.8649400000000002  0.9851700000000002  1.0000
  C   C11       1.0  0.47726  0.83481  0.02597  1.0000
  C   C12       1.0  0.6902199999999998  0.9529900000000001  0.030910000000000007  1.0000
  C   C13       1.0  0.47876999999999986  0.88972  0.11328  1.0000
  C   C14       1.0  0.69169  0.009219999999999996  0.11768  1.0000
  C   C15       1.0  0.5865699999999999  0.9760700000000001  0.15954  1.0000
  C   C16       1.0  0.58914  0.030669999999999992  0.25337  1.0000
  C   C17       1.0  0.87752  0.6235000000000002  0.95548  1.0000
  C   C18       1.0  0.86925  0.71727  0.8962700000000002  1.0000
  C   C19       1.0  0.97049  0.81954  0.8972600000000002  1.0000
  C   C20       1.0  0.7574899999999998  0.70455  0.8411100000000001  1.0000
  C   C21       1.0  0.9591999999999999  0.9087200000000001  0.8430300000000002  1.0000
  C   C22       1.0  0.8476300000000001  0.8962200000000001  0.7877900000000002  1.0000
  C   C23       1.0  0.7462299999999997  0.7942  0.7871800000000002  1.0000
  C   C24       1.0  0.62237  0.7844200000000001  0.7349400000000003  1.0000
  C   C25       1.0  0.25736  0.6366700000000001  0.5242900000000003  1.0000
  C   C26       1.0  0.13503  0.41613999999999995  0.51496  1.0000
  C   C27       1.0  0.16529  0.52267  0.47462  1.0000
  C   C28       1.0  0.046950000000000026  0.30969000000000013  0.46899  1.0000
  C   C29       1.0  0.11022999999999993  0.5212299999999999  0.3873  1.0000
  C   C30       1.0  0.99059  0.30837000000000003  0.3822200000000001  1.0000
  C   C31       1.0  0.023620000000000013  0.41364  0.34066  1.0000
  C   C32       1.0  0.96939  0.41245  0.24675  1.0000
  C   C33       1.0  0.62398  0.8774600000000002  0.4555700000000001  1.0000
  C   C34       1.0  0.71733  0.86869  0.39601  1.0000
  C   C35       1.0  0.8195399999999998  0.9699399999999999  0.39698  1.0000
  C   C36       1.0  0.70464  0.7570999999999999  0.34076  1.0000
  C   C37       1.0  0.9089299999999999  0.95886  0.34277000000000013  1.0000
  C   C38       1.0  0.89659  0.84746  0.2874200000000001  1.0000
  C   C39       1.0  0.79445  0.74606  0.28674  1.0000
  C   C40       1.0  0.7842  0.62254  0.23399  1.0000
  C   C41       1.0  0.63701  0.25758  0.022720000000000008  1.0000
  C   C42       1.0  0.41639999999999994  0.13506  0.014830000000000003  1.0000
  C   C43       1.0  0.5227399999999999  0.16520000000000007  0.9740400000000002  1.0000
  C   C44       1.0  0.30978  0.04701  0.96909  1.0000
  C   C45       1.0  0.52123  0.11028000000000004  0.88672  1.0000
  C   C46       1.0  0.30831  0.99078  0.8823200000000002  1.0000
  C   C47       1.0  0.4134300000000001  0.02393000000000003  0.8404600000000002  1.0000
  C   C48       1.0  0.41085  0.9693300000000002  0.74663  1.0000
  C   C49       1.0  0.12248000000000002  0.3765  0.044530000000000014  1.0000
  C   C50       1.0  0.13074999999999998  0.28273  0.10374  1.0000
  C   C51       1.0  0.029510000000000015  0.18046  0.10274000000000003  1.0000
  C   C52       1.0  0.24251  0.29546  0.1589  1.0000
  C   C53       1.0  0.040799999999999996  0.09128  0.15697  1.0000
  C   C54       1.0  0.15237  0.10378000000000001  0.21221000000000007  1.0000
  C   C55       1.0  0.25376  0.2058  0.21282000000000004  1.0000
  C   C56       1.0  0.37763  0.21558  0.26507  1.0000
  C   C57       1.0  0.7426400000000001  0.36333000000000004  0.4757200000000001  1.0000
  C   C58       1.0  0.8649699999999998  0.5838600000000002  0.48504000000000014  1.0000
  C   C59       1.0  0.83471  0.47733  0.52539  1.0000
  C   C60       1.0  0.95305  0.69031  0.53102  1.0000
  C   C61       1.0  0.8897699999999998  0.47877  0.6127  1.0000
  C   C62       1.0  0.009410000000000019  0.69163  0.61779  1.0000
  C   C63       1.0  0.9763799999999998  0.58637  0.65935  1.0000
  C   C64       1.0  0.030610000000000012  0.58755  0.75325  1.0000
  O   O1        1.0  0.3749400000000001  0.01697000000000001  0.50199  1.0000
  O   O2        1.0  0.45402000000000003  0.22018000000000001  0.53385  1.0000
  O   O3        1.0  0.26195  0.73214  0.008650000000000003  1.0000
  O   O4        1.0  0.3687499999999999  0.6725899999999999  0.90627  1.0000
  O   O5        1.0  0.27207  0.4700600000000001  0.7326300000000002  1.0000
  O   O6        1.0  0.16684  0.38077  0.8362600000000002  1.0000
  O   O7        1.0  0.67244  0.13146000000000005  0.2889600000000001  1.0000
  O   O8        1.0  0.51026  0.97631  0.29796  1.0000
  O   O9        1.0  0.98267  0.6253  0.9993100000000001  1.0000
  O   O10       1.0  0.77978  0.54401  0.9642700000000002  1.0000
  O   O11       1.0  0.26783  0.73791  0.49335  1.0000
  O   O12       1.0  0.32656  0.63055  0.59551  1.0000
  O   O13       1.0  0.52999  0.72922  0.76909  1.0000
  O   O14       1.0  0.6189000000000001  0.8330400000000001  0.66458  1.0000
  O   O15       1.0  0.8694400000000001  0.3285000000000001  0.20943  1.0000
  O   O16       1.0  0.023569999999999987  0.49367  0.20391  1.0000
  O   O17       1.0  0.6250600000000001  0.98303  0.4980100000000001  1.0000
  O   O18       1.0  0.5459800000000001  0.77982  0.4661500000000001  1.0000
  O   O19       1.0  0.7380500000000001  0.26786000000000004  0.9913600000000002  1.0000
  O   O20       1.0  0.63125  0.32741  0.09373  1.0000
  O   O21       1.0  0.7279299999999999  0.52994  0.2673800000000001  1.0000
  O   O22       1.0  0.8331599999999999  0.61923  0.16374  1.0000
  O   O23       1.0  0.3275599999999999  0.8685399999999999  0.71104  1.0000
  O   O24       1.0  0.4897399999999999  0.02369  0.70204  1.0000
  O   O25       1.0  0.017320000000000016  0.37470000000000003  0.0007  1.0000
  O   O26       1.0  0.22022  0.45599  0.035740000000000015  1.0000
  O   O27       1.0  0.73217  0.26209  0.50665  1.0000
  O   O28       1.0  0.6734400000000001  0.36945  0.40450000000000014  1.0000
  O   O29       1.0  0.47001  0.27078  0.23091  1.0000
  O   O30       1.0  0.3811  0.16696000000000005  0.3354200000000001  1.0000
  O   O31       1.0  0.13056  0.6715  0.7905700000000002  1.0000
  O   O32       1.0  0.97643  0.50633  0.7961000000000003  1.0000
