data_image0
_chemical_formula_structural       Mn12H24C24O48
_chemical_formula_sum              "Mn12 H24 C24 O48"
_cell_length_a       10.22708
_cell_length_b       11.797169999999998
_cell_length_c       15.045590000000002
_cell_angle_alpha    91.81538
_cell_angle_beta     89.97472000000002
_cell_angle_gamma    89.98335999999999

_symmetry_space_group_name_H-M    'P 1'
_symmetry_Int_Tables_number       1

loop_
  _symmetry_equiv_pos_as_xyz
  'x,y,z'

loop_
  _atom_site_type_symbol
  _atom_site_label
  _atom_site_symmetry_multiplicity
  _atom_site_fract_x
  _atom_site_fract_y
  _atom_site_fract_z
  _atom_site_occupancy
  Mn  Mn1       1.0  0.91752  0.75673  0.13141  1.0000
  Mn  Mn2       1.0  0.10056000000000002  0.73965  0.31494  1.0000
  Mn  Mn3       1.0  0.4176  0.74111  0.36856  1.0000
  Mn  Mn4       1.0  0.6008200000000001  0.75936  0.18469999999999998  1.0000
  Mn  Mn5       1.0  0.08248000000000003  0.24328  0.86859  1.0000
  Mn  Mn6       1.0  0.8994400000000001  0.26035  0.68506  1.0000
  Mn  Mn7       1.0  0.5824  0.25889  0.63145  1.0000
  Mn  Mn8       1.0  0.39918  0.24065  0.8153  1.0000
  Mn  Mn9       1.0  0.0  0.5  0.0  1.0000
  Mn  Mn10      1.0  0.5  0.0  0.5  1.0000
  Mn  Mn11      1.0  0.0  0.0  0.0  1.0000
  Mn  Mn12      1.0  0.5  0.5  0.5  1.0000
  H   H1        1.0  0.73917  0.8663299999999999  0.36881  1.0000
  H   H2        1.0  0.02774  0.47392999999999996  0.2718  1.0000
  H   H3        1.0  0.60582  0.55445  0.0409  1.0000
  H   H4        1.0  0.19886000000000004  0.97554  0.23777  1.0000
  H   H5        1.0  0.16306000000000007  0.6900100000000001  0.92423  1.0000
  H   H6        1.0  0.70291  0.00291  0.010020000000000001  1.0000
  H   H7        1.0  0.23963000000000004  0.63384  0.13009  1.0000
  H   H8        1.0  0.5272800000000001  0.02379  0.22819  1.0000
  H   H9        1.0  0.10636000000000001  0.94446  0.45837  1.0000
  H   H10       1.0  0.69921  0.52305  0.26206  1.0000
  H   H11       1.0  0.6627700000000002  0.80867  0.57596  1.0000
  H   H12       1.0  0.20048000000000002  0.49685999999999997  0.49016  1.0000
  H   H13       1.0  0.26084  0.13367  0.63119  1.0000
  H   H14       1.0  0.9722600000000001  0.52607  0.7282  1.0000
  H   H15       1.0  0.3941800000000001  0.44555  0.9591  1.0000
  H   H16       1.0  0.80114  0.02447  0.76223  1.0000
  H   H17       1.0  0.8369400000000001  0.31  0.07577  1.0000
  H   H18       1.0  0.29709  0.9971  0.98998  1.0000
  H   H19       1.0  0.76037  0.36615999999999993  0.86991  1.0000
  H   H20       1.0  0.47273000000000004  0.9762099999999999  0.7718099999999999  1.0000
  H   H21       1.0  0.8936400000000001  0.05553999999999999  0.54163  1.0000
  H   H22       1.0  0.3008  0.47695999999999994  0.73794  1.0000
  H   H23       1.0  0.33723000000000003  0.19133  0.4240399999999999  1.0000
  H   H24       1.0  0.79952  0.50314  0.50984  1.0000
  C   C1        1.0  0.81935  0.83037  0.32816  1.0000
  C   C2        1.0  0.007410000000000001  0.51929  0.21041  1.0000
  C   C3        1.0  0.71087  0.57389  0.04815  1.0000
  C   C4        1.0  0.12825  0.9472  0.18632  1.0000
  C   C5        1.0  0.10009  0.74186  0.96866  1.0000
  C   C6        1.0  0.71959  0.93204  0.05448  1.0000
  C   C7        1.0  0.31931  0.6695  0.17135  1.0000
  C   C8        1.0  0.50713  0.9783  0.28958  1.0000
  C   C9        1.0  0.21131000000000003  0.92416  0.45155999999999996  1.0000
  C   C10       1.0  0.62834  0.55107  0.3135  1.0000
  C   C11       1.0  0.60029  0.75669  0.53136  1.0000
  C   C12       1.0  0.21839  0.56766  0.44585  1.0000
  C   C13       1.0  0.18066000000000002  0.16963  0.67184  1.0000
  C   C14       1.0  0.9926000000000001  0.48071  0.78959  1.0000
  C   C15       1.0  0.28913000000000005  0.42611  0.95185  1.0000
  C   C16       1.0  0.87175  0.05279999999999999  0.81368  1.0000
  C   C17       1.0  0.89991  0.25815  0.03134  1.0000
  C   C18       1.0  0.28041  0.06796  0.94552  1.0000
  C   C19       1.0  0.68069  0.3305  0.82865  1.0000
  C   C20       1.0  0.4928700000000001  0.0217  0.71043  1.0000
  C   C21       1.0  0.7887  0.07585  0.54845  1.0000
  C   C22       1.0  0.37166  0.44894  0.6865  1.0000
  C   C23       1.0  0.39971000000000007  0.24331  0.46864  1.0000
  C   C24       1.0  0.78161  0.43233999999999995  0.55415  1.0000
  O   O1        1.0  0.7931900000000002  0.80586  0.24604  1.0000
  O   O2        1.0  0.9284400000000002  0.81727  0.36577  1.0000
  O   O3        1.0  0.00012000000000000003  0.62832  0.21876  1.0000
  O   O4        1.0  0.99329  0.46258  0.13911  1.0000
  O   O5        1.0  0.7400300000000001  0.65171  0.10728999999999998  1.0000
  O   O6        1.0  0.7907400000000002  0.51969  0.9998599999999999  1.0000
  O   O7        1.0  0.078  0.8481099999999999  0.19659  1.0000
  O   O8        1.0  0.1044  0.012379999999999999  0.12427  1.0000
  O   O9        1.0  0.02673  0.6859  0.02216  1.0000
  O   O10       1.0  0.10507000000000002  0.84756  0.96434  1.0000
  O   O11       1.0  0.83905  0.89819  0.06162  1.0000
  O   O12       1.0  0.62246  0.89145  0.09368  1.0000
  O   O13       1.0  0.29283000000000003  0.69157  0.25382  1.0000
  O   O14       1.0  0.42818  0.68464  0.13387  1.0000
  O   O15       1.0  0.5001100000000002  0.86929  0.28118  1.0000
  O   O16       1.0  0.49305  0.03484  0.36096  1.0000
  O   O17       1.0  0.24012  0.8458299999999999  0.3927  1.0000
  O   O18       1.0  0.29129  0.9778000000000001  0.5  1.0000
  O   O19       1.0  0.57802  0.65024  0.3034  1.0000
  O   O20       1.0  0.6043600000000001  0.48554  0.37536  1.0000
  O   O21       1.0  0.5267  0.8122  0.47788  1.0000
  O   O22       1.0  0.60618  0.65095  0.53564  1.0000
  O   O23       1.0  0.33837000000000006  0.59982  0.43835  1.0000
  O   O24       1.0  0.12189  0.60983  0.40692  1.0000
  O   O25       1.0  0.20681  0.19414  0.75397  1.0000
  O   O26       1.0  0.07156  0.18274000000000004  0.63424  1.0000
  O   O27       1.0  0.9998800000000001  0.37168  0.78124  1.0000
  O   O28       1.0  0.00671  0.53742  0.8608899999999999  1.0000
  O   O29       1.0  0.25997  0.34828999999999993  0.89271  1.0000
  O   O30       1.0  0.20926  0.48031  0.00013999999999999996  1.0000
  O   O31       1.0  0.9220000000000002  0.15189  0.80341  1.0000
  O   O32       1.0  0.8956  0.98763  0.8757299999999999  1.0000
  O   O33       1.0  0.9732700000000001  0.3141  0.9778499999999999  1.0000
  O   O34       1.0  0.89493  0.15244  0.03566  1.0000
  O   O35       1.0  0.16095  0.10181000000000001  0.93838  1.0000
  O   O36       1.0  0.37754000000000004  0.10856  0.90632  1.0000
  O   O37       1.0  0.70717  0.30843  0.74618  1.0000
  O   O38       1.0  0.5718200000000001  0.31537  0.86613  1.0000
  O   O39       1.0  0.49989  0.13072000000000003  0.71882  1.0000
  O   O40       1.0  0.50695  0.96516  0.63904  1.0000
  O   O41       1.0  0.75988  0.15417  0.60731  1.0000
  O   O42       1.0  0.70871  0.022199999999999998  0.5  1.0000
  O   O43       1.0  0.4219800000000001  0.34976  0.6966  1.0000
  O   O44       1.0  0.39564  0.51447  0.6246399999999999  1.0000
  O   O45       1.0  0.4733000000000001  0.1878  0.52212  1.0000
  O   O46       1.0  0.39382  0.34904999999999997  0.46436  1.0000
  O   O47       1.0  0.66163  0.40018  0.56165  1.0000
  O   O48       1.0  0.8781100000000001  0.39016999999999996  0.59308  1.0000
