data_image0
_chemical_formula_structural       Cd2H48C72N8F16
_chemical_formula_sum              "Cd2 H48 C72 N8 F16"
_cell_length_a       13.21386
_cell_length_b       13.276609999999998
_cell_length_c       19.54645
_cell_angle_alpha    110.41438000000001
_cell_angle_beta     109.91887
_cell_angle_gamma    96.31922

_space_group_name_H-M_alt    "P 1"
_space_group_IT_number       1

loop_
  _space_group_symop_operation_xyz
  'x, y, z'

loop_
  _atom_site_type_symbol
  _atom_site_label
  _atom_site_symmetry_multiplicity
  _atom_site_fract_x
  _atom_site_fract_y
  _atom_site_fract_z
  _atom_site_occupancy
  Cd  Cd1       1.0  0.54926  0.26307000000000014  0.7287  1.0000
  Cd  Cd2       1.0  0.44923  0.73597  0.27117000000000013  1.0000
  H   H1        1.0  0.8786500000000002  0.52994  0.0277  1.0000
  H   H2        1.0  0.68362  0.21070000000000008  0.87266  1.0000
  H   H3        1.0  0.032529999999999996  0.45948000000000006  0.09515  1.0000
  H   H4        1.0  0.82572  0.12606000000000003  0.93713  1.0000
  H   H5        1.0  0.11213999999999999  0.28092  0.06407  1.0000
  H   H6        1.0  0.04766  0.27416  0.12856  1.0000
  H   H7        1.0  0.53216  0.42304000000000014  0.54795  1.0000
  H   H8        1.0  0.40012000000000014  0.4571800000000002  0.7157500000000002  1.0000
  H   H9        1.0  0.3443300000000001  0.38177  0.4399400000000001  1.0000
  H   H10       1.0  0.2065100000000001  0.4129200000000001  0.6150700000000001  1.0000
  H   H11       1.0  0.15133000000000002  0.3675600000000001  0.39971  1.0000
  H   H12       1.0  0.10273  0.27304  0.43389  1.0000
  H   H13       1.0  0.47728000000000004  0.12974  0.47636  1.0000
  H   H14       1.0  0.8005  0.31638  0.62777  1.0000
  H   H15       1.0  0.54159  0.9694500000000003  0.4095300000000001  1.0000
  H   H16       1.0  0.87921  0.1669  0.56472  1.0000
  H   H17       1.0  0.72229  0.8840200000000001  0.44637  1.0000
  H   H18       1.0  0.71988  0.9356900000000002  0.3744900000000001  1.0000
  H   H19       1.0  0.58401  0.4724600000000001  0.95011  1.0000
  H   H20       1.0  0.54957  0.60913  0.78577  1.0000
  H   H21       1.0  0.62338  0.65815  0.06012000000000001  1.0000
  H   H22       1.0  0.59259  0.80074  0.88878  1.0000
  H   H23       1.0  0.6306900000000001  0.8519600000000002  0.10188  1.0000
  H   H24       1.0  0.7291700000000001  0.9032900000000003  0.07114  1.0000
  H   H25       1.0  0.12141000000000005  0.47007000000000004  0.9721900000000001  1.0000
  H   H26       1.0  0.31642  0.78929  0.1273  1.0000
  H   H27       1.0  0.96748  0.5405400000000001  0.9048100000000001  1.0000
  H   H28       1.0  0.17429  0.87396  0.06287  1.0000
  H   H29       1.0  0.88789  0.7191300000000002  0.9359900000000001  1.0000
  H   H30       1.0  0.9522800000000002  0.7258300000000002  0.87143  1.0000
  H   H31       1.0  0.46785  0.57712  0.45203  1.0000
  H   H32       1.0  0.6000800000000002  0.5430700000000002  0.28435  1.0000
  H   H33       1.0  0.65557  0.6180400000000001  0.56003  1.0000
  H   H34       1.0  0.79362  0.5869600000000003  0.38504  1.0000
  H   H35       1.0  0.84837  0.63138  0.60017  1.0000
  H   H36       1.0  0.8972600000000002  0.72652  0.56657  1.0000
  H   H37       1.0  0.52414  0.87017  0.52345  1.0000
  H   H38       1.0  0.2011400000000001  0.68219  0.37124  1.0000
  H   H39       1.0  0.45812  0.02896  0.59125  1.0000
  H   H40       1.0  0.12162000000000003  0.83001  0.43533  1.0000
  H   H41       1.0  0.27781  0.11321000000000007  0.55594  1.0000
  H   H42       1.0  0.27881  0.05847000000000004  0.62611  1.0000
  H   H43       1.0  0.41608000000000006  0.52752  0.04986  1.0000
  H   H44       1.0  0.45054  0.3908700000000001  0.21421  1.0000
  H   H45       1.0  0.37669  0.34183  0.93985  1.0000
  H   H46       1.0  0.40743  0.19924  0.1112  1.0000
  H   H47       1.0  0.36934000000000006  0.14799000000000007  0.8980800000000001  1.0000
  H   H48       1.0  0.27088  0.09665999999999998  0.92886  1.0000
  C   C1        1.0  0.8693400000000002  0.44053  0.00887  1.0000
  C   C2        1.0  0.76122  0.2637300000000001  0.9235100000000002  1.0000
  C   C3        1.0  0.95525  0.40119  0.04721  1.0000
  C   C4        1.0  0.84152  0.21621000000000004  0.95908  1.0000
  C   C5        1.0  0.94131  0.28595  0.02256  1.0000
  C   C6        1.0  0.0346  0.24348000000000003  0.06538  1.0000
  C   C7        1.0  0.016100000000000007  0.11898  0.03205  1.0000
  C   C8        1.0  0.050540000000000064  0.0631900000000001  0.9723300000000001  1.0000
  C   C9        1.0  0.03605999999999998  0.9483100000000002  0.94179  1.0000
  C   C10       1.0  0.4582500000000001  0.42156  0.5610400000000002  1.0000
  C   C11       1.0  0.38444  0.43945  0.65369  1.0000
  C   C12       1.0  0.35289  0.39673000000000014  0.50035  1.0000
  C   C13       1.0  0.27588  0.41425  0.59704  1.0000
  C   C14       1.0  0.25865  0.3920100000000001  0.51784  1.0000
  C   C15       1.0  0.14304  0.36054  0.45195  1.0000
  C   C16       1.0  0.06868  0.43098  0.47579  1.0000
  C   C17       1.0  0.07010000000000008  0.5323100000000002  0.4690200000000001  1.0000
  C   C18       1.0  0.0037600000000000437  0.59936  0.49276  1.0000
  C   C19       1.0  0.56621  0.13568000000000002  0.49492  1.0000
  C   C20       1.0  0.74489  0.23897000000000004  0.5784  1.0000
  C   C21       1.0  0.60213  0.045880000000000004  0.45713  1.0000
  C   C22       1.0  0.7892600000000001  0.15435000000000013  0.5434000000000001  1.0000
  C   C23       1.0  0.7167  0.05482999999999996  0.4810499999999999  1.0000
  C   C24       1.0  0.75585  0.95734  0.43904  1.0000
  C   C25       1.0  0.8803  0.97709  0.46859  1.0000
  C   C26       1.0  0.93936  0.9444000000000002  0.5279  1.0000
  C   C27       1.0  0.054780000000000155  0.9623300000000005  0.5573700000000003  1.0000
  C   C28       1.0  0.58519  0.54702  0.93838  1.0000
  C   C29       1.0  0.56735  0.6232400000000001  0.84758  1.0000
  C   C30       1.0  0.6091  0.65134  0.00024  1.0000
  C   C31       1.0  0.5918200000000001  0.7308200000000001  0.90563  1.0000
  C   C32       1.0  0.61304  0.7463900000000001  0.9843599999999999  1.0000
  C   C33       1.0  0.64128  0.86118  0.05089  1.0000
  C   C34       1.0  0.57049  0.9340700000000001  0.02608  1.0000
  C   C35       1.0  0.46712999999999993  0.93024  0.03061  1.0000
  C   C36       1.0  0.39848000000000006  0.99377  0.00505  1.0000
  C   C37       1.0  0.13070999999999997  0.55948  0.99105  1.0000
  C   C38       1.0  0.23882  0.73628  0.07644  1.0000
  C   C39       1.0  0.04477000000000001  0.59882  0.95275  1.0000
  C   C40       1.0  0.1585  0.7838000000000003  0.0409  1.0000
  C   C41       1.0  0.05870999999999997  0.71406  0.97742  1.0000
  C   C42       1.0  0.9654  0.75653  0.93463  1.0000
  C   C43       1.0  0.98392  0.88102  0.9679500000000001  1.0000
  C   C44       1.0  0.94947  0.93682  0.02765  1.0000
  C   C45       1.0  0.9639499999999998  0.05168  0.05819  1.0000
  C   C46       1.0  0.54178  0.5785600000000002  0.43896  1.0000
  C   C47       1.0  0.61571  0.56071  0.34639  1.0000
  C   C48       1.0  0.6470800000000001  0.60319  0.49966  1.0000
  C   C49       1.0  0.72423  0.5857200000000002  0.40305000000000013  1.0000
  C   C50       1.0  0.74137  0.6078  0.4822100000000001  1.0000
  C   C51       1.0  0.8568700000000001  0.63895  0.54813  1.0000
  C   C52       1.0  0.9313000000000001  0.5687700000000001  0.5241900000000002  1.0000
  C   C53       1.0  0.92991  0.46746000000000015  0.53096  1.0000
  C   C54       1.0  0.99622  0.40045  0.50723  1.0000
  C   C55       1.0  0.43502  0.86345  0.505  1.0000
  C   C56       1.0  0.25653  0.75941  0.42108  1.0000
  C   C57       1.0  0.39839  0.9523400000000002  0.54326  1.0000
  C   C58       1.0  0.21163000000000004  0.84308  0.4565500000000001  1.0000
  C   C59       1.0  0.28371  0.94244  0.51933  1.0000
  C   C60       1.0  0.24359000000000003  0.03864000000000007  0.56177  1.0000
  C   C61       1.0  0.11895  0.017459999999999993  0.53084  1.0000
  C   C62       1.0  0.05978000000000003  0.04951999999999998  0.47124  1.0000
  C   C63       1.0  0.94429  0.030529999999999988  0.44103  1.0000
  C   C64       1.0  0.4149  0.45296  0.0616  1.0000
  C   C65       1.0  0.43273999999999996  0.37674  0.1524  1.0000
  C   C66       1.0  0.39098000000000005  0.3486500000000002  0.99974  1.0000
  C   C67       1.0  0.40824000000000005  0.2691700000000001  0.09434000000000002  1.0000
  C   C68       1.0  0.38701  0.25361  0.015610000000000002  1.0000
  C   C69       1.0  0.35873  0.1388300000000001  0.94908  1.0000
  C   C70       1.0  0.4294700000000001  0.06594000000000005  0.9739000000000001  1.0000
  C   C71       1.0  0.53281  0.06975000000000006  0.96935  1.0000
  C   C72       1.0  0.60145  0.006230000000000011  0.99491  1.0000
  N   N1        1.0  0.77282  0.37390999999999996  0.94758  1.0000
  N   N2        1.0  0.47546  0.44374  0.6373  1.0000
  N   N3        1.0  0.6353  0.23205  0.55502  1.0000
  N   N4        1.0  0.56326  0.53156  0.86246  1.0000
  N   N5        1.0  0.22723  0.62609  0.05235  1.0000
  N   N6        1.0  0.52465  0.5564700000000001  0.36274  1.0000
  N   N7        1.0  0.36631  0.7671600000000002  0.44448  1.0000
  N   N8        1.0  0.43683000000000005  0.46842000000000006  0.13751  1.0000
  F   F1        1.0  0.10106000000000004  0.12179000000000013  0.94281  1.0000
  F   F2        1.0  0.07515000000000004  0.9030700000000003  0.88532  1.0000
  F   F3        1.0  0.13688  0.5659800000000001  0.4375  1.0000
  F   F4        1.0  0.009750000000000042  0.6970300000000001  0.48446  1.0000
  F   F5        1.0  0.88342  0.89376  0.5589300000000003  1.0000
  F   F6        1.0  0.10597000000000002  0.9250100000000002  0.61319  1.0000
  F   F7        1.0  0.43322  0.86257  0.06103  1.0000
  F   F8        1.0  0.29831999999999986  0.98497  0.01055  1.0000
  F   F9        1.0  0.89894  0.8782400000000002  0.05719  1.0000
  F   F10       1.0  0.92487  0.09692  0.11468  1.0000
  F   F11       1.0  0.86311  0.43394000000000005  0.56251  1.0000
  F   F12       1.0  0.9902100000000001  0.30277000000000004  0.51552  1.0000
  F   F13       1.0  0.11634000000000004  0.10114000000000005  0.44099000000000005  1.0000
  F   F14       1.0  0.89368  0.06530000000000004  0.38348  1.0000
  F   F15       1.0  0.56677  0.13741999999999996  0.93896  1.0000
  F   F16       1.0  0.7016200000000001  0.015030000000000043  0.9894300000000001  1.0000
