data_image0
_chemical_formula_structural       Gd4H32C68O32
_chemical_formula_sum              "Gd4 H32 C68 O32"
_cell_length_a       9.58859
_cell_length_b       13.163040000000002
_cell_length_c       14.61674
_cell_angle_alpha    89.99422000000001
_cell_angle_beta     90.31631999999999
_cell_angle_gamma    89.99133

_space_group_name_H-M_alt    "P 1"
_space_group_IT_number       1

loop_
  _space_group_symop_operation_xyz
  'x, y, z'

loop_
  _atom_site_type_symbol
  _atom_site_label
  _atom_site_symmetry_multiplicity
  _atom_site_fract_x
  _atom_site_fract_y
  _atom_site_fract_z
  _atom_site_occupancy
  Gd  Gd1       1.0  0.24998  0.00214  0.10888  1.0000
  Gd  Gd2       1.0  0.24657000000000004  0.50225  0.39139  1.0000
  Gd  Gd3       1.0  0.7467200000000003  0.99793  0.89134  1.0000
  Gd  Gd4       1.0  0.7482800000000001  0.49767000000000006  0.60878  1.0000
  H   H1        1.0  0.10513000000000002  0.25224  0.3370100000000001  1.0000
  H   H2        1.0  0.8199300000000002  0.19178  0.5571300000000002  1.0000
  H   H3        1.0  0.88608  0.96743  0.34526  1.0000
  H   H4        1.0  0.82426  0.95037  0.55653  1.0000
  H   H5        1.0  0.69371  0.04139  0.56241  1.0000
  H   H6        1.0  0.61151  0.03438  0.35031000000000007  1.0000
  H   H7        1.0  0.38318  0.7537400000000001  0.34255000000000013  1.0000
  H   H8        1.0  0.6908  0.80275  0.55419  1.0000
  H   H9        1.0  0.39198000000000005  0.75211  0.16405  1.0000
  H   H10       1.0  0.6785100000000002  0.69219  0.9446500000000002  1.0000
  H   H11       1.0  0.60961  0.46659  0.15513000000000005  1.0000
  H   H12       1.0  0.67344  0.45089000000000007  0.9441400000000002  1.0000
  H   H13       1.0  0.80394  0.54202  0.9389400000000001  1.0000
  H   H14       1.0  0.8868  0.53421  0.1503  1.0000
  H   H15       1.0  0.11542000000000001  0.25368  0.15739000000000003  1.0000
  H   H16       1.0  0.80738  0.30307  0.9460500000000002  1.0000
  H   H17       1.0  0.8913300000000001  0.74831  0.6641800000000002  1.0000
  H   H18       1.0  0.17855000000000004  0.8074900000000002  0.4449900000000001  1.0000
  H   H19       1.0  0.10951000000000001  0.03347  0.6551400000000002  1.0000
  H   H20       1.0  0.17357  0.04899  0.4442000000000001  1.0000
  H   H21       1.0  0.30394  0.9576700000000001  0.4388600000000001  1.0000
  H   H22       1.0  0.3868100000000001  0.96579  0.6504000000000002  1.0000
  H   H23       1.0  0.6153900000000002  0.24629  0.65728  1.0000
  H   H24       1.0  0.30776  0.19672000000000006  0.4457700000000001  1.0000
  H   H25       1.0  0.60441  0.24713  0.8372  1.0000
  H   H26       1.0  0.31918  0.30844  0.05712  1.0000
  H   H27       1.0  0.38594  0.53226  0.84482  1.0000
  H   H28       1.0  0.32301  0.54996  0.05520000000000001  1.0000
  H   H29       1.0  0.19238  0.45901  0.061570000000000014  1.0000
  H   H30       1.0  0.10768  0.46574  0.8494400000000002  1.0000
  H   H31       1.0  0.8811300000000001  0.7472900000000002  0.84295  1.0000
  H   H32       1.0  0.19141  0.69722  0.05268  1.0000
  C   C1        1.0  0.0005300000000000005  0.10644  0.33286  1.0000
  C   C2        1.0  0.030030000000000005  0.20264  0.37042000000000014  1.0000
  C   C3        1.0  0.96162  0.23395  0.4502600000000001  1.0000
  C   C4        1.0  0.8709900000000003  0.16715  0.4945500000000001  1.0000
  C   C5        1.0  0.84453  0.06953  0.45905  1.0000
  C   C6        1.0  0.90652  0.04136  0.3759500000000001  1.0000
  C   C7        1.0  0.7557400000000001  0.99746  0.51269  1.0000
  C   C8        1.0  0.65974  0.92854  0.4604900000000001  1.0000
  C   C9        1.0  0.59124  0.9600900000000001  0.38022  1.0000
  C   C10       1.0  0.49241000000000007  0.8972300000000002  0.3384200000000001  1.0000
  C   C11       1.0  0.46218000000000004  0.80112  0.37517  1.0000
  C   C12       1.0  0.5364700000000001  0.76656  0.4520800000000001  1.0000
  C   C13       1.0  0.6339000000000002  0.8302900000000002  0.49445  1.0000
  C   C14       1.0  0.07735000000000003  0.07181  0.24949000000000005  1.0000
  C   C15       1.0  0.9823400000000001  0.33903  0.4870400000000001  1.0000
  C   C16       1.0  0.41437  0.93332  0.25564  1.0000
  C   C17       1.0  0.5156100000000001  0.6611500000000001  0.48753  1.0000
  C   C18       1.0  0.4955800000000001  0.60599  0.16771  1.0000
  C   C19       1.0  0.46693000000000007  0.70252  0.1305  1.0000
  C   C20       1.0  0.53599  0.73413  0.051010000000000014  1.0000
  C   C21       1.0  0.62688  0.6673700000000001  0.0069500000000000004  1.0000
  C   C22       1.0  0.6527000000000002  0.56948  0.042130000000000015  1.0000
  C   C23       1.0  0.58971  0.5408  0.12477  1.0000
  C   C24       1.0  0.7418000000000001  0.4976900000000001  0.9883000000000001  1.0000
  C   C25       1.0  0.8380700000000001  0.4285  0.04015  1.0000
  C   C26       1.0  0.90701  0.45995  0.12029000000000002  1.0000
  C   C27       1.0  0.006310000000000002  0.39712  0.16172  1.0000
  C   C28       1.0  0.03620000000000001  0.30102  0.12496000000000003  1.0000
  C   C29       1.0  0.9615500000000001  0.26647  0.04817000000000001  1.0000
  C   C30       1.0  0.86412  0.3304  0.005920000000000002  1.0000
  C   C31       1.0  0.4177100000000001  0.57158  0.25061  1.0000
  C   C32       1.0  0.51478  0.83887  0.013470000000000003  1.0000
  C   C33       1.0  0.08455  0.43313000000000007  0.24439000000000002  1.0000
  C   C34       1.0  0.9825100000000001  0.16115  0.012520000000000003  1.0000
  C   C35       1.0  0.99528  0.8942  0.6676000000000002  1.0000
  C   C36       1.0  0.9665200000000002  0.7976600000000001  0.6305800000000003  1.0000
  C   C37       1.0  0.0357  0.76593  0.55122  1.0000
  C   C38       1.0  0.12681000000000003  0.83257  0.50716  1.0000
  C   C39       1.0  0.15289  0.93045  0.54224  1.0000
  C   C40       1.0  0.08971  0.95925  0.62477  1.0000
  C   C41       1.0  0.24202000000000004  0.00212  0.4882700000000001  1.0000
  C   C42       1.0  0.33838  0.07128  0.54004  1.0000
  C   C43       1.0  0.4071700000000001  0.03995  0.6202400000000002  1.0000
  C   C44       1.0  0.5063400000000001  0.10284  0.66167  1.0000
  C   C45       1.0  0.53635  0.19889  0.62477  1.0000
  C   C46       1.0  0.46188  0.23327  0.54784  1.0000
  C   C47       1.0  0.36445  0.16934  0.50566  1.0000
  C   C48       1.0  0.91742  0.92854  0.7505200000000002  1.0000
  C   C49       1.0  0.014360000000000003  0.6611500000000001  0.5138600000000002  1.0000
  C   C50       1.0  0.58453  0.0669  0.7443900000000002  1.0000
  C   C51       1.0  0.48249  0.3387  0.5122900000000002  1.0000
  C   C52       1.0  0.5004  0.39298  0.83285  1.0000
  C   C53       1.0  0.52957  0.2969  0.87061  1.0000
  C   C54       1.0  0.46108000000000005  0.26581  0.95043  1.0000
  C   C55       1.0  0.3702200000000001  0.33276  0.9944200000000002  1.0000
  C   C56       1.0  0.34375000000000006  0.4302600000000001  0.9585300000000001  1.0000
  C   C57       1.0  0.40633  0.45835  0.8756100000000002  1.0000
  C   C58       1.0  0.2545  0.50256  0.011650000000000004  1.0000
  C   C59       1.0  0.15837  0.57148  0.9592900000000002  1.0000
  C   C60       1.0  0.08837  0.54011  0.87946  1.0000
  C   C61       1.0  0.98897  0.60322  0.8382400000000002  1.0000
  C   C62       1.0  0.9603000000000002  0.69956  0.87498  1.0000
  C   C63       1.0  0.03625  0.73398  0.9513000000000003  1.0000
  C   C64       1.0  0.13365  0.66985  0.9932300000000001  1.0000
  C   C65       1.0  0.57695  0.42668  0.7492700000000002  1.0000
  C   C66       1.0  0.4822900000000001  0.16091000000000005  0.9875700000000002  1.0000
  C   C67       1.0  0.9095000000000001  0.5671  0.75589  1.0000
  C   C68       1.0  0.016150000000000005  0.83925  0.9872400000000002  1.0000
  O   O1        1.0  0.028850000000000004  0.0007600000000000002  0.20003000000000007  1.0000
  O   O2        1.0  0.19412  0.11573  0.23166000000000006  1.0000
  O   O3        1.0  0.08992  0.38868  0.4639200000000001  1.0000
  O   O4        1.0  0.8896300000000001  0.37377  0.5405300000000001  1.0000
  O   O5        1.0  0.46388000000000007  0.0052  0.20808000000000004  1.0000
  O   O6        1.0  0.29805  0.8895800000000003  0.23588  1.0000
  O   O7        1.0  0.4011400000000001  0.61581  0.47217  1.0000
  O   O8        1.0  0.6155800000000001  0.6213000000000001  0.53237  1.0000
  O   O9        1.0  0.4651200000000001  0.50015  0.3001000000000001  1.0000
  O   O10       1.0  0.30129  0.6160100000000001  0.26825  1.0000
  O   O11       1.0  0.4075300000000001  0.88875  0.03651000000000001  1.0000
  O   O12       1.0  0.60626  0.8733  0.9589200000000002  1.0000
  O   O13       1.0  0.03515  0.50517  0.29188  1.0000
  O   O14       1.0  0.20094  0.3894800000000001  0.26418000000000014  1.0000
  O   O15       1.0  0.09726  0.11598  0.02774  1.0000
  O   O16       1.0  0.8826100000000001  0.12131  0.9675800000000002  1.0000
  O   O17       1.0  0.9651  0.99996  0.7998900000000002  1.0000
  O   O18       1.0  0.8011  0.88408  0.76827  1.0000
  O   O19       1.0  0.9073100000000002  0.6111  0.5369  1.0000
  O   O20       1.0  0.10546000000000001  0.6266100000000002  0.4590800000000001  1.0000
  O   O21       1.0  0.53509  0.9949000000000002  0.7918800000000003  1.0000
  O   O22       1.0  0.70087  0.11059000000000001  0.76418  1.0000
  O   O23       1.0  0.59717  0.3839  0.52758  1.0000
  O   O24       1.0  0.38251  0.3787  0.4675800000000001  1.0000
  O   O25       1.0  0.52779  0.4969700000000001  0.6993300000000002  1.0000
  O   O26       1.0  0.6940700000000001  0.38333  0.7315400000000002  1.0000
  O   O27       1.0  0.59011  0.11135  0.96492  1.0000
  O   O28       1.0  0.38958  0.12633  0.04114000000000002  1.0000
  O   O29       1.0  0.9583600000000001  0.49489  0.7083500000000003  1.0000
  O   O30       1.0  0.7929500000000002  0.61063  0.7361900000000002  1.0000
  O   O31       1.0  0.9015800000000002  0.88463  0.97226  1.0000
  O   O32       1.0  0.11638000000000003  0.8786  0.03229  1.0000
