data_image0
_chemical_formula_structural       Eu4H30C60N18O24
_chemical_formula_sum              "Eu4 H30 C60 N18 O24"
_cell_length_a       12.63283
_cell_length_b       12.6219
_cell_length_c       17.85073
_cell_angle_alpha    68.98789
_cell_angle_beta     68.92793
_cell_angle_gamma    68.54425

_symmetry_space_group_name_H-M    'P 1'
_symmetry_Int_Tables_number       1

loop_
  _symmetry_equiv_pos_as_xyz
  'x,y,z'

loop_
  _atom_site_type_symbol
  _atom_site_label
  _atom_site_symmetry_multiplicity
  _atom_site_fract_x
  _atom_site_fract_y
  _atom_site_fract_z
  _atom_site_occupancy
  Eu  Eu1       1.0  0.09538000000000002  0.3226299999999999  0.00126  1.0000
  Eu  Eu2       1.0  0.6773599999999999  0.9044199999999998  0.49878999999999996  1.0000
  Eu  Eu3       1.0  0.9046100000000001  0.6773799999999999  0.9987399999999999  1.0000
  Eu  Eu4       1.0  0.3226300000000001  0.09558000000000005  0.5012199999999998  1.0000
  H   H1        1.0  0.6869599999999999  0.8001899999999998  0.26993  1.0000
  H   H2        1.0  0.6358300000000001  0.5765899999999999  0.14923  1.0000
  H   H3        1.0  0.35071999999999987  0.10614  0.06106  1.0000
  H   H4        1.0  0.4802499999999999  0.8881299999999999  0.09893  1.0000
  H   H5        1.0  0.14226000000000003  0.95121  0.29196  1.0000
  H   H6        1.0  0.3189199999999998  0.9873199999999999  0.33077  1.0000
  H   H7        1.0  0.41213  0.64315  0.12146  1.0000
  H   H8        1.0  0.19994  0.31264  0.22996  1.0000
  H   H9        1.0  0.42329  0.36394  0.35068  1.0000
  H   H10       1.0  0.8933799999999998  0.64986  0.43911  1.0000
  H   H11       1.0  0.11159000000000002  0.51988  0.40106  1.0000
  H   H12       1.0  0.048840000000000015  0.85744  0.20798  1.0000
  H   H13       1.0  0.013039999999999998  0.6808499999999998  0.16921  1.0000
  H   H14       1.0  0.35623000000000005  0.5881299999999998  0.37869999999999987  1.0000
  H   H15       1.0  0.31304  0.19981999999999997  0.73008  1.0000
  H   H16       1.0  0.36417000000000005  0.42341999999999996  0.85077  1.0000
  H   H17       1.0  0.6492799999999999  0.8938599999999998  0.93894  1.0000
  H   H18       1.0  0.5197400000000001  0.11188000000000008  0.9010699999999998  1.0000
  H   H19       1.0  0.85774  0.04879000000000001  0.70805  1.0000
  H   H20       1.0  0.68107  0.01267999999999997  0.66924  1.0000
  H   H21       1.0  0.58787  0.35686000000000007  0.87854  1.0000
  H   H22       1.0  0.8000600000000001  0.6873699999999998  0.77004  1.0000
  H   H23       1.0  0.5767099999999998  0.6360699999999999  0.64933  1.0000
  H   H24       1.0  0.10662  0.35014  0.56089  1.0000
  H   H25       1.0  0.8883999999999997  0.4801200000000001  0.5989499999999998  1.0000
  H   H26       1.0  0.9511599999999999  0.14256000000000002  0.79202  1.0000
  H   H27       1.0  0.9869599999999995  0.31916  0.83079  1.0000
  H   H28       1.0  0.64377  0.4118799999999999  0.6213  1.0000
  H   H29       1.0  0.79202  0.20804  0.25005  1.0000
  H   H30       1.0  0.20797000000000004  0.79197  0.74996  1.0000
  C   C1        1.0  0.69963  0.78647  0.11581999999999998  1.0000
  C   C2        1.0  0.6029299999999999  0.8384999999999999  0.2541  1.0000
  C   C3        1.0  0.5947899999999999  0.8388699999999998  0.17773  1.0000
  C   C4        1.0  0.62688  0.49216  0.19301  1.0000
  C   C5        1.0  0.27622999999999986  0.08152  0.10986  1.0000
  C   C6        1.0  0.7250099999999998  0.39308999999999994  0.19298  1.0000
  C   C7        1.0  0.4865899999999999  0.8906699999999999  0.15735  1.0000
  C   C8        1.0  0.16733  0.005580000000000006  0.22943  1.0000
  C   C9        1.0  0.39485  0.94328  0.28874  1.0000
  C   C10       1.0  0.5023499999999999  0.8884599999999999  0.31016  1.0000
  C   C11       1.0  0.84126  0.40404  0.1322  1.0000
  C   C12       1.0  0.38842999999999994  0.9449599999999999  0.21199999999999994  1.0000
  C   C13       1.0  0.50896  0.8911  0.39187  1.0000
  C   C14       1.0  0.3736999999999999  0.6553799999999999  0.18368  1.0000
  C   C15       1.0  0.21392000000000003  0.30045  0.38374  1.0000
  C   C16       1.0  0.1616  0.39683  0.24572  1.0000
  C   C17       1.0  0.1612499999999999  0.40519  0.32203  1.0000
  C   C18       1.0  0.50774  0.37298999999999993  0.30696  1.0000
  C   C19       1.0  0.9181999999999995  0.72412  0.39017  1.0000
  C   C20       1.0  0.60689  0.27496  0.30698  1.0000
  C   C21       1.0  0.10924999999999999  0.51342  0.34259  1.0000
  C   C22       1.0  0.9943400000000001  0.83269  0.27052  1.0000
  C   C23       1.0  0.05679  0.60491  0.21127  1.0000
  C   C24       1.0  0.11161000000000001  0.49732999999999994  0.18977  1.0000
  C   C25       1.0  0.5960299999999998  0.15871000000000005  0.3677699999999999  1.0000
  C   C26       1.0  0.05493000000000005  0.61148  0.28803  1.0000
  C   C27       1.0  0.10892000000000007  0.4906699999999999  0.10809  1.0000
  C   C28       1.0  0.34436000000000005  0.6263799999999999  0.31642  1.0000
  C   C29       1.0  0.30035999999999996  0.21354  0.88418  1.0000
  C   C30       1.0  0.3970699999999998  0.16151000000000001  0.7459  1.0000
  C   C31       1.0  0.40520000000000006  0.16113000000000002  0.82228  1.0000
  C   C32       1.0  0.37311000000000005  0.5078399999999997  0.807  1.0000
  C   C33       1.0  0.7237599999999996  0.9184900000000003  0.8901399999999998  1.0000
  C   C34       1.0  0.27498000000000006  0.6069199999999998  0.80702  1.0000
  C   C35       1.0  0.51341  0.10934000000000003  0.84265  1.0000
  C   C36       1.0  0.8326699999999997  0.99443  0.77057  1.0000
  C   C37       1.0  0.6051399999999999  0.05672000000000002  0.71126  1.0000
  C   C38       1.0  0.4976399999999998  0.11154999999999997  0.68984  1.0000
  C   C39       1.0  0.15874  0.59596  0.8678  1.0000
  C   C40       1.0  0.6115599999999998  0.055050000000000016  0.788  1.0000
  C   C41       1.0  0.49103  0.1089  0.60813  1.0000
  C   C42       1.0  0.6262999999999999  0.34462  0.8163199999999998  1.0000
  C   C43       1.0  0.7860699999999998  0.6995599999999998  0.61626  1.0000
  C   C44       1.0  0.8384  0.6031799999999999  0.75428  1.0000
  C   C45       1.0  0.8387400000000002  0.5948199999999999  0.67797  1.0000
  C   C46       1.0  0.49226000000000003  0.62702  0.69304  1.0000
  C   C47       1.0  0.08180000000000004  0.2758800000000001  0.6098299999999998  1.0000
  C   C48       1.0  0.39310999999999946  0.72505  0.69302  1.0000
  C   C49       1.0  0.8907500000000002  0.4865799999999999  0.65741  1.0000
  C   C50       1.0  0.0056599999999999975  0.16731999999999994  0.72949  1.0000
  C   C51       1.0  0.9431999999999999  0.39510000000000006  0.78873  1.0000
  C   C52       1.0  0.88839  0.50268  0.81023  1.0000
  C   C53       1.0  0.40397  0.8412999999999998  0.63223  1.0000
  C   C54       1.0  0.9450599999999998  0.38852  0.71197  1.0000
  C   C55       1.0  0.8910699999999999  0.5093299999999998  0.89192  1.0000
  C   C56       1.0  0.65563  0.37363000000000013  0.6835799999999997  1.0000
  C   C57       1.0  0.5190599999999999  0.4808199999999999  0.25001  1.0000
  C   C58       1.0  0.71541  0.28461  0.25001  1.0000
  C   C59       1.0  0.4809299999999996  0.51918  0.75  1.0000
  C   C60       1.0  0.2845900000000002  0.7153999999999998  0.74999  1.0000
  N   N1        1.0  0.16531  0.12264  0.10619  1.0000
  N   N2        1.0  0.28243  0.006960000000000022  0.18654999999999994  1.0000
  N   N3        1.0  0.27965000000000007  0.73859  0.2076  1.0000
  N   N4        1.0  0.09606000000000005  0.07406999999999997  0.18187  1.0000
  N   N5        1.0  0.87715  0.8352299999999999  0.3937  1.0000
  N   N6        1.0  0.9928500000000001  0.7176199999999998  0.3134899999999999  1.0000
  N   N7        1.0  0.26136000000000004  0.7204999999999998  0.29244  1.0000
  N   N8        1.0  0.9258199999999999  0.90427  0.31796  1.0000
  N   N9        1.0  0.83469  0.8773699999999998  0.89381  1.0000
  N   N10       1.0  0.71756  0.99304  0.81346  1.0000
  N   N11       1.0  0.7203400000000001  0.26142000000000004  0.7924099999999997  1.0000
  N   N12       1.0  0.90393  0.92594  0.81813  1.0000
  N   N13       1.0  0.12285000000000003  0.16477999999999998  0.60631  1.0000
  N   N14       1.0  0.0071500000000000175  0.28237999999999996  0.68651  1.0000
  N   N15       1.0  0.7386299999999999  0.27950000000000014  0.7075599999999997  1.0000
  N   N16       1.0  0.07417000000000012  0.0957400000000001  0.6820499999999998  1.0000
  N   N17       1.0  0.41835999999999995  0.5814999999999999  0.25006  1.0000
  N   N18       1.0  0.5816400000000002  0.41850000000000004  0.7499499999999998  1.0000
  O   O1        1.0  0.60792  0.85168  0.40833  1.0000
  O   O2        1.0  0.80365  0.76671  0.12095  1.0000
  O   O3        1.0  0.68181  0.7626699999999998  0.057989999999999986  1.0000
  O   O4        1.0  0.9218299999999998  0.31118  0.12109  1.0000
  O   O5        1.0  0.4115400000000001  0.93509  0.44002  1.0000
  O   O6        1.0  0.8526  0.50821  0.09479  1.0000
  O   O7        1.0  0.14842999999999998  0.39167  0.09153  1.0000
  O   O8        1.0  0.23393  0.19621999999999998  0.37874  1.0000
  O   O9        1.0  0.23759  0.31857999999999986  0.44149  1.0000
  O   O10       1.0  0.68887  0.07825000000000006  0.37885999999999986  1.0000
  O   O11       1.0  0.06480000000000002  0.5880999999999998  0.06011  1.0000
  O   O12       1.0  0.49191999999999997  0.14729  0.40523  1.0000
  O   O13       1.0  0.3920799999999999  0.14832999999999993  0.59167  1.0000
  O   O14       1.0  0.19634  0.2332999999999999  0.87905  1.0000
  O   O15       1.0  0.31817999999999996  0.23734  0.94201  1.0000
  O   O16       1.0  0.07816  0.6888299999999999  0.87891  1.0000
  O   O17       1.0  0.5884499999999998  0.06492  0.55998  1.0000
  O   O18       1.0  0.14738999999999994  0.4918  0.90522  1.0000
  O   O19       1.0  0.85156  0.60833  0.90847  1.0000
  O   O20       1.0  0.7660599999999995  0.8037799999999998  0.62127  1.0000
  O   O21       1.0  0.7623999999999999  0.6814199999999999  0.55852  1.0000
  O   O22       1.0  0.31112  0.9217599999999998  0.62115  1.0000
  O   O23       1.0  0.9351899999999999  0.41191000000000005  0.9399  1.0000
  O   O24       1.0  0.5080799999999999  0.8527200000000001  0.59477  1.0000
