data_image0
_chemical_formula_structural       Co4H36C60N20O16
_chemical_formula_sum              "Co4 H36 C60 N20 O16"
_cell_length_a       9.86842
_cell_length_b       11.80727
_cell_length_c       17.427779999999995
_cell_angle_alpha    90.01052000000001
_cell_angle_beta     90.00689
_cell_angle_gamma    97.23081

_space_group_name_H-M_alt    "P 1"
_space_group_IT_number       1

loop_
  _space_group_symop_operation_xyz
  'x, y, z'

loop_
  _atom_site_type_symbol
  _atom_site_label
  _atom_site_symmetry_multiplicity
  _atom_site_fract_x
  _atom_site_fract_y
  _atom_site_fract_z
  _atom_site_occupancy
  Co  Co1       1.0  0.55024  0.65478  0.45611  1.0000
  Co  Co2       1.0  0.95015  0.84497  0.95604  1.0000
  Co  Co3       1.0  0.44976  0.34523  0.54389  1.0000
  Co  Co4       1.0  0.049850000000000005  0.15503  0.04397  1.0000
  H   H1        1.0  0.41138  0.84901  0.95255  1.0000
  H   H2        1.0  0.6648  0.7045799999999999  0.78731  1.0000
  H   H3        1.0  0.23078999999999997  0.6926999999999998  0.7472  1.0000
  H   H4        1.0  0.27027  0.42866  0.73569  1.0000
  H   H5        1.0  0.41966  0.467  0.79181  1.0000
  H   H6        1.0  0.41518000000000005  0.35411  0.72182  1.0000
  H   H7        1.0  0.61726  0.06059  0.66144  1.0000
  H   H8        1.0  0.7008500000000002  0.09168  0.52522  1.0000
  H   H9        1.0  0.67095  0.9172899999999999  0.43601  1.0000
  H   H10       1.0  0.08852  0.65135  0.45253  1.0000
  H   H11       1.0  0.83538  0.79569  0.28713  1.0000
  H   H12       1.0  0.26937000000000005  0.8073099999999998  0.24718999999999997  1.0000
  H   H13       1.0  0.22966000000000003  0.07132  0.23571  1.0000
  H   H14       1.0  0.08028000000000003  0.03293  0.29181  1.0000
  H   H15       1.0  0.08469  0.14573  0.22181  1.0000
  H   H16       1.0  0.88273  0.43938999999999995  0.16134  1.0000
  H   H17       1.0  0.79898  0.40834999999999994  0.02512  1.0000
  H   H18       1.0  0.82899  0.58264  0.9359200000000001  1.0000
  H   H19       1.0  0.5886200000000003  0.15099  0.04745  1.0000
  H   H20       1.0  0.3352  0.29542  0.2127  1.0000
  H   H21       1.0  0.7692100000000001  0.3073  0.2528  1.0000
  H   H22       1.0  0.7297299999999999  0.57134  0.26431  1.0000
  H   H23       1.0  0.58034  0.533  0.20819  1.0000
  H   H24       1.0  0.58482  0.64589  0.27818  1.0000
  H   H25       1.0  0.38274  0.9394099999999999  0.33856  1.0000
  H   H26       1.0  0.2991500000000001  0.90832  0.4747799999999999  1.0000
  H   H27       1.0  0.32905  0.08270999999999999  0.56399  1.0000
  H   H28       1.0  0.9114800000000001  0.34864999999999996  0.54747  1.0000
  H   H29       1.0  0.16462  0.20431  0.71287  1.0000
  H   H30       1.0  0.73063  0.19269  0.75282  1.0000
  H   H31       1.0  0.7703400000000002  0.92868  0.76429  1.0000
  H   H32       1.0  0.9197200000000001  0.9670699999999999  0.70819  1.0000
  H   H33       1.0  0.9153100000000001  0.8542699999999999  0.77819  1.0000
  H   H34       1.0  0.11727  0.56062  0.83866  1.0000
  H   H35       1.0  0.20102000000000003  0.59165  0.9748799999999999  1.0000
  H   H36       1.0  0.17101000000000005  0.41736999999999996  0.06408  1.0000
  C   C1        1.0  0.67683  0.81878  0.9216500000000001  1.0000
  C   C2        1.0  0.16539  0.78734  0.87891  1.0000
  C   C3        1.0  0.42181000000000013  0.8041299999999999  0.89867  1.0000
  C   C4        1.0  0.55118  0.7813499999999999  0.87454  1.0000
  C   C5        1.0  0.30641000000000007  0.7696799999999999  0.85349  1.0000
  C   C6        1.0  0.5647100000000002  0.72399  0.80511  1.0000
  C   C7        1.0  0.3207  0.7156599999999999  0.78277  1.0000
  C   C8        1.0  0.44973  0.69357  0.75977  1.0000
  C   C9        1.0  0.38264  0.43745  0.735  1.0000
  C   C10       1.0  0.43761  0.52029  0.67566  1.0000
  C   C11       1.0  0.51413  0.68276  0.61965  1.0000
  C   C12       1.0  0.55831  0.8003799999999999  0.59763  1.0000
  C   C13       1.0  0.6152599999999999  0.9895799999999999  0.62134  1.0000
  C   C14       1.0  0.65944  0.00717  0.54551  1.0000
  C   C15       1.0  0.64309  0.91317  0.49653  1.0000
  C   C16       1.0  0.8230700000000001  0.68332  0.42176  1.0000
  C   C17       1.0  0.3350300000000001  0.71407  0.37923  1.0000
  C   C18       1.0  0.07811000000000001  0.6962  0.39865  1.0000
  C   C19       1.0  0.94886  0.71948  0.37456  1.0000
  C   C20       1.0  0.19364000000000003  0.7304899999999999  0.35354  1.0000
  C   C21       1.0  0.9354500000000001  0.77627  0.30496  1.0000
  C   C22       1.0  0.17941000000000001  0.7841899999999999  0.28268  1.0000
  C   C23       1.0  0.05044000000000002  0.80623  0.25958  1.0000
  C   C24       1.0  0.11729999999999997  0.06243999999999999  0.235  1.0000
  C   C25       1.0  0.06241999999999997  0.9795999999999998  0.1756  1.0000
  C   C26       1.0  0.9859800000000001  0.8171199999999997  0.11956999999999998  1.0000
  C   C27       1.0  0.9417999999999999  0.69957  0.09756  1.0000
  C   C28       1.0  0.88471  0.5104  0.12125999999999999  1.0000
  C   C29       1.0  0.84048  0.49284999999999995  0.04541  1.0000
  C   C30       1.0  0.8569100000000002  0.58682  0.99644  1.0000
  C   C31       1.0  0.32317  0.18121999999999996  0.07835  1.0000
  C   C32       1.0  0.8346100000000001  0.21266  0.12109  1.0000
  C   C33       1.0  0.57819  0.19586999999999996  0.10133  1.0000
  C   C34       1.0  0.44882000000000005  0.21865  0.12546  1.0000
  C   C35       1.0  0.69359  0.23031999999999997  0.14651  1.0000
  C   C36       1.0  0.43529000000000007  0.27601  0.19489  1.0000
  C   C37       1.0  0.6793  0.28434  0.21723  1.0000
  C   C38       1.0  0.55027  0.3064299999999999  0.24024000000000004  1.0000
  C   C39       1.0  0.61736  0.56255  0.265  1.0000
  C   C40       1.0  0.56239  0.47970999999999997  0.32434  1.0000
  C   C41       1.0  0.48587000000000014  0.31724  0.38035  1.0000
  C   C42       1.0  0.4416900000000001  0.19961999999999996  0.40237  1.0000
  C   C43       1.0  0.3847400000000001  0.010419999999999999  0.37866  1.0000
  C   C44       1.0  0.34056  0.99283  0.45449  1.0000
  C   C45       1.0  0.35691  0.08682999999999998  0.50347  1.0000
  C   C46       1.0  0.17694  0.31668  0.57824  1.0000
  C   C47       1.0  0.66497  0.28593  0.62077  1.0000
  C   C48       1.0  0.9218900000000001  0.30381  0.60136  1.0000
  C   C49       1.0  0.05114  0.28052  0.62544  1.0000
  C   C50       1.0  0.8063600000000002  0.26951  0.64646  1.0000
  C   C51       1.0  0.06454999999999998  0.22373999999999997  0.69504  1.0000
  C   C52       1.0  0.82059  0.21581  0.71732  1.0000
  C   C53       1.0  0.94956  0.19377  0.74042  1.0000
  C   C54       1.0  0.8827  0.9375599999999998  0.765  1.0000
  C   C55       1.0  0.9375800000000001  0.0204  0.8244  1.0000
  C   C56       1.0  0.01402  0.18288  0.88043  1.0000
  C   C57       1.0  0.05819999999999999  0.3004299999999999  0.90244  1.0000
  C   C58       1.0  0.11529000000000003  0.48959999999999987  0.87874  1.0000
  C   C59       1.0  0.15952  0.50716  0.95459  1.0000
  C   C60       1.0  0.14309  0.41318  0.00356  1.0000
  N   N1        1.0  0.46543  0.63616  0.6879  1.0000
  N   N2        1.0  0.46898000000000006  0.49840999999999996  0.60296  1.0000
  N   N3        1.0  0.5167500000000002  0.59969  0.56829  1.0000
  N   N4        1.0  0.56703  0.88571  0.64863  1.0000
  N   N5        1.0  0.5893000000000002  0.80968  0.52187  1.0000
  N   N6        1.0  0.03477000000000001  0.8637  0.18779  1.0000
  N   N7        1.0  0.03093  0.00142  0.10291  1.0000
  N   N8        1.0  0.98325  0.9001599999999998  0.06823  1.0000
  N   N9        1.0  0.9329  0.61427  0.14858  1.0000
  N   N10       1.0  0.91098  0.6902999999999998  0.02173  1.0000
  N   N11       1.0  0.53457  0.36383999999999994  0.3121  1.0000
  N   N12       1.0  0.5310200000000002  0.5016  0.39704  1.0000
  N   N13       1.0  0.4832500000000001  0.40031  0.43171  1.0000
  N   N14       1.0  0.43297  0.11428999999999997  0.35137  1.0000
  N   N15       1.0  0.4107000000000001  0.19031999999999996  0.47813  1.0000
  N   N16       1.0  0.9652300000000001  0.1363  0.81221  1.0000
  N   N17       1.0  0.9690700000000001  0.9985799999999999  0.8971  1.0000
  N   N18       1.0  0.01675  0.09984999999999998  0.93178  1.0000
  N   N19       1.0  0.06710000000000002  0.38573  0.85142  1.0000
  N   N20       1.0  0.08902000000000002  0.30971  0.97827  1.0000
  O   O1        1.0  0.6738  0.8851599999999998  0.9771100000000001  1.0000
  O   O2        1.0  0.78574  0.77704  0.89806  1.0000
  O   O3        1.0  0.15178  0.8221  0.9483899999999998  1.0000
  O   O4        1.0  0.06628999999999997  0.7646599999999999  0.83347  1.0000
  O   O5        1.0  0.82595  0.6175  0.47754  1.0000
  O   O6        1.0  0.7142100000000002  0.7249799999999998  0.39802  1.0000
  O   O7        1.0  0.34921000000000013  0.68023  0.44891  1.0000
  O   O8        1.0  0.4337500000000001  0.73729  0.33364  1.0000
  O   O9        1.0  0.3262  0.11484  0.02289  1.0000
  O   O10       1.0  0.21426000000000003  0.22295999999999996  0.10194  1.0000
  O   O11       1.0  0.8482200000000001  0.1779  0.05162  1.0000
  O   O12       1.0  0.9337100000000002  0.23533999999999994  0.16653  1.0000
  O   O13       1.0  0.1740500000000001  0.3825  0.52246  1.0000
  O   O14       1.0  0.28578999999999993  0.27501999999999993  0.60198  1.0000
  O   O15       1.0  0.65079  0.31977  0.5511  1.0000
  O   O16       1.0  0.56625  0.26270999999999994  0.66636  1.0000
