data_image0
_chemical_formula_structural       Zn8H28C52O32
_chemical_formula_sum              "Zn8 H28 C52 O32"
_cell_length_a       9.90993
_cell_length_b       15.33738
_cell_length_c       18.496679999999998
_cell_angle_alpha    103.24153
_cell_angle_beta     90.23891
_cell_angle_gamma    89.8808

_symmetry_space_group_name_H-M    'P 1'
_symmetry_Int_Tables_number       1

loop_
  _symmetry_equiv_pos_as_xyz
  'x,y,z'

loop_
  _atom_site_type_symbol
  _atom_site_label
  _atom_site_symmetry_multiplicity
  _atom_site_fract_x
  _atom_site_fract_y
  _atom_site_fract_z
  _atom_site_occupancy
  Zn  Zn1       1.0  0.54291  0.7978399999999998  0.96918  1.0000
  Zn  Zn2       1.0  0.0432  0.20258  0.53293  1.0000
  Zn  Zn3       1.0  0.45645  0.20245  0.030950000000000002  1.0000
  Zn  Zn4       1.0  0.9575600000000001  0.7973699999999997  0.46774  1.0000
  Zn  Zn5       1.0  0.49809  0.0009699999999999999  0.00164  1.0000
  Zn  Zn6       1.0  0.9979800000000001  0.9989199999999999  0.50002  1.0000
  Zn  Zn7       1.0  0.50249  0.49997  0.00151  1.0000
  Zn  Zn8       1.0  0.9965000000000002  0.50002  0.49997  1.0000
  H   H1        1.0  0.8084900000000002  0.99858  0.9131600000000001  1.0000
  H   H2        1.0  0.01718  0.08813999999999997  0.9041399999999999  1.0000
  H   H3        1.0  0.34772  0.0018999999999999954  0.21105  1.0000
  H   H4        1.0  0.22858  0.9991799999999998  0.33035  1.0000
  H   H5        1.0  0.31751  0.7159199999999998  0.14329  1.0000
  H   H6        1.0  0.19432  0.71328  0.26199  1.0000
  H   H7        1.0  0.72588  0.55893  0.91431  1.0000
  H   H8        1.0  0.30993  0.0013199999999999952  0.58841  1.0000
  H   H9        1.0  0.51781  0.90993  0.59632  1.0000
  H   H10       1.0  0.8467000000000001  0.99866  0.29035  1.0000
  H   H11       1.0  0.72747  0.0019299999999999953  0.17069  1.0000
  H   H12       1.0  0.81662  0.28463  0.35839  1.0000
  H   H13       1.0  0.6935800000000001  0.28793  0.23917000000000002  1.0000
  H   H14       1.0  0.22089000000000003  0.44444  0.58681  1.0000
  H   H15       1.0  0.19113  0.0011000000000000007  0.08893  1.0000
  H   H16       1.0  0.98259  0.9112999999999998  0.09774  1.0000
  H   H17       1.0  0.65218  0.9971499999999999  0.78952  1.0000
  H   H18       1.0  0.77202  5.000000000001912e-05  0.67045  1.0000
  H   H19       1.0  0.6800800000000001  0.2831  0.85691  1.0000
  H   H20       1.0  0.8044900000000003  0.28617  0.73879  1.0000
  H   H21       1.0  0.27352000000000004  0.4421799999999999  0.08537  1.0000
  H   H22       1.0  0.68874  0.9982099999999999  0.41207  1.0000
  H   H23       1.0  0.4810500000000001  0.08957  0.40441  1.0000
  H   H24       1.0  0.1534  0.00249000000000002  0.7105  1.0000
  H   H25       1.0  0.27175  0.9997199999999999  0.83058  1.0000
  H   H26       1.0  0.18438  0.7164299999999998  0.64306  1.0000
  H   H27       1.0  0.30687  0.7138  0.76247  1.0000
  H   H28       1.0  0.77426  0.55908  0.4118  1.0000
  C   C1        1.0  0.76329  0.8936099999999998  0.01074  1.0000
  C   C2        1.0  0.88367  0.94998  0.00616  1.0000
  C   C3        1.0  0.8926300000000001  0.99962  0.9512399999999999  1.0000
  C   C4        1.0  0.008280000000000001  0.04925999999999999  0.94624  1.0000
  C   C5        1.0  0.13021  0.8559999999999995  0.37271  1.0000
  C   C6        1.0  0.20534  0.85591  0.30286  1.0000
  C   C7        1.0  0.4093200000000001  0.86208  0.09944  1.0000
  C   C8        1.0  0.33931  0.85895  0.17037  1.0000
  C   C9        1.0  0.31446  0.93913  0.22296999999999997  1.0000
  C   C10       1.0  0.2487  0.93766  0.28906  1.0000
  C   C11       1.0  0.29716  0.7772  0.18472  1.0000
  C   C12       1.0  0.22966000000000003  0.77567  0.25029  1.0000
  C   C13       1.0  0.65467  0.61466  0.93342  1.0000
  C   C14       1.0  0.26338  0.10781  0.49269  1.0000
  C   C15       1.0  0.38366  0.05056  0.49597  1.0000
  C   C16       1.0  0.39348  7.00000000000094e-05  0.5503  1.0000
  C   C17       1.0  0.50868  0.94933  0.55453  1.0000
  C   C18       1.0  0.62984  0.14466  0.12768  1.0000
  C   C19       1.0  0.7044000000000002  0.14524  0.19817  1.0000
  C   C20       1.0  0.90897  0.13824999999999996  0.40221  1.0000
  C   C21       1.0  0.83833  0.1416  0.33118  1.0000
  C   C22       1.0  0.8133900000000001  0.06154999999999999  0.27843  1.0000
  C   C23       1.0  0.74758  0.06334  0.21215  1.0000
  C   C24       1.0  0.79615  0.22349  0.31677  1.0000
  C   C25       1.0  0.72867  0.22537  0.25093  1.0000
  C   C26       1.0  0.15109  0.3876599999999999  0.56846  1.0000
  C   C27       1.0  0.23617000000000002  0.10609000000000006  0.99139  1.0000
  C   C28       1.0  0.11588  0.04984000000000003  0.9960099999999998  1.0000
  C   C29       1.0  0.10696000000000001  0.00015000000000000126  0.0509  1.0000
  C   C30       1.0  0.9913700000000001  0.95045  0.05582999999999999  1.0000
  C   C31       1.0  0.86967  0.14369  0.62778  1.0000
  C   C32       1.0  0.7946800000000002  0.14343  0.69776  1.0000
  C   C33       1.0  0.5881000000000002  0.13749  0.90072  1.0000
  C   C34       1.0  0.65928  0.14007  0.82998  1.0000
  C   C35       1.0  0.68529  0.05994999999999996  0.77759  1.0000
  C   C36       1.0  0.7516  0.06161  0.71164  1.0000
  C   C37       1.0  0.7013200000000002  0.22187  0.81563  1.0000
  C   C38       1.0  0.76956  0.22358999999999996  0.75032  1.0000
  C   C39       1.0  0.34356  0.38568  0.0667  1.0000
  C   C40       1.0  0.73562  0.8915199999999998  0.50769  1.0000
  C   C41       1.0  0.61525  0.94872  0.50454  1.0000
  C   C42       1.0  0.6054  0.9993  0.45027  1.0000
  C   C43       1.0  0.49022  0.05001999999999999  0.44606999999999997  1.0000
  C   C44       1.0  0.36966  0.8561599999999998  0.87371  1.0000
  C   C45       1.0  0.29526  0.85639  0.8033  1.0000
  C   C46       1.0  0.09105000000000002  0.8622299999999998  0.59885  1.0000
  C   C47       1.0  0.16196000000000002  0.8595099999999998  0.66995  1.0000
  C   C48       1.0  0.18666000000000002  0.9396999999999998  0.72264  1.0000
  C   C49       1.0  0.25206  0.9381799999999998  0.78916  1.0000
  C   C50       1.0  0.20437  0.77775  0.68455  1.0000
  C   C51       1.0  0.27151  0.77618  0.75051  1.0000
  C   C52       1.0  0.84533  0.61483  0.43115  1.0000
  O   O1        1.0  0.65984  0.902  0.9666  1.0000
  O   O2        1.0  0.12698  0.92874  0.42179  1.0000
  O   O3        1.0  0.07317000000000003  0.7823199999999998  0.3782  1.0000
  O   O4        1.0  0.43949000000000005  0.7858899999999998  0.05564999999999999  1.0000
  O   O5        1.0  0.6738900000000001  0.68832  0.9200700000000002  1.0000
  O   O6        1.0  0.7603200000000002  0.83844  0.05065  1.0000
  O   O7        1.0  0.43393000000000004  0.93809  0.08721  1.0000
  O   O8        1.0  0.54657  0.5995399999999997  0.97109  1.0000
  O   O9        1.0  0.16016  0.09808  0.53601  1.0000
  O   O10       1.0  0.6268700000000003  0.07118  0.07953  1.0000
  O   O11       1.0  0.5733100000000002  0.21801  0.1205  1.0000
  O   O12       1.0  0.9397000000000001  0.21443  0.44584  1.0000
  O   O13       1.0  0.17359  0.3146699999999999  0.58235  1.0000
  O   O14       1.0  0.26006  0.16480999999999996  0.45442  1.0000
  O   O15       1.0  0.9336600000000003  0.062210000000000015  0.41458  1.0000
  O   O16       1.0  0.040690000000000004  0.40086  0.5311  1.0000
  O   O17       1.0  0.33934  0.0986  0.03625  1.0000
  O   O18       1.0  0.8723300000000003  0.07113  0.57848  1.0000
  O   O19       1.0  0.92673  0.21735  0.62226  1.0000
  O   O20       1.0  0.55396  0.21420000000000003  0.94243  1.0000
  O   O21       1.0  0.32115  0.31206  0.07943  1.0000
  O   O22       1.0  0.23986000000000002  0.1605  0.95086  1.0000
  O   O23       1.0  0.5664100000000001  0.062230000000000014  0.91515  1.0000
  O   O24       1.0  0.45356  0.40003  0.029999999999999995  1.0000
  O   O25       1.0  0.8394900000000001  0.90188  0.46481  1.0000
  O   O26       1.0  0.37229  0.92873  0.92306  1.0000
  O   O27       1.0  0.4266700000000001  0.7824599999999999  0.87952  1.0000
  O   O28       1.0  0.05983000000000001  0.78582  0.55577  1.0000
  O   O29       1.0  0.82612  0.68849  0.41778  1.0000
  O   O30       1.0  0.7391  0.8339699999999998  0.54536  1.0000
  O   O31       1.0  0.06644  0.9378999999999995  0.58572  1.0000
  O   O32       1.0  0.95357  0.5996199999999998  0.46919000000000005  1.0000
