data_image0
_chemical_formula_structural       Zn4H48C72N8O12
_chemical_formula_sum              "Zn4 H48 C72 N8 O12"
_cell_length_a       4.47059
_cell_length_b       19.35275
_cell_length_c       18.69755
_cell_angle_alpha    89.64675
_cell_angle_beta     83.09853
_cell_angle_gamma    83.52497

_space_group_name_H-M_alt    "P 1"
_space_group_IT_number       1

loop_
  _space_group_symop_operation_xyz
  'x, y, z'

loop_
  _atom_site_type_symbol
  _atom_site_label
  _atom_site_symmetry_multiplicity
  _atom_site_fract_x
  _atom_site_fract_y
  _atom_site_fract_z
  _atom_site_occupancy
  Zn  Zn1       1.0  0.72235  0.47484000000000004  0.04552  1.0000
  Zn  Zn2       1.0  0.25017  0.5244  0.9474600000000001  1.0000
  Zn  Zn3       1.0  0.74691  0.9526600000000001  0.47501  1.0000
  Zn  Zn4       1.0  0.17472999999999997  0.04758  0.52001  1.0000
  H   H1        1.0  0.02152000000000004  0.39666  0.17169  1.0000
  H   H2        1.0  0.36177  0.36509  0.98534  1.0000
  H   H3        1.0  0.9826600000000001  0.30525  0.93453  1.0000
  H   H4        1.0  0.6515299999999999  0.21032  0.93992  1.0000
  H   H5        1.0  0.6998399999999999  0.11823  0.0329  1.0000
  H   H6        1.0  0.07881000000000002  0.11866  0.11775  1.0000
  H   H7        1.0  0.47135000000000005  0.17451  0.16671  1.0000
  H   H8        1.0  0.24157000000000012  0.34292  0.24836999999999998  1.0000
  H   H9        1.0  0.4245900000000001  0.28988  0.35836  1.0000
  H   H10       1.0  0.8138599999999999  0.13716  0.35675  1.0000
  H   H11       1.0  0.6236299999999999  0.18772  0.24677  1.0000
  H   H12       1.0  0.6017200000000001  0.60449  0.82372  1.0000
  H   H13       1.0  0.71958  0.63378  0.0091  1.0000
  H   H14       1.0  0.23248  0.69339  0.06052  1.0000
  H   H15       1.0  0.8148999999999998  0.78874  0.056429999999999994  1.0000
  H   H16       1.0  0.86778  0.88194  0.96466  1.0000
  H   H17       1.0  0.3328899999999999  0.8823700000000001  0.8801299999999999  1.0000
  H   H18       1.0  0.8292  0.82668  0.83052  1.0000
  H   H19       1.0  0.8457900000000002  0.65856  0.74715  1.0000
  H   H20       1.0  0.08485000000000002  0.71238  0.63727  1.0000
  H   H21       1.0  0.32098000000000004  0.86444  0.64007  1.0000
  H   H22       1.0  0.07262999999999992  0.81341  0.75032  1.0000
  H   H23       1.0  0.53235  0.8279  0.38738  1.0000
  H   H24       1.0  0.19567999999999994  0.01621  0.36349000000000004  1.0000
  H   H25       1.0  0.63737  0.06645  0.30756  1.0000
  H   H26       1.0  0.08512999999999998  0.06249  0.21467  1.0000
  H   H27       1.0  0.15887999999999997  0.97278  0.11719  1.0000
  H   H28       1.0  0.79503  0.8867699999999998  0.11285999999999999  1.0000
  H   H29       1.0  0.34006  0.83634  0.16659  1.0000
  H   H30       1.0  0.40323999999999993  0.74951  0.32542  1.0000
  H   H31       1.0  0.3496999999999999  0.6340599999999998  0.28027  1.0000
  H   H32       1.0  0.20378  0.63201  0.1497  1.0000
  H   H33       1.0  0.25237000000000004  0.74984  0.18953000000000003  1.0000
  H   H34       1.0  0.7506300000000001  0.17154  0.60785  1.0000
  H   H35       1.0  0.57405  0.98334  0.63175  1.0000
  H   H36       1.0  0.006989999999999971  0.93304  0.68783  1.0000
  H   H37       1.0  0.3564700000000001  0.9367100000000002  0.78107  1.0000
  H   H38       1.0  0.24302  0.026119999999999997  0.87883  1.0000
  H   H39       1.0  0.7899300000000001  0.11185  0.8833899999999999  1.0000
  H   H40       1.0  0.34047999999999995  0.16258  0.82931  1.0000
  H   H41       1.0  0.48137  0.24921  0.66967  1.0000
  H   H42       1.0  0.27038999999999996  0.36508  0.71389  1.0000
  H   H43       1.0  0.9904  0.36811  0.84446  1.0000
  H   H44       1.0  0.19319000000000003  0.2497  0.80581  1.0000
  H   H45       1.0  0.19271000000000002  0.50556  0.08522000000000002  1.0000
  H   H46       1.0  0.24359999999999996  0.91381  0.51256  1.0000
  H   H47       1.0  0.78849  0.49446999999999997  0.90765  1.0000
  H   H48       1.0  0.6745600000000002  0.08628  0.48289999999999994  1.0000
  C   C1        1.0  0.8869  0.36226  0.14731  1.0000
  C   C2        1.0  0.5628700000000001  0.32932  0.07977  1.0000
  C   C3        1.0  0.37843999999999994  0.32443  0.02548  1.0000
  C   C4        1.0  0.21187  0.26792  0.023900000000000005  1.0000
  C   C5        1.0  0.003920000000000027  0.26407  0.9737799999999999  1.0000
  C   C6        1.0  0.8229799999999998  0.21088  0.97626  1.0000
  C   C7        1.0  0.8493200000000001  0.15893  0.02979  1.0000
  C   C8        1.0  0.0629  0.15924  0.07762  1.0000
  C   C9        1.0  0.24657  0.21337  0.07756  1.0000
  C   C10       1.0  0.45178  0.21703999999999998  0.12909  1.0000
  C   C11       1.0  0.59887  0.27653  0.13322  1.0000
  C   C12       1.0  0.9137199999999999  0.27064  0.24052  1.0000
  C   C13       1.0  0.14453999999999997  0.2975  0.27107  1.0000
  C   C14       1.0  0.26787  0.26469  0.33013  1.0000
  C   C15       1.0  0.14357000000000006  0.20576  0.36098  1.0000
  C   C16       1.0  0.9043099999999998  0.18205  0.33177  1.0000
  C   C17       1.0  0.7792799999999999  0.21421  0.27317  1.0000
  C   C18       1.0  0.25964000000000015  0.16688  0.42329  1.0000
  C   C19       1.0  0.40766999999999987  0.63846  0.84817  1.0000
  C   C20       1.0  0.98271  0.67075  0.9156  1.0000
  C   C21       1.0  0.73819  0.6750399999999999  0.96967  1.0000
  C   C22       1.0  0.5158000000000001  0.73179  0.97198  1.0000
  C   C23       1.0  0.25343000000000004  0.73514  0.02198  1.0000
  C   C24       1.0  0.023609999999999996  0.78856  0.020200000000000003  1.0000
  C   C25       1.0  0.05380000000000005  0.8411299999999999  0.96738  1.0000
  C   C26       1.0  0.3159499999999998  0.8412700000000001  0.91968  1.0000
  C   C27       1.0  0.5521300000000002  0.78699  0.91912  1.0000
  C   C28       1.0  0.8129499999999998  0.78375  0.86764  1.0000
  C   C29       1.0  0.021980000000000034  0.72422  0.86293  1.0000
  C   C30       1.0  0.43877  0.73075  0.75577  1.0000
  C   C31       1.0  0.7263499999999999  0.70413  0.72492  1.0000
  C   C32       1.0  0.8756800000000001  0.73732  0.66595  1.0000
  C   C33       1.0  0.7232700000000001  0.79623  0.63554  1.0000
  C   C34       1.0  0.43163999999999997  0.81971  0.66501  1.0000
  C   C35       1.0  0.2806900000000001  0.78726  0.72356  1.0000
  C   C36       1.0  0.8605699999999998  0.83512  0.57289  1.0000
  C   C37       1.0  0.70879  0.85257  0.35557  1.0000
  C   C38       1.0  0.05819000000000003  0.9209399999999999  0.32614  1.0000
  C   C39       1.0  0.2362499999999999  0.97551  0.32249000000000005  1.0000
  C   C40       1.0  0.47104  0.97731  0.26628  1.0000
  C   C41       1.0  0.67299  0.02782  0.2647  1.0000
  C   C42       1.0  0.9195499999999999  0.0259  0.21262  1.0000
  C   C43       1.0  0.9623400000000001  0.9742299999999999  0.15757  1.0000
  C   C44       1.0  0.75794  0.9258499999999998  0.15537  1.0000
  C   C45       1.0  0.5129000000000001  0.9241899999999998  0.20963  1.0000
  C   C46       1.0  0.31328999999999996  0.8725  0.21153  1.0000
  C   C47       1.0  0.09673000000000002  0.86821  0.27138  1.0000
  C   C48       1.0  0.83517  0.75803  0.26357  1.0000
  C   C49       1.0  0.58392  0.7245  0.28693  1.0000
  C   C50       1.0  0.5383500000000001  0.66064  0.25671  1.0000
  C   C51       1.0  0.7589200000000002  0.62848  0.20339  1.0000
  C   C52       1.0  0.014390000000000003  0.66116  0.18311  1.0000
  C   C53       1.0  0.057900000000000014  0.72518  0.21153  1.0000
  C   C54       1.0  0.77302  0.5581  0.16822  1.0000
  C   C55       1.0  0.91821  0.14669999999999997  0.63982  1.0000
  C   C56       1.0  0.30433  0.07832  0.66938  1.0000
  C   C57       1.0  0.5324  0.023840000000000004  0.67296  1.0000
  C   C58       1.0  0.7114500000000001  0.02193  0.72934  1.0000
  C   C59       1.0  0.9615200000000002  0.9715  0.73085  1.0000
  C   C60       1.0  0.15302000000000004  0.97328  0.78312  1.0000
  C   C61       1.0  0.08896  0.02476  0.83833  1.0000
  C   C62       1.0  0.83467  0.07303  0.84063  1.0000
  C   C63       1.0  0.6432600000000002  0.07483  0.78621  1.0000
  C   C64       1.0  0.3948  0.12648  0.78431  1.0000
  C   C65       1.0  0.23511999999999994  0.13086  0.72433  1.0000
  C   C66       1.0  0.8587199999999999  0.24116  0.73176  1.0000
  C   C67       1.0  0.5987099999999999  0.27449  0.708  1.0000
  C   C68       1.0  0.46071  0.33852  0.73767  1.0000
  C   C69       1.0  0.5961799999999999  0.37103  0.79073  1.0000
  C   C70       1.0  0.8630699999999999  0.33864  0.81134  1.0000
  C   C71       1.0  0.99727  0.27434  0.78353  1.0000
  C   C72       1.0  0.5041  0.44167999999999996  0.825  1.0000
  N   N1        1.0  0.7415799999999998  0.38054  0.09082000000000001  1.0000
  N   N2        1.0  0.8054699999999999  0.30033  0.17677  1.0000
  N   N3        1.0  0.22209999999999994  0.61951  0.90408  1.0000
  N   N4        1.0  0.2961199999999998  0.70075  0.8193700000000002  1.0000
  N   N5        1.0  0.8191699999999998  0.90921  0.37643  1.0000
  N   N6        1.0  0.8715499999999999  0.82447  0.29275  1.0000
  N   N7        1.0  0.10552000000000006  0.09021  0.61888  1.0000
  N   N8        1.0  0.9890200000000001  0.1746  0.70286  1.0000
  O   O1        1.0  0.7305599999999998  0.5211  0.95281  1.0000
  O   O2        1.0  0.12123  0.11185  0.43986  1.0000
  O   O3        1.0  0.4688800000000001  0.18686  0.45393  1.0000
  O   O4        1.0  0.21095000000000003  0.47847  0.04023  1.0000
  O   O5        1.0  0.68078  0.88922  0.55618  1.0000
  O   O6        1.0  0.12080000000000002  0.81605  0.54208  1.0000
  O   O7        1.0  0.6641699999999999  0.04673  0.51617  1.0000
  O   O8        1.0  0.5906199999999999  0.5522  0.1202  1.0000
  O   O9        1.0  0.98474  0.51372  0.18188  1.0000
  O   O10       1.0  0.22834999999999997  0.95358  0.4794800000000001  1.0000
  O   O11       1.0  0.26724  0.44765  0.8728900000000002  1.0000
  O   O12       1.0  0.6835599999999997  0.48645999999999995  0.81083  1.0000
