data_image0
_chemical_formula_structural       CdH54C54N12
_chemical_formula_sum              "Cd1 H54 C54 N12"
_cell_length_a       10.89769
_cell_length_b       11.341189999999997
_cell_length_c       12.54212
_cell_angle_alpha    70.78583
_cell_angle_beta     69.2188
_cell_angle_gamma    74.67032

_symmetry_space_group_name_H-M    'P 1'
_symmetry_Int_Tables_number       1

loop_
  _symmetry_equiv_pos_as_xyz
  'x,y,z'

loop_
  _atom_site_type_symbol
  _atom_site_label
  _atom_site_symmetry_multiplicity
  _atom_site_fract_x
  _atom_site_fract_y
  _atom_site_fract_z
  _atom_site_occupancy
  Cd  Cd1       1.0  0.0  0.5  0.5  1.0000
  H   H1        1.0  0.4571699999999999  0.14664  0.17925  1.0000
  H   H2        1.0  0.5137099999999999  0.75961  0.12729  1.0000
  H   H3        1.0  0.7701099999999999  0.24529999999999996  0.23169000000000003  1.0000
  H   H4        1.0  0.17747999999999997  0.3864  0.28345000000000004  1.0000
  H   H5        1.0  0.4900599999999999  0.07833  0.36568  1.0000
  H   H6        1.0  0.42207  0.12111000000000001  0.56545  1.0000
  H   H7        1.0  0.23613  0.29678  0.61289  1.0000
  H   H8        1.0  0.22979999999999998  0.33948  0.1237  1.0000
  H   H9        1.0  0.3511599999999999  0.25104  0.0317  1.0000
  H   H10       1.0  0.2533599999999999  0.55512  0.06951  1.0000
  H   H11       1.0  0.60899  0.27519  0.01718  1.0000
  H   H12       1.0  0.29334999999999994  0.55273  0.3613  1.0000
  H   H13       1.0  0.3202  0.92582  0.12079  1.0000
  H   H14       1.0  0.07085999999999999  0.97592  0.19628000000000004  1.0000
  H   H15       1.0  0.9471399999999999  0.8158999999999998  0.36072  1.0000
  H   H16       1.0  0.64076  0.57782  0.1978  1.0000
  H   H17       1.0  0.50055  0.51155  0.22188  1.0000
  H   H18       1.0  0.49184999999999973  0.72754  0.39468  1.0000
  H   H19       1.0  0.5337200000000001  0.34304  0.38966000000000006  1.0000
  H   H20       1.0  0.88695  0.31648  0.43863  1.0000
  H   H21       1.0  0.84769  0.43311000000000005  0.08548  1.0000
  H   H22       1.0  0.93372  0.6306  0.05405  1.0000
  H   H23       1.0  0.99492  0.65979  0.21734000000000003  1.0000
  H   H24       1.0  0.7218899999999999  0.09803999999999999  0.40289  1.0000
  H   H25       1.0  0.72068  0.21566999999999997  0.4664400000000001  1.0000
  H   H26       1.0  0.7643099999999998  0.9844800000000001  0.61203  1.0000
  H   H27       1.0  0.05857999999999999  0.15119  0.30221  1.0000
  H   H28       1.0  0.5428299999999998  0.85336  0.8207500000000002  1.0000
  H   H29       1.0  0.4862899999999997  0.24038999999999994  0.87271  1.0000
  H   H30       1.0  0.22988999999999998  0.7546999999999998  0.76832  1.0000
  H   H31       1.0  0.8225199999999998  0.6135999999999998  0.7165600000000002  1.0000
  H   H32       1.0  0.50994  0.9216699999999999  0.6343300000000001  1.0000
  H   H33       1.0  0.57792  0.87889  0.43456  1.0000
  H   H34       1.0  0.76386  0.7032200000000001  0.38711000000000007  1.0000
  H   H35       1.0  0.7702  0.66052  0.8763  1.0000
  H   H36       1.0  0.64883  0.7489599999999997  0.9683100000000002  1.0000
  H   H37       1.0  0.7466399999999999  0.44488  0.9305000000000001  1.0000
  H   H38       1.0  0.39101000000000014  0.72481  0.9828300000000001  1.0000
  H   H39       1.0  0.70665  0.4472699999999999  0.6387100000000001  1.0000
  H   H40       1.0  0.6797899999999999  0.07417999999999991  0.8792200000000001  1.0000
  H   H41       1.0  0.9291400000000001  0.02407999999999994  0.8037300000000002  1.0000
  H   H42       1.0  0.05286  0.1841  0.63929  1.0000
  H   H43       1.0  0.3592399999999999  0.4221799999999999  0.8022000000000002  1.0000
  H   H44       1.0  0.4994499999999998  0.48845  0.7781300000000001  1.0000
  H   H45       1.0  0.5081499999999999  0.27246  0.6053300000000001  1.0000
  H   H46       1.0  0.4662799999999999  0.65695  0.61034  1.0000
  H   H47       1.0  0.11304999999999996  0.6835200000000001  0.56137  1.0000
  H   H48       1.0  0.15231  0.5668799999999999  0.9145300000000002  1.0000
  H   H49       1.0  0.06627999999999994  0.3693899999999999  0.9459600000000002  1.0000
  H   H50       1.0  0.005069999999999982  0.34021  0.78267  1.0000
  H   H51       1.0  0.27810999999999997  0.90196  0.59712  1.0000
  H   H52       1.0  0.27931  0.78433  0.53356  1.0000
  H   H53       1.0  0.23569000000000004  0.015519999999999985  0.38797  1.0000
  H   H54       1.0  0.9414100000000001  0.84881  0.69779  1.0000
  C   C1        1.0  0.23475  0.3254499999999999  0.34240000000000004  1.0000
  C   C2        1.0  0.3373699999999999  0.22876999999999995  0.30865000000000004  1.0000
  C   C3        1.0  0.4074899999999999  0.15257  0.3900100000000001  1.0000
  C   C4        1.0  0.36815  0.17585  0.50169  1.0000
  C   C5        1.0  0.26476999999999995  0.27358999999999994  0.52878  1.0000
  C   C6        1.0  0.33633  0.29955  0.09949  1.0000
  C   C7        1.0  0.42032999999999987  0.40347  0.04984000000000001  1.0000
  C   C8        1.0  0.36146000000000006  0.5309  0.03804  1.0000
  C   C9        1.0  0.56023  0.37320999999999993  0.011960000000000004  1.0000
  C   C10       1.0  0.24912000000000012  0.64807  0.32333  1.0000
  C   C11       1.0  0.32844999999999996  0.73591  0.2384  1.0000
  C   C12       1.0  0.2629  0.85536  0.18804000000000004  1.0000
  C   C13       1.0  0.12433000000000002  0.8834099999999999  0.23038000000000006  1.0000
  C   C14       1.0  0.05395999999999996  0.79416  0.32097000000000003  1.0000
  C   C15       1.0  0.5343099999999998  0.58014  0.24604000000000004  1.0000
  C   C16       1.0  0.51665  0.54  0.37741  1.0000
  C   C17       1.0  0.49573999999999996  0.62771  0.4410900000000001  1.0000
  C   C18       1.0  0.5204799999999999  0.41176  0.43785  1.0000
  C   C19       1.0  0.89586  0.38294  0.35225  1.0000
  C   C20       1.0  0.86288  0.35656  0.26500000000000007  1.0000
  C   C21       1.0  0.8744799999999998  0.44825  0.15513  1.0000
  C   C22       1.0  0.9223899999999999  0.55869  0.13796  1.0000
  C   C23       1.0  0.9558799999999998  0.57619  0.22833000000000006  1.0000
  C   C24       1.0  0.7843399999999999  0.15938  0.40369000000000005  1.0000
  C   C25       1.0  0.8983899999999999  0.07733000000000001  0.45053  1.0000
  C   C26       1.0  0.8676699999999995  0.99165  0.56208  1.0000
  C   C27       1.0  0.032200000000000006  0.08529999999999997  0.3889500000000001  1.0000
  C   C28       1.0  0.7652500000000001  0.67455  0.6576  1.0000
  C   C29       1.0  0.66263  0.7712299999999999  0.69135  1.0000
  C   C30       1.0  0.5925099999999998  0.84743  0.60999  1.0000
  C   C31       1.0  0.6318499999999999  0.8241499999999999  0.49831000000000003  1.0000
  C   C32       1.0  0.7352299999999999  0.7264100000000001  0.47122  1.0000
  C   C33       1.0  0.6636700000000001  0.7004499999999999  0.90051  1.0000
  C   C34       1.0  0.5796699999999998  0.59652  0.9501600000000001  1.0000
  C   C35       1.0  0.6385399999999994  0.4690999999999999  0.9619600000000001  1.0000
  C   C36       1.0  0.43976000000000004  0.62679  0.98804  1.0000
  C   C37       1.0  0.7508799999999999  0.35192  0.67667  1.0000
  C   C38       1.0  0.67155  0.26408999999999994  0.7616100000000001  1.0000
  C   C39       1.0  0.7371  0.14464  0.8119600000000001  1.0000
  C   C40       1.0  0.87566  0.11659  0.76963  1.0000
  C   C41       1.0  0.9460299999999995  0.20583  0.67903  1.0000
  C   C42       1.0  0.46568000000000004  0.41985999999999996  0.75396  1.0000
  C   C43       1.0  0.48334999999999967  0.4599999999999999  0.6225900000000001  1.0000
  C   C44       1.0  0.5042599999999998  0.37227999999999994  0.55891  1.0000
  C   C45       1.0  0.47951999999999995  0.58824  0.5621500000000001  1.0000
  C   C46       1.0  0.10413999999999995  0.6170600000000002  0.64775  1.0000
  C   C47       1.0  0.13711999999999988  0.6434399999999999  0.7350000000000002  1.0000
  C   C48       1.0  0.12551  0.55175  0.84488  1.0000
  C   C49       1.0  0.0776  0.4413099999999999  0.86204  1.0000
  C   C50       1.0  0.04412000000000002  0.4238100000000001  0.77168  1.0000
  C   C51       1.0  0.21564999999999998  0.8406099999999999  0.59632  1.0000
  C   C52       1.0  0.10160999999999994  0.9226699999999999  0.54947  1.0000
  C   C53       1.0  0.13232999999999998  0.008349999999999969  0.4379300000000001  1.0000
  C   C54       1.0  0.9677999999999999  0.9147  0.61105  1.0000
  N   N1        1.0  0.19776999999999995  0.34832  0.45079000000000014  1.0000
  N   N2        1.0  0.36572  0.20028  0.20107000000000003  1.0000
  N   N3        1.0  0.11514999999999986  0.6770999999999999  0.3657000000000001  1.0000
  N   N4        1.0  0.4661099999999999  0.70842  0.20778000000000002  1.0000
  N   N5        1.0  0.9414299999999998  0.49028  0.33513  1.0000
  N   N6        1.0  0.8236699999999998  0.24223  0.28456  1.0000
  N   N7        1.0  0.8022299999999998  0.6516799999999999  0.54922  1.0000
  N   N8        1.0  0.63428  0.79972  0.79894  1.0000
  N   N9        1.0  0.8848500000000001  0.3229  0.63431  1.0000
  N   N10       1.0  0.5338899999999998  0.29157999999999995  0.7922200000000001  1.0000
  N   N11       1.0  0.05857000000000003  0.5097099999999999  0.6648700000000001  1.0000
  N   N12       1.0  0.17631999999999987  0.75776  0.71544  1.0000
