data_image0
_chemical_formula_structural       Cu6H24C54O24
_chemical_formula_sum              "Cu6 H24 C54 O24"
_cell_length_a       15.30746
_cell_length_b       15.30666
_cell_length_c       15.30762
_cell_angle_alpha    76.32679
_cell_angle_beta     76.41382
_cell_angle_gamma    76.41387

_symmetry_space_group_name_H-M    'P 1'
_symmetry_Int_Tables_number       1

loop_
  _symmetry_equiv_pos_as_xyz
  'x,y,z'

loop_
  _atom_site_type_symbol
  _atom_site_label
  _atom_site_symmetry_multiplicity
  _atom_site_fract_x
  _atom_site_fract_y
  _atom_site_fract_z
  _atom_site_occupancy
  Cu  Cu1       1.0  0.98897  0.42658000000000007  0.99005  1.0000
  Cu  Cu2       1.0  0.42667000000000027  0.9901300000000001  0.98879  1.0000
  Cu  Cu3       1.0  0.9896100000000001  0.9896700000000002  0.42661  1.0000
  Cu  Cu4       1.0  0.011030000000000026  0.57342  0.00996  1.0000
  Cu  Cu5       1.0  0.5733300000000002  0.00988  0.01121  1.0000
  Cu  Cu6       1.0  0.01039999999999999  0.010329999999999997  0.5734  1.0000
  H   H1        1.0  0.027660000000000007  0.7417000000000001  0.73059  1.0000
  H   H2        1.0  0.9963599999999999  0.69081  0.47578  1.0000
  H   H3        1.0  0.9915799999999999  0.476  0.7160599999999999  1.0000
  H   H4        1.0  0.052180000000000025  0.54927  0.41121  1.0000
  H   H5        1.0  0.7417600000000001  0.73069  0.02787  1.0000
  H   H6        1.0  0.6908000000000002  0.47601000000000004  0.99625  1.0000
  H   H7        1.0  0.4761  0.71602  0.9917799999999999  1.0000
  H   H8        1.0  0.5492500000000001  0.41113  0.05218  1.0000
  H   H9        1.0  0.7308500000000002  0.027480000000000025  0.74189  1.0000
  H   H10       1.0  0.47594  0.9963600000000001  0.69089  1.0000
  H   H11       1.0  0.71593  0.99155  0.4762899999999999  1.0000
  H   H12       1.0  0.41117000000000004  0.05221  0.549  1.0000
  H   H13       1.0  0.97235  0.25829999999999986  0.26941  1.0000
  H   H14       1.0  0.0036399999999999835  0.3091900000000001  0.52422  1.0000
  H   H15       1.0  0.008419999999999993  0.524  0.28395  1.0000
  H   H16       1.0  0.9478200000000001  0.4507399999999999  0.58879  1.0000
  H   H17       1.0  0.25825  0.26931999999999995  0.97213  1.0000
  H   H18       1.0  0.30921  0.52399  0.00375  1.0000
  H   H19       1.0  0.5239  0.28398  0.00822  1.0000
  H   H20       1.0  0.45076000000000005  0.5888699999999999  0.94782  1.0000
  H   H21       1.0  0.26915  0.9725200000000002  0.25811  1.0000
  H   H22       1.0  0.52407  0.0036399999999999965  0.30911  1.0000
  H   H23       1.0  0.28408  0.008449999999999992  0.52371  1.0000
  H   H24       1.0  0.5888300000000002  0.9478  0.451  1.0000
  C   C1        1.0  0.014750000000000024  0.5684800000000001  0.83118  1.0000
  C   C2        1.0  0.019280000000000005  0.6948500000000001  0.6911499999999999  1.0000
  C   C3        1.0  0.012160000000000037  0.6044  0.73253  1.0000
  C   C4        1.0  0.001909999999999992  0.66512  0.54727  1.0000
  C   C5        1.0  0.9983299999999998  0.54561  0.6821  1.0000
  C   C6        1.0  0.9948999999999999  0.5737  0.58889  1.0000
  C   C7        1.0  0.9835200000000002  0.5034899999999998  0.54405  1.0000
  C   C8        1.0  0.012959999999999992  0.7256700000000001  0.5985  1.0000
  C   C9        1.0  0.9862999999999998  0.17481  0.44215  1.0000
  C   C10       1.0  0.5685200000000002  0.83119  0.01502  1.0000
  C   C11       1.0  0.6948700000000001  0.69127  0.01946  1.0000
  C   C12       1.0  0.60439  0.7325600000000002  0.0125  1.0000
  C   C13       1.0  0.6651100000000002  0.54743  0.0019099999999999998  1.0000
  C   C14       1.0  0.54568  0.68211  0.9985199999999999  1.0000
  C   C15       1.0  0.5736999999999999  0.5889800000000001  0.99494  1.0000
  C   C16       1.0  0.50348  0.54406  0.9835799999999998  1.0000
  C   C17       1.0  0.7257  0.59871  0.012969999999999997  1.0000
  C   C18       1.0  0.17470999999999995  0.44177  0.98654  1.0000
  C   C19       1.0  0.83142  0.013539999999999995  0.56864  1.0000
  C   C20       1.0  0.6913900000000001  0.019099999999999992  0.69501  1.0000
  C   C21       1.0  0.73267  0.01183000000000003  0.6046099999999999  1.0000
  C   C22       1.0  0.54737  0.0019599999999999947  0.66518  1.0000
  C   C23       1.0  0.68203  0.9983000000000001  0.54584  1.0000
  C   C24       1.0  0.58885  0.9950100000000001  0.5738  1.0000
  C   C25       1.0  0.544  0.9835899999999999  0.50357  1.0000
  C   C26       1.0  0.5987400000000003  0.012890000000000032  0.7257499999999998  1.0000
  C   C27       1.0  0.44179000000000024  0.98669  0.1747  1.0000
  C   C28       1.0  0.98526  0.4315200000000001  0.16882  1.0000
  C   C29       1.0  0.9807199999999999  0.3051500000000001  0.3088599999999999  1.0000
  C   C30       1.0  0.98785  0.39561  0.26747  1.0000
  C   C31       1.0  0.9980899999999999  0.3348800000000001  0.45273  1.0000
  C   C32       1.0  0.001679999999999998  0.45439000000000007  0.31789999999999996  1.0000
  C   C33       1.0  0.005099999999999989  0.42631  0.41111  1.0000
  C   C34       1.0  0.016479999999999984  0.49651  0.45596  1.0000
  C   C35       1.0  0.9870400000000001  0.27433000000000013  0.40151  1.0000
  C   C36       1.0  0.013699999999999967  0.82519  0.55785  1.0000
  C   C37       1.0  0.43149000000000004  0.16881  0.9849899999999999  1.0000
  C   C38       1.0  0.30513  0.3087300000000001  0.9805399999999999  1.0000
  C   C39       1.0  0.39561999999999997  0.26745  0.9875  1.0000
  C   C40       1.0  0.3349  0.45257  0.99809  1.0000
  C   C41       1.0  0.45432999999999996  0.3178900000000001  0.00148  1.0000
  C   C42       1.0  0.42629999999999996  0.41102  0.00506  1.0000
  C   C43       1.0  0.49653  0.45594  0.01642  1.0000
  C   C44       1.0  0.27430999999999994  0.40129000000000004  0.98704  1.0000
  C   C45       1.0  0.82529  0.55823  0.01347  1.0000
  C   C46       1.0  0.16858000000000004  0.98646  0.4313599999999999  1.0000
  C   C47       1.0  0.30862  0.9809  0.30499  1.0000
  C   C48       1.0  0.26733999999999997  0.9881700000000001  0.39539  1.0000
  C   C49       1.0  0.45263  0.99804  0.33482  1.0000
  C   C50       1.0  0.31798  0.0016999999999999917  0.45417  1.0000
  C   C51       1.0  0.41116000000000014  0.004990000000000008  0.4262099999999999  1.0000
  C   C52       1.0  0.45600999999999997  0.01641000000000003  0.49643  1.0000
  C   C53       1.0  0.40126  0.98712  0.27425  1.0000
  C   C54       1.0  0.55822  0.013320000000000016  0.8253  1.0000
  O   O1        1.0  0.025799999999999938  0.6223600000000001  0.87842  1.0000
  O   O2        1.0  0.004090000000000071  0.48518  0.8612199999999998  1.0000
  O   O3        1.0  0.97771  0.12538  0.3888  1.0000
  O   O4        1.0  0.9960400000000005  0.14608  0.52556  1.0000
  O   O5        1.0  0.6224400000000002  0.8784800000000001  0.0259  1.0000
  O   O6        1.0  0.48528  0.86128  0.00427  1.0000
  O   O7        1.0  0.12505000000000002  0.38836999999999994  0.97831  1.0000
  O   O8        1.0  0.14628999999999998  0.52518  0.99614  1.0000
  O   O9        1.0  0.87942  0.022330000000000006  0.62294  1.0000
  O   O10       1.0  0.8608900000000003  0.004200000000000027  0.4849999999999999  1.0000
  O   O11       1.0  0.3884600000000001  0.97859  0.12493  1.0000
  O   O12       1.0  0.5252799999999999  0.99617  0.14639999999999997  1.0000
  O   O13       1.0  0.9742100000000001  0.37765  0.12158  1.0000
  O   O14       1.0  0.99592  0.5148199999999998  0.13878  1.0000
  O   O15       1.0  0.022290000000000032  0.87462  0.6112  1.0000
  O   O16       1.0  0.0039600000000000355  0.85392  0.47443999999999986  1.0000
  O   O17       1.0  0.37757  0.12153  0.9741  1.0000
  O   O18       1.0  0.5147200000000002  0.13871999999999998  0.99574  1.0000
  O   O19       1.0  0.87496  0.61163  0.02169  1.0000
  O   O20       1.0  0.8537200000000001  0.47482  0.00387  1.0000
  O   O21       1.0  0.1205899999999999  0.9776700000000003  0.37706  1.0000
  O   O22       1.0  0.13911999999999994  0.9958000000000001  0.515  1.0000
  O   O23       1.0  0.61155  0.021410000000000054  0.8750799999999997  1.0000
  O   O24       1.0  0.47472000000000003  0.00384  0.85361  1.0000
