data_image0
_chemical_formula_structural       Fe6H24C48O26
_chemical_formula_sum              "Fe6 H24 C48 O26"
_cell_length_a       14.79581
_cell_length_b       14.797
_cell_length_c       17.043
_cell_angle_alpha    90.0
_cell_angle_beta     90.0
_cell_angle_gamma    120.04133999999999

_symmetry_space_group_name_H-M    'P 1'
_symmetry_Int_Tables_number       1

loop_
  _symmetry_equiv_pos_as_xyz
  'x,y,z'

loop_
  _atom_site_type_symbol
  _atom_site_label
  _atom_site_symmetry_multiplicity
  _atom_site_fract_x
  _atom_site_fract_y
  _atom_site_fract_z
  _atom_site_occupancy
  Fe  Fe1       1.0  0.74031  0.25967  0.25007  1.0000
  Fe  Fe2       1.0  0.5193  0.25964  0.25006  1.0000
  Fe  Fe3       1.0  0.74034  0.48068  0.25007  1.0000
  Fe  Fe4       1.0  0.25968  0.74033  0.74994  1.0000
  Fe  Fe5       1.0  0.4806600000000001  0.74034  0.74994  1.0000
  Fe  Fe6       1.0  0.25964  0.5193  0.74994  1.0000
  H   H1        1.0  0.67288  0.05518  0.4391799999999999  1.0000
  H   H2        1.0  0.38221  0.32709  0.43922  1.0000
  H   H3        1.0  0.9448700000000002  0.61768  0.43922  1.0000
  H   H4        1.0  0.32713  0.94484  0.9391799999999999  1.0000
  H   H5        1.0  0.61777  0.67291  0.9392099999999999  1.0000
  H   H6        1.0  0.05512000000000001  0.38232  0.9392099999999999  1.0000
  H   H7        1.0  0.6177100000000002  0.94489  0.56077  1.0000
  H   H8        1.0  0.05515999999999995  0.67285  0.56082  1.0000
  H   H9        1.0  0.32707  0.38223  0.5607999999999997  1.0000
  H   H10       1.0  0.38231  0.055119999999999995  0.060779999999999994  1.0000
  H   H11       1.0  0.94485  0.32716  0.060829999999999995  1.0000
  H   H12       1.0  0.67292  0.61777  0.06081  1.0000
  H   H13       1.0  0.32712  0.94482  0.56082  1.0000
  H   H14       1.0  0.6177900000000002  0.67292  0.56079  1.0000
  H   H15       1.0  0.055130000000000005  0.38232  0.56079  1.0000
  H   H16       1.0  0.67287  0.05516  0.06081999999999999  1.0000
  H   H17       1.0  0.38222999999999996  0.32709999999999995  0.06079  1.0000
  H   H18       1.0  0.9448800000000003  0.61768  0.06079  1.0000
  H   H19       1.0  0.38229000000000013  0.05511  0.4392299999999999  1.0000
  H   H20       1.0  0.9448399999999999  0.3271499999999999  0.4391799999999999  1.0000
  H   H21       1.0  0.6729300000000003  0.61777  0.4391999999999999  1.0000
  H   H22       1.0  0.61769  0.94488  0.9392299999999999  1.0000
  H   H23       1.0  0.05514999999999999  0.67285  0.9391799999999999  1.0000
  H   H24       1.0  0.32708  0.38223  0.9392  1.0000
  C   C1        1.0  0.5975400000000002  0.030419999999999992  0.46629  1.0000
  C   C2        1.0  0.4328200000000001  0.40244  0.46632  1.0000
  C   C3        1.0  0.9696199999999999  0.56712  0.46632999999999997  1.0000
  C   C4        1.0  0.4024700000000001  0.96958  0.96629  1.0000
  C   C5        1.0  0.56716  0.59755  0.9663199999999998  1.0000
  C   C6        1.0  0.030389999999999986  0.43289  0.9663299999999999  1.0000
  C   C7        1.0  0.56714  0.96963  0.5336699999999998  1.0000
  C   C8        1.0  0.030410000000000003  0.59752  0.5337  1.0000
  C   C9        1.0  0.40244  0.43283  0.53369  1.0000
  C   C10       1.0  0.43289  0.03039  0.03367999999999999  1.0000
  C   C11       1.0  0.96959  0.40249  0.03370999999999999  1.0000
  C   C12       1.0  0.59756  0.56716  0.033689999999999984  1.0000
  C   C13       1.0  0.4024700000000001  0.96958  0.53371  1.0000
  C   C14       1.0  0.5671800000000002  0.59756  0.53368  1.0000
  C   C15       1.0  0.030379999999999994  0.43287999999999993  0.5336699999999998  1.0000
  C   C16       1.0  0.5975300000000002  0.030419999999999992  0.03370999999999999  1.0000
  C   C17       1.0  0.43284  0.40245  0.033689999999999984  1.0000
  C   C18       1.0  0.96962  0.56711  0.03367999999999999  1.0000
  C   C19       1.0  0.4328700000000001  0.03037  0.46632999999999997  1.0000
  C   C20       1.0  0.9696  0.40248  0.4663  1.0000
  C   C21       1.0  0.59756  0.56717  0.4663099999999999  1.0000
  C   C22       1.0  0.56712  0.9696199999999999  0.9663299999999999  1.0000
  C   C23       1.0  0.030410000000000003  0.59752  0.9663  1.0000
  C   C24       1.0  0.40244  0.43284  0.96631  1.0000
  C   C25       1.0  0.5641000000000003  0.12822  0.36121  1.0000
  C   C26       1.0  0.53073  0.06143  0.43189999999999995  1.0000
  C   C27       1.0  0.5641000000000003  0.43588  0.36122  1.0000
  C   C28       1.0  0.53072  0.46928  0.43189999999999995  1.0000
  C   C29       1.0  0.8717900000000002  0.43588999999999994  0.3611999999999999  1.0000
  C   C30       1.0  0.93857  0.46927  0.43189  1.0000
  C   C31       1.0  0.4358699999999999  0.8717299999999999  0.86118  1.0000
  C   C32       1.0  0.46927000000000013  0.93856  0.93189  1.0000
  C   C33       1.0  0.4358699999999999  0.56414  0.86119  1.0000
  C   C34       1.0  0.4692800000000001  0.53072  0.93189  1.0000
  C   C35       1.0  0.12824  0.56412  0.86117  1.0000
  C   C36       1.0  0.061429999999999985  0.53072  0.93189  1.0000
  C   C37       1.0  0.43590000000000007  0.8717799999999999  0.63879  1.0000
  C   C38       1.0  0.4692800000000001  0.93857  0.56811  1.0000
  C   C39       1.0  0.12821000000000005  0.56411  0.6388  1.0000
  C   C40       1.0  0.06144000000000001  0.53073  0.56811  1.0000
  C   C41       1.0  0.43590000000000007  0.56412  0.6387799999999998  1.0000
  C   C42       1.0  0.4692800000000001  0.53072  0.56811  1.0000
  C   C43       1.0  0.56413  0.12826  0.13882  1.0000
  C   C44       1.0  0.53073  0.061439999999999995  0.06811  1.0000
  C   C45       1.0  0.87176  0.43587  0.13882999999999995  1.0000
  C   C46       1.0  0.93857  0.46927  0.06812  1.0000
  C   C47       1.0  0.56413  0.43586  0.13881  1.0000
  C   C48       1.0  0.53073  0.46928  0.06811  1.0000
  O   O1        1.0  0.6550600000000002  0.15584  0.3330599999999999  1.0000
  O   O2        1.0  0.50074  0.34492  0.33307  1.0000
  O   O3        1.0  0.84419  0.4992099999999999  0.33307  1.0000
  O   O4        1.0  0.34492000000000006  0.8441199999999999  0.8330499999999997  1.0000
  O   O5        1.0  0.49922999999999995  0.6551  0.83306  1.0000
  O   O6        1.0  0.15583  0.5008  0.83306  1.0000
  O   O7        1.0  0.4992  0.8441699999999999  0.66693  1.0000
  O   O8        1.0  0.15582000000000004  0.65504  0.66695  1.0000
  O   O9        1.0  0.34491  0.50074  0.66693  1.0000
  O   O10       1.0  0.5008100000000001  0.15584999999999996  0.16693  1.0000
  O   O11       1.0  0.8441400000000001  0.34494  0.16696  1.0000
  O   O12       1.0  0.65511  0.49923  0.16693  1.0000
  O   O13       1.0  0.3449399999999999  0.8441699999999999  0.66695  1.0000
  O   O14       1.0  0.4992500000000001  0.6550799999999999  0.66693  1.0000
  O   O15       1.0  0.15580000000000002  0.50078  0.6669399999999998  1.0000
  O   O16       1.0  0.6550800000000002  0.15588  0.16695  1.0000
  O   O17       1.0  0.50076  0.34489999999999993  0.16693999999999995  1.0000
  O   O18       1.0  0.84416  0.4992  0.16693999999999995  1.0000
  O   O19       1.0  0.50079  0.15582  0.33307  1.0000
  O   O20       1.0  0.84418  0.34496  0.33305  1.0000
  O   O21       1.0  0.6550900000000001  0.49925  0.33307  1.0000
  O   O22       1.0  0.49918  0.84414  0.83307  1.0000
  O   O23       1.0  0.15584999999999996  0.65506  0.8330399999999998  1.0000
  O   O24       1.0  0.34489  0.50076  0.83307  1.0000
  O   O25       1.0  0.66667  0.33331999999999995  0.25002  1.0000
  O   O26       1.0  0.3333000000000001  0.66666  0.74998  1.0000
