data_image0
_chemical_formula_structural       Cu4H28C48N12O16
_chemical_formula_sum              "Cu4 H28 C48 N12 O16"
_cell_length_a       4.44695
_cell_length_b       9.81734
_cell_length_c       32.48225
_cell_angle_alpha    89.89320000000001
_cell_angle_beta     90.06049
_cell_angle_gamma    83.60117999999999

_space_group_name_H-M_alt    "P 1"
_space_group_IT_number       1

loop_
  _space_group_symop_operation_xyz
  'x, y, z'

loop_
  _atom_site_type_symbol
  _atom_site_label
  _atom_site_symmetry_multiplicity
  _atom_site_fract_x
  _atom_site_fract_y
  _atom_site_fract_z
  _atom_site_occupancy
  Cu  Cu1       1.0  0.53911  0.37263  0.80436  1.0000
  Cu  Cu2       1.0  0.45944000000000007  0.12758  0.30378  1.0000
  Cu  Cu3       1.0  0.4609  0.62738  0.19564  1.0000
  Cu  Cu4       1.0  0.54056  0.87242  0.69622  1.0000
  H   H1        1.0  0.6961000000000002  0.4405  0.71413  1.0000
  H   H2        1.0  0.44763  0.38437  0.6465499999999997  1.0000
  H   H3        1.0  0.64996  0.52002  0.00562  1.0000
  H   H4        1.0  0.28237  0.54945  0.87168  1.0000
  H   H5        1.0  0.39737000000000017  0.60092  0.94451  1.0000
  H   H6        1.0  0.053140000000000014  0.27305  0.8629099999999997  1.0000
  H   H7        1.0  0.21858  0.32611  0.9333299999999998  1.0000
  H   H8        1.0  0.3061100000000001  0.05832  0.21301  1.0000
  H   H9        1.0  0.55671  0.11653  0.14575  1.0000
  H   H10       1.0  0.35035  0.9804  0.5055  1.0000
  H   H11       1.0  0.7155  0.95087  0.37169  1.0000
  H   H12       1.0  0.60156  0.90009  0.44458  1.0000
  H   H13       1.0  0.9450300000000001  0.22723999999999997  0.3623599999999999  1.0000
  H   H14       1.0  0.7806  0.17517  0.4328299999999999  1.0000
  H   H15       1.0  0.30391  0.55951  0.28587  1.0000
  H   H16       1.0  0.55238  0.61564  0.3534499999999999  1.0000
  H   H17       1.0  0.35004999999999986  0.4799800000000001  0.9943799999999999  1.0000
  H   H18       1.0  0.71764  0.45055  0.12832  1.0000
  H   H19       1.0  0.60264  0.39908  0.05549  1.0000
  H   H20       1.0  0.9468600000000001  0.72695  0.13709  1.0000
  H   H21       1.0  0.7814299999999998  0.6739  0.06667  1.0000
  H   H22       1.0  0.6938999999999999  0.94169  0.78699  1.0000
  H   H23       1.0  0.44329999999999997  0.88347  0.85425  1.0000
  H   H24       1.0  0.64965  0.019609999999999995  0.4945  1.0000
  H   H25       1.0  0.28451  0.04913  0.62831  1.0000
  H   H26       1.0  0.39845  0.09991  0.55542  1.0000
  H   H27       1.0  0.05498000000000001  0.77277  0.6376399999999998  1.0000
  H   H28       1.0  0.2194100000000001  0.8248299999999998  0.56717  1.0000
  C   C1        1.0  0.87152  0.49968  0.98911  1.0000
  C   C2        1.0  0.15953  0.17381  0.7893099999999997  1.0000
  C   C3        1.0  0.20512  0.23754  0.7475799999999998  1.0000
  C   C4        1.0  0.53474  0.36551  0.7122599999999998  1.0000
  C   C5        1.0  0.38132  0.3396  0.67535  1.0000
  C   C6        1.0  0.062029999999999995  0.20912  0.70994  1.0000
  C   C7        1.0  0.9257500000000001  0.07507  0.70318  1.0000
  C   C8        1.0  0.9135900000000001  0.34668  0.8817799999999998  1.0000
  C   C9        1.0  0.4727299999999999  0.49460000000000004  0.88772  1.0000
  C   C10       1.0  0.55692  0.53112  0.92725  1.0000
  C   C11       1.0  0.01745  0.38374  0.92054  1.0000
  C   C12       1.0  0.8243999999999999  0.4738  0.9453  1.0000
  C   C13       1.0  0.12799  0.0007100000000000008  0.4890599999999999  1.0000
  C   C14       1.0  0.8382200000000001  0.32604  0.28857  1.0000
  C   C15       1.0  0.79398  0.26163  0.24706999999999998  1.0000
  C   C16       1.0  0.4672200000000001  0.13355  0.21139  1.0000
  C   C17       1.0  0.62224  0.16037  0.17469  1.0000
  C   C18       1.0  0.9397699999999999  0.29042000000000007  0.2097  1.0000
  C   C19       1.0  0.07619  0.42468  0.20318999999999995  1.0000
  C   C20       1.0  0.085  0.15388  0.3814  1.0000
  C   C21       1.0  0.52571  0.006080000000000003  0.3876499999999999  1.0000
  C   C22       1.0  0.44167000000000006  0.9698  0.42722999999999994  1.0000
  C   C23       1.0  0.9814200000000001  0.11712  0.42023999999999995  1.0000
  C   C24       1.0  0.17433  0.02707  0.4451999999999999  1.0000
  C   C25       1.0  0.12848  0.50032  0.010889999999999997  1.0000
  C   C26       1.0  0.84048  0.8262  0.21069  1.0000
  C   C27       1.0  0.7948799999999999  0.76247  0.25242  1.0000
  C   C28       1.0  0.46527  0.6345  0.2877399999999999  1.0000
  C   C29       1.0  0.61869  0.6604  0.32465  1.0000
  C   C30       1.0  0.9379700000000001  0.79089  0.29006  1.0000
  C   C31       1.0  0.07424999999999997  0.9249400000000001  0.29682  1.0000
  C   C32       1.0  0.08641  0.65332  0.11821999999999998  1.0000
  C   C33       1.0  0.5272800000000001  0.5054  0.11228  1.0000
  C   C34       1.0  0.44309  0.4688800000000001  0.07275  1.0000
  C   C35       1.0  0.98256  0.61627  0.07945999999999998  1.0000
  C   C36       1.0  0.17560999999999996  0.52621  0.0547  1.0000
  C   C37       1.0  0.8720100000000002  0.99929  0.51094  1.0000
  C   C38       1.0  0.16177999999999995  0.67396  0.71143  1.0000
  C   C39       1.0  0.20603  0.7383800000000001  0.75293  1.0000
  C   C40       1.0  0.53279  0.8664500000000002  0.7886099999999998  1.0000
  C   C41       1.0  0.37776  0.83963  0.82531  1.0000
  C   C42       1.0  0.06023000000000001  0.70958  0.7903  1.0000
  C   C43       1.0  0.9238199999999999  0.57533  0.79681  1.0000
  C   C44       1.0  0.9150100000000001  0.84612  0.6186  1.0000
  C   C45       1.0  0.4743000000000001  0.99393  0.6123499999999997  1.0000
  C   C46       1.0  0.55833  0.030210000000000004  0.57277  1.0000
  C   C47       1.0  0.01858999999999998  0.8828800000000001  0.5797599999999998  1.0000
  C   C48       1.0  0.8256799999999999  0.97294  0.5548  1.0000
  N   N1        1.0  0.42606000000000005  0.31958  0.74766  1.0000
  N   N2        1.0  0.15376000000000006  0.26428  0.67411  1.0000
  N   N3        1.0  0.65105  0.40135000000000004  0.8652  1.0000
  N   N4        1.0  0.57354  0.17941  0.24693999999999997  1.0000
  N   N5        1.0  0.8498200000000001  0.23575000000000002  0.17374999999999993  1.0000
  N   N6        1.0  0.34737  0.09919000000000001  0.36492  1.0000
  N   N7        1.0  0.57394  0.68043  0.25234  1.0000
  N   N8        1.0  0.84625  0.73572  0.32589  1.0000
  N   N9        1.0  0.34895  0.59865  0.1348  1.0000
  N   N10       1.0  0.42647000000000007  0.82059  0.7530599999999997  1.0000
  N   N11       1.0  0.15017999999999998  0.76426  0.82625  1.0000
  N   N12       1.0  0.6526400000000001  0.90082  0.63508  1.0000
  O   O1        1.0  0.35002  0.20542  0.81723  1.0000
  O   O2        1.0  0.96576  0.0937  0.79484  1.0000
  O   O3        1.0  0.67908  0.04643  0.71887  1.0000
  O   O4        1.0  0.09587999999999997  0.9940100000000001  0.68116  1.0000
  O   O5        1.0  0.6485500000000001  0.29493  0.31666  1.0000
  O   O6        1.0  0.03198000000000001  0.4064  0.2936899999999999  1.0000
  O   O7        1.0  0.32315  0.45324  0.21882  1.0000
  O   O8        1.0  0.9052999999999999  0.50604  0.18119  1.0000
  O   O9        1.0  0.64999  0.79459  0.18276999999999993  1.0000
  O   O10       1.0  0.034249999999999975  0.90631  0.20515999999999995  1.0000
  O   O11       1.0  0.3209300000000001  0.95357  0.2811299999999999  1.0000
  O   O12       1.0  0.9041200000000001  0.0059900000000000005  0.31884  1.0000
  O   O13       1.0  0.35145000000000004  0.70507  0.68333  1.0000
  O   O14       1.0  0.96803  0.5936  0.7063099999999998  1.0000
  O   O15       1.0  0.67685  0.54676  0.78118  1.0000
  O   O16       1.0  0.09470999999999997  0.49396000000000007  0.81881  1.0000
