data_image0
_chemical_formula_structural       Tb4Zn2H24C64N8O32
_chemical_formula_sum              "Tb4 Zn2 H24 C64 N8 O32"
_cell_length_a       12.84756
_cell_length_b       13.31382
_cell_length_c       14.86551
_cell_angle_alpha    116.58338
_cell_angle_beta     115.32670999999999
_cell_angle_gamma    89.95581

_space_group_name_H-M_alt    "P 1"
_space_group_IT_number       1

loop_
  _space_group_symop_operation_xyz
  'x, y, z'

loop_
  _atom_site_type_symbol
  _atom_site_label
  _atom_site_symmetry_multiplicity
  _atom_site_fract_x
  _atom_site_fract_y
  _atom_site_fract_z
  _atom_site_occupancy
  Tb  Tb1       1.0  0.26341  0.7224099999999998  0.31144  1.0000
  Tb  Tb2       1.0  0.9533899999999997  0.277  0.68784  1.0000
  Tb  Tb3       1.0  0.4550799999999999  0.41147  0.68837  1.0000
  Tb  Tb4       1.0  0.76434  0.5885699999999999  0.31118  1.0000
  Zn  Zn1       1.0  0.12671  0.49991999999999986  0.00026  1.0000
  Zn  Zn2       1.0  0.6290999999999998  0.50038  0.00047  1.0000
  H   H1        1.0  0.07763999999999999  0.19806  0.01957  1.0000
  H   H2        1.0  0.3121299999999999  0.44653999999999994  0.37353000000000003  1.0000
  H   H3        1.0  0.31467  0.9234799999999997  0.12247000000000001  1.0000
  H   H4        1.0  0.32507999999999987  0.5637899999999999  0.96526  1.0000
  H   H5        1.0  0.22602999999999998  0.08588999999999998  0.26991  1.0000
  H   H6        1.0  0.31251000000000007  0.75843  0.7968500000000001  1.0000
  H   H7        1.0  0.059839999999999956  0.80324  0.98253  1.0000
  H   H8        1.0  0.9330100000000001  0.5522  0.62714  1.0000
  H   H9        1.0  0.19279999999999997  0.07692000000000006  0.8778100000000001  1.0000
  H   H10       1.0  0.3595299999999999  0.43529  0.03122  1.0000
  H   H11       1.0  0.9547699999999998  0.9131099999999998  0.73003  1.0000
  H   H12       1.0  0.5130099999999999  0.24346999999999994  0.20331  1.0000
  H   H13       1.0  0.5612199999999999  0.1803299999999999  0.9818100000000001  1.0000
  H   H14       1.0  0.43497999999999987  0.07352000000000002  0.62583  1.0000
  H   H15       1.0  0.6949299999999998  0.80246  0.87885  1.0000
  H   H16       1.0  0.8601299999999997  0.5991899999999999  0.03567  1.0000
  H   H17       1.0  0.45336  0.81766  0.73125  1.0000
  H   H18       1.0  0.013790000000000026  0.9621799999999998  0.20548000000000002  1.0000
  H   H19       1.0  0.5779199999999999  0.8222499999999998  0.01875  1.0000
  H   H20       1.0  0.8091499999999998  0.92604  0.37307  1.0000
  H   H21       1.0  0.8179299999999998  0.20021999999999995  0.12397000000000001  1.0000
  H   H22       1.0  0.82526  0.4016099999999999  0.96477  1.0000
  H   H23       1.0  0.7261199999999998  0.18411  0.27044  1.0000
  H   H24       1.0  0.80979  0.038199999999999984  0.79558  1.0000
  C   C1        1.0  0.34098999999999996  0.5501699999999999  0.7886900000000001  1.0000
  C   C2        1.0  0.3523399999999999  0.3051699999999999  0.45819  1.0000
  C   C3        1.0  0.27572  0.27013  0.33513  1.0000
  C   C4        1.0  0.13252  0.2188299999999999  0.1078  1.0000
  C   C5        1.0  0.19020999999999993  0.33295  0.19403  1.0000
  C   C6        1.0  0.26423  0.35811  0.30702  1.0000
  C   C7        1.0  0.18057999999999996  0.4295799999999999  0.16822  1.0000
  C   C8        1.0  0.14859  0.12946  0.13493  1.0000
  C   C9        1.0  0.3163699999999999  0.8471999999999997  0.05285  1.0000
  C   C10       1.0  0.32034  0.64471  0.9641  1.0000
  C   C11       1.0  0.21679  0.1555  0.24940000000000004  1.0000
  C   C12       1.0  0.3147699999999999  0.7416499999999998  0.05214  1.0000
  C   C13       1.0  0.32187000000000004  0.65118  0.87343  1.0000
  C   C14       1.0  0.31509999999999994  0.8526099999999999  0.96028  1.0000
  C   C15       1.0  0.31427  0.7537699999999999  0.8686900000000001  1.0000
  C   C16       1.0  0.30649999999999994  0.7329899999999998  0.14452  1.0000
  C   C17       1.0  0.54988  0.45030999999999993  0.20842  1.0000
  C   C18       1.0  0.8881199999999998  0.6918699999999998  0.54151  1.0000
  C   C19       1.0  0.9368899999999998  0.72866  0.66523  1.0000
  C   C20       1.0  0.02523000000000003  0.78174  0.89384  1.0000
  C   C21       1.0  0.99498  0.66719  0.8075  1.0000
  C   C22       1.0  0.95352  0.6411099999999997  0.6938700000000001  1.0000
  C   C23       1.0  0.011140000000000002  0.57038  0.83294  1.0000
  C   C24       1.0  0.013619999999999985  0.8706699999999998  0.86601  1.0000
  C   C25       1.0  0.26347  0.15331  0.94686  1.0000
  C   C26       1.0  0.35566  0.35507  0.0336  1.0000
  C   C27       1.0  0.9659  0.8438900000000001  0.7510700000000001  1.0000
  C   C28       1.0  0.2625700000000001  0.25830000000000003  0.9465000000000001  1.0000
  C   C29       1.0  0.44694  0.34932999999999986  0.12476  1.0000
  C   C30       1.0  0.35404999999999986  0.14863  0.03984  1.0000
  C   C31       1.0  0.4438799999999999  0.24756999999999996  0.13094  1.0000
  C   C32       1.0  0.16291  0.26662  0.85387  1.0000
  C   C33       1.0  0.050079999999999986  0.7614099999999999  0.21272  1.0000
  C   C34       1.0  0.3882499999999999  0.84828  0.5417  1.0000
  C   C35       1.0  0.4366799999999999  0.93616  0.66508  1.0000
  C   C36       1.0  0.52614  0.11276999999999987  0.89327  1.0000
  C   C37       1.0  0.49685000000000007  0.14020999999999992  0.80649  1.0000
  C   C38       1.0  0.45472999999999997  0.052059999999999926  0.69298  1.0000
  C   C39       1.0  0.51507  0.2622299999999999  0.83157  1.0000
  C   C40       1.0  0.51335  0.9962599999999998  0.86613  1.0000
  C   C41       1.0  0.7651599999999997  0.7953400000000002  0.9484300000000001  1.0000
  C   C42       1.0  0.8565699999999998  0.6812899999999997  0.03692  1.0000
  C   C43       1.0  0.46496999999999994  0.9076299999999998  0.75145  1.0000
  C   C44       1.0  0.76412  0.6903900000000001  0.9488100000000002  1.0000
  C   C45       1.0  0.9475199999999999  0.77821  0.12803  1.0000
  C   C46       1.0  0.8553599999999998  0.89311  0.04144  1.0000
  C   C47       1.0  0.9447699999999998  0.88573  0.13321  1.0000
  C   C48       1.0  0.66464  0.58924  0.85662  1.0000
  C   C49       1.0  0.83882  0.23830999999999994  0.7873499999999999  1.0000
  C   C50       1.0  0.84955  0.15170999999999996  0.4578400000000001  1.0000
  C   C51       1.0  0.7740699999999998  0.06430000000000002  0.33481  1.0000
  C   C52       1.0  0.63245  0.88921  0.10721000000000001  1.0000
  C   C53       1.0  0.6893  0.86083  0.19329000000000002  1.0000
  C   C54       1.0  0.7622299999999997  0.9482499999999998  0.30652  1.0000
  C   C55       1.0  0.6803399999999998  0.73857  0.16785  1.0000
  C   C56       1.0  0.6484299999999997  0.00589  0.13481  1.0000
  C   C57       1.0  0.8182099999999998  0.20665  0.05368  1.0000
  C   C58       1.0  0.8205899999999998  0.3196800000000001  0.9638700000000001  1.0000
  C   C59       1.0  0.71627  0.09384999999999998  0.24934  1.0000
  C   C60       1.0  0.81666  0.31139  0.05283  1.0000
  C   C61       1.0  0.82058  0.2222  0.87256  1.0000
  C   C62       1.0  0.8152199999999997  0.10832999999999998  0.96035  1.0000
  C   C63       1.0  0.8128899999999998  0.11499999999999998  0.86796  1.0000
  C   C64       1.0  0.81053  0.41325  0.14595  1.0000
  N   N1        1.0  0.31253999999999993  0.95461  0.95194  1.0000
  N   N2        1.0  0.10410999999999997  0.010510000000000004  0.05212000000000001  1.0000
  N   N3        1.0  0.3599099999999999  0.0469  0.04868  1.0000
  N   N4        1.0  0.0526  0.9897899999999997  0.94869  1.0000
  N   N5        1.0  0.8611699999999998  0.003250000000000002  0.04950000000000001  1.0000
  N   N6        1.0  0.5521299999999999  0.9600799999999998  0.94896  1.0000
  N   N7        1.0  0.81286  0.9982699999999999  0.95245  1.0000
  N   N8        1.0  0.6042199999999998  0.0426  0.05235  1.0000
  O   O1        1.0  0.37491  0.46978  0.81295  1.0000
  O   O2        1.0  0.33296  0.54568  0.6982700000000001  1.0000
  O   O3        1.0  0.11144999999999998  0.4047699999999999  0.06425  1.0000
  O   O4        1.0  0.4403499999999999  0.3931999999999999  0.51888  1.0000
  O   O5        1.0  0.32747  0.25315999999999994  0.50397  1.0000
  O   O6        1.0  0.27534999999999993  0.63086  0.13108  1.0000
  O   O7        1.0  0.32861  0.82187  0.23735  1.0000
  O   O8        1.0  0.24284999999999998  0.52987  0.25002  1.0000
  O   O9        1.0  0.56143  0.52777  0.1812  1.0000
  O   O10       1.0  0.6294599999999998  0.45785999999999993  0.30136  1.0000
  O   O11       1.0  0.04776000000000003  0.59544  0.9373800000000001  1.0000
  O   O12       1.0  0.9053699999999998  0.59658  0.47806  1.0000
  O   O13       1.0  0.82606  0.7492399999999998  0.49755000000000005  1.0000
  O   O14       1.0  0.14307000000000003  0.36857999999999996  0.8681400000000001  1.0000
  O   O15       1.0  0.09499000000000009  0.17792000000000005  0.7600600000000001  1.0000
  O   O16       1.0  0.9898199999999998  0.4698999999999998  0.75029  1.0000
  O   O17       1.0  0.0594  0.65662  0.18838  1.0000
  O   O18       1.0  0.13168  0.8471199999999998  0.30304  1.0000
  O   O19       1.0  0.55002  0.3419  0.93553  1.0000
  O   O20       1.0  0.4077199999999999  0.8783399999999998  0.47808000000000006  1.0000
  O   O21       1.0  0.32450999999999997  0.74811  0.49823  1.0000
  O   O22       1.0  0.6485699999999998  0.5001199999999999  0.8697499999999999  1.0000
  O   O23       1.0  0.59342  0.58577  0.76428  1.0000
  O   O24       1.0  0.49664  0.27935  0.74901  1.0000
  O   O25       1.0  0.8722099999999998  0.34292  0.8115  1.0000
  O   O26       1.0  0.8307999999999998  0.15251  0.69684  1.0000
  O   O27       1.0  0.61345  0.65927  0.0635  1.0000
  O   O28       1.0  0.9311  0.12054999999999996  0.52095  1.0000
  O   O29       1.0  0.83082  0.25289  0.50156  1.0000
  O   O30       1.0  0.7778699999999997  0.50126  0.13183  1.0000
  O   O31       1.0  0.8353199999999997  0.4186499999999999  0.23999  1.0000
  O   O32       1.0  0.7410699999999998  0.7207999999999998  0.25057  1.0000
