data_image0
_chemical_formula_structural       In4H24C48N8O16
_chemical_formula_sum              "In4 H24 C48 N8 O16"
_cell_length_a       11.22433
_cell_length_b       18.61955
_cell_length_c       18.617219999999996
_cell_angle_alpha    84.96645
_cell_angle_beta     72.78157
_cell_angle_gamma    72.74487

_symmetry_space_group_name_H-M    'P 1'
_symmetry_Int_Tables_number       1

loop_
  _symmetry_equiv_pos_as_xyz
  'x,y,z'

loop_
  _atom_site_type_symbol
  _atom_site_label
  _atom_site_symmetry_multiplicity
  _atom_site_fract_x
  _atom_site_fract_y
  _atom_site_fract_z
  _atom_site_occupancy
  In  In1       1.0  0.01568000000000006  0.8302799999999998  0.4129500000000001  1.0000
  In  In2       1.0  0.26306000000000007  0.16875  0.58658  1.0000
  In  In3       1.0  0.15101999999999993  0.58654  0.8311800000000001  1.0000
  In  In4       1.0  0.5703599999999999  0.41276  0.16903  1.0000
  H   H1        1.0  0.16565  0.66407  0.31993  1.0000
  H   H2        1.0  0.57731  0.60459  0.28858  1.0000
  H   H3        1.0  0.5442000000000002  0.7255499999999999  0.35038  1.0000
  H   H4        1.0  0.50898  0.8219999999999997  0.4012  1.0000
  H   H5        1.0  0.45591000000000004  0.94294  0.46391000000000004  1.0000
  H   H6        1.0  0.05343000000000003  0.9744299999999999  0.47725000000000006  1.0000
  H   H7        1.0  0.15325999999999992  0.33323  0.67913  1.0000
  H   H8        1.0  0.47096000000000005  0.3965599999999999  0.7119  1.0000
  H   H9        1.0  0.62116  0.27592  0.65064  1.0000
  H   H10       1.0  0.73469  0.17853  0.5991800000000003  1.0000
  H   H11       1.0  0.86342  0.05788999999999999  0.53608  1.0000
  H   H12       1.0  0.50637  0.024769999999999997  0.52284  1.0000
  H   H13       1.0  0.16867  0.67898  0.6660400000000002  1.0000
  H   H14       1.0  0.81746  0.71197  0.60413  1.0000
  H   H15       1.0  0.7288699999999998  0.65011  0.7246700000000001  1.0000
  H   H16       1.0  0.6670199999999994  0.59904  0.82161  1.0000
  H   H17       1.0  0.6002899999999999  0.53628  0.94249  1.0000
  H   H18       1.0  0.9712099999999998  0.52226  0.975  1.0000
  H   H19       1.0  0.5143099999999998  0.32029  0.33489  1.0000
  H   H20       1.0  0.13388999999999984  0.28856  0.3960200000000001  1.0000
  H   H21       1.0  0.10474000000000004  0.34976  0.27494  1.0000
  H   H22       1.0  0.0886500000000001  0.4009199999999999  0.17825  1.0000
  H   H23       1.0  0.07906000000000003  0.4640099999999999  0.057580000000000006  1.0000
  H   H24       1.0  0.46896000000000004  0.4767899999999999  0.02505  1.0000
  C   C1        1.0  0.25108999999999987  0.67636  0.32626  1.0000
  C   C2        1.0  0.37400999999999973  0.62516  0.29961  1.0000
  C   C3        1.0  0.48069  0.64351  0.30897  1.0000
  C   C4        1.0  0.46148999999999984  0.71099  0.34339  1.0000
  C   C5        1.0  0.3353899999999998  0.75971  0.36870000000000014  1.0000
  C   C6        1.0  0.3091300000000001  0.8323999999999998  0.40547  1.0000
  C   C7        1.0  0.40834000000000015  0.8563299999999999  0.41824  1.0000
  C   C8        1.0  0.37855  0.92473  0.45386  1.0000
  C   C9        1.0  0.24898000000000006  0.96901  0.4763800000000001  1.0000
  C   C10       1.0  0.1553  0.94228  0.46101  1.0000
  C   C11       1.0  0.38923999999999986  0.55339  0.26094  1.0000
  C   C12       1.0  0.20666999999999996  0.04328  0.51725  1.0000
  C   C13       1.0  0.2566899999999999  0.32187  0.67337  1.0000
  C   C14       1.0  0.30107999999999996  0.37394  0.7000700000000001  1.0000
  C   C15       1.0  0.43461  0.35679999999999995  0.69131  1.0000
  C   C16       1.0  0.51751  0.28955  0.65721  1.0000
  C   C17       1.0  0.4664  0.23983999999999997  0.6317  1.0000
  C   C18       1.0  0.5494799999999999  0.16738  0.5949500000000002  1.0000
  C   C19       1.0  0.68489  0.14402  0.58207  1.0000
  C   C20       1.0  0.7581899999999997  0.07569  0.5462700000000001  1.0000
  C   C21       1.0  0.6951499999999998  0.030949999999999995  0.5237000000000003  1.0000
  C   C22       1.0  0.5600299999999999  0.05725  0.5391200000000002  1.0000
  C   C23       1.0  0.20558000000000004  0.44523  0.73822  1.0000
  C   C24       1.0  0.7660100000000001  0.9565299999999999  0.48275  1.0000
  C   C25       1.0  0.07098000000000002  0.6730399999999997  0.67779  1.0000
  C   C26       1.0  0.99952  0.69998  0.62615  1.0000
  C   C27       1.0  0.8745899999999999  0.6911799999999999  0.64361  1.0000
  C   C28       1.0  0.8260200000000001  0.6567799999999998  0.71078  1.0000
  C   C29       1.0  0.9030899999999997  0.63105  0.7600500000000002  1.0000
  C   C30       1.0  0.8567000000000001  0.59428  0.83251  1.0000
  C   C31       1.0  0.7337299999999998  0.58177  0.8560600000000002  1.0000
  C   C32       1.0  0.6956599999999998  0.5461999999999998  0.9244400000000002  1.0000
  C   C33       1.0  0.7811299999999999  0.5235  0.9690600000000001  1.0000
  C   C34       1.0  0.9013100000000001  0.53858  0.94264  1.0000
  C   C35       1.0  0.05667000000000006  0.73826  0.55478  1.0000
  C   C36       1.0  0.74985  0.48267  0.043390000000000005  1.0000
  C   C37       1.0  0.42250999999999994  0.32634  0.32288  1.0000
  C   C38       1.0  0.3261299999999999  0.29997  0.37461  1.0000
  C   C39       1.0  0.21002  0.30891  0.35666  1.0000
  C   C40       1.0  0.19457000000000005  0.34294999999999987  0.28916  1.0000
  C   C41       1.0  0.29539  0.36814999999999987  0.23992000000000002  1.0000
  C   C42       1.0  0.2847399999999999  0.4048  0.16726000000000002  1.0000
  C   C43       1.0  0.17247999999999997  0.41786  0.14375  1.0000
  C   C44       1.0  0.16668  0.45370999999999995  0.07548  1.0000
  C   C45       1.0  0.2739  0.4762  0.03094  1.0000
  C   C46       1.0  0.38316  0.46056  0.05731  1.0000
  C   C47       1.0  0.34958000000000006  0.2621099999999999  0.44649  1.0000
  C   C48       1.0  0.27557  0.51721  0.95673  1.0000
  N   N1        1.0  0.23273000000000002  0.74119  0.35978000000000004  1.0000
  N   N2        1.0  0.18415000000000017  0.8761999999999998  0.42686  1.0000
  N   N3        1.0  0.3369200000000001  0.2573  0.64026  1.0000
  N   N4        1.0  0.48953999999999986  0.12316  0.57337  1.0000
  N   N5        1.0  0.02415999999999998  0.6396  0.7423  1.0000
  N   N6        1.0  0.9381200000000001  0.57261  0.8765900000000001  1.0000
  N   N7        1.0  0.40721000000000007  0.3593599999999999  0.25799  1.0000
  N   N8        1.0  0.38851  0.42612  0.12319000000000001  1.0000
  O   O1        1.0  0.2923499999999999  0.53865  0.2544  1.0000
  O   O2        1.0  0.5112499999999999  0.51366  0.23705  1.0000
  O   O3        1.0  0.08998000000000002  0.07973  0.53781  1.0000
  O   O4        1.0  0.3041  0.06137  0.52724  1.0000
  O   O5        1.0  0.08849000000000001  0.45859999999999995  0.74341  1.0000
  O   O6        1.0  0.2620300000000001  0.48585999999999996  0.76335  1.0000
  O   O7        1.0  0.7043900000000001  0.9205899999999998  0.46231  1.0000
  O   O8        1.0  0.8909899999999998  0.93824  0.47285  1.0000
  O   O9        1.0  0.16876999999999995  0.74344  0.54087  1.0000
  O   O10       1.0  0.9744099999999999  0.7633199999999999  0.51487  1.0000
  O   O11       1.0  0.83072  0.4620699999999999  0.07984000000000002  1.0000
  O   O12       1.0  0.63463  0.47283  0.06134  1.0000
  O   O13       1.0  0.4517799999999998  0.25762999999999997  0.4617  1.0000
  O   O14       1.0  0.25294000000000005  0.23646999999999999  0.48581  1.0000
  O   O15       1.0  0.37179  0.53801  0.9204000000000001  1.0000
  O   O16       1.0  0.16842999999999997  0.52697  0.93858  1.0000
