data_image0
_chemical_formula_structural       Co2H48C56N14O8
_chemical_formula_sum              "Co2 H48 C56 N14 O8"
_cell_length_a       10.93611
_cell_length_b       10.98298
_cell_length_c       13.29307
_cell_angle_alpha    97.104
_cell_angle_beta     112.57479
_cell_angle_gamma    103.20068999999998

_symmetry_space_group_name_H-M    'P 1'
_symmetry_Int_Tables_number       1

loop_
  _symmetry_equiv_pos_as_xyz
  'x,y,z'

loop_
  _atom_site_type_symbol
  _atom_site_label
  _atom_site_symmetry_multiplicity
  _atom_site_fract_x
  _atom_site_fract_y
  _atom_site_fract_z
  _atom_site_occupancy
  Co  Co1       1.0  0.50107  0.00167  0.00184  1.0000
  Co  Co2       1.0  0.0017800000000000001  0.0006  0.00177  1.0000
  H   H1        1.0  0.21601  0.03486  0.80913  1.0000
  H   H2        1.0  0.7002099999999999  0.95947  0.79264  1.0000
  H   H3        1.0  0.93361  0.3139  0.84646  1.0000
  H   H4        1.0  0.77511  0.24061  0.08400999999999999  1.0000
  H   H5        1.0  0.22191  0.75284  0.56369  1.0000
  H   H6        1.0  0.90241  0.14758  0.61515  1.0000
  H   H7        1.0  0.33057  0.78234  0.4197600000000001  1.0000
  H   H8        1.0  0.09676  0.16275  0.8289  1.0000
  H   H9        1.0  0.55168  0.6388000000000001  0.86585  1.0000
  H   H10       1.0  0.7634100000000001  0.8647099999999999  0.37452  1.0000
  H   H11       1.0  0.9974200000000001  0.75307  0.8380500000000001  1.0000
  H   H12       1.0  0.4693399999999999  0.08050000000000003  0.75252  1.0000
  H   H13       1.0  0.66905  0.29273  0.75372  1.0000
  H   H14       1.0  0.41833999999999993  0.76037  0.77481  1.0000
  H   H15       1.0  0.17360999999999996  0.38118  0.8600600000000002  1.0000
  H   H16       1.0  0.28788  0.53792  0.93508  1.0000
  H   H17       1.0  0.1396  0.51585  0.80588  1.0000
  H   H18       1.0  0.59986  0.47881  0.74077  1.0000
  H   H19       1.0  0.68136  0.78194  0.60046  1.0000
  H   H20       1.0  0.50518  0.68801  0.51159  1.0000
  H   H21       1.0  0.55432  0.7608099999999999  0.65301  1.0000
  H   H22       1.0  0.9415  0.66758  0.45867  1.0000
  H   H23       1.0  0.79441  0.69427  0.4725  1.0000
  H   H24       1.0  0.94931  0.71226  0.59349  1.0000
  H   H25       1.0  0.78507  0.96589  0.19338  1.0000
  H   H26       1.0  0.30241999999999997  0.04073  0.21037  1.0000
  H   H27       1.0  0.06791999999999995  0.6871499999999999  0.155  1.0000
  H   H28       1.0  0.22753000000000015  0.76093  0.91837  1.0000
  H   H29       1.0  0.78196  0.24868  0.43984  1.0000
  H   H30       1.0  0.09935000000000001  0.85302  0.38746  1.0000
  H   H31       1.0  0.67149  0.21792999999999996  0.5829  1.0000
  H   H32       1.0  0.9053099999999998  0.83849  0.17376  1.0000
  H   H33       1.0  0.45006  0.36302  0.13583  1.0000
  H   H34       1.0  0.23932999999999996  0.13609  0.62821  1.0000
  H   H35       1.0  0.0043100000000000065  0.2476  0.16384  1.0000
  H   H36       1.0  0.53228  0.9199399999999999  0.25027  1.0000
  H   H37       1.0  0.33194000000000007  0.70747  0.24815000000000004  1.0000
  H   H38       1.0  0.58473  0.24164999999999998  0.22929  1.0000
  H   H39       1.0  0.82705  0.6204  0.14005  1.0000
  H   H40       1.0  0.7130199999999999  0.4635299999999999  0.06521  1.0000
  H   H41       1.0  0.8605899999999999  0.48598999999999987  0.19503  1.0000
  H   H42       1.0  0.40138  0.52237  0.26167  1.0000
  H   H43       1.0  0.3205699999999999  0.21793000000000004  0.40152000000000004  1.0000
  H   H44       1.0  0.4966499999999999  0.3123  0.49039  1.0000
  H   H45       1.0  0.44783  0.23874000000000006  0.3492100000000001  1.0000
  H   H46       1.0  0.06228  0.33349  0.54404  1.0000
  H   H47       1.0  0.20898  0.30583999999999995  0.5302  1.0000
  H   H48       1.0  0.05433000000000003  0.28863  0.40919000000000005  1.0000
  C   C1        1.0  0.95648  0.86784  0.50617  1.0000
  C   C2        1.0  0.7238  0.8852499999999999  0.9783200000000001  1.0000
  C   C3        1.0  0.7491099999999997  0.77827  0.91449  1.0000
  C   C4        1.0  0.24795000000000003  0.9613100000000002  0.77339  1.0000
  C   C5        1.0  0.8325999999999999  0.51515  0.70056  1.0000
  C   C6        1.0  0.7843  0.009579999999999983  0.77533  1.0000
  C   C7        1.0  0.09054  0.94967  0.57773  1.0000
  C   C8        1.0  0.9648  0.39708999999999994  0.914  1.0000
  C   C9        1.0  0.87922  0.40363  0.96854  1.0000
  C   C10       1.0  0.71563  0.22525  0.99474  1.0000
  C   C11       1.0  0.08941999999999992  0.4933499999999999  0.94458  1.0000
  C   C12       1.0  0.63011  0.016760000000000004  0.58447  1.0000
  C   C13       1.0  0.25042999999999993  0.8118699999999999  0.64546  1.0000
  C   C14       1.0  0.5367599999999999  0.8915399999999998  0.54181  1.0000
  C   C15       1.0  0.89139  0.11084  0.68378  1.0000
  C   C16       1.0  0.40574  0.87819  0.45782  1.0000
  C   C17       1.0  0.9859300000000001  0.11631000000000002  0.7894900000000001  1.0000
  C   C18       1.0  0.6488799999999999  0.65917  0.85719  1.0000
  C   C19       1.0  0.8692399999999999  0.9229399999999999  0.43044  1.0000
  C   C20       1.0  0.80132  0.6051  0.77898  1.0000
  C   C21       1.0  0.89836  0.72435  0.8433000000000002  1.0000
  C   C22       1.0  0.56077  0.14592000000000002  0.82204  1.0000
  C   C23       1.0  0.6573299999999997  0.24914999999999998  0.81997  1.0000
  C   C24       1.0  0.3471  0.8166399999999999  0.75042  1.0000
  C   C25       1.0  0.17885000000000006  0.48218  0.88372  1.0000
  C   C26       1.0  0.6757599999999999  0.57181  0.78906  1.0000
  C   C27       1.0  0.57201  0.7746999999999999  0.57861  1.0000
  C   C28       1.0  0.9082099999999999  0.7291399999999999  0.50857  1.0000
  C   C29       1.0  0.04632999999999999  0.13295  0.49643  1.0000
  C   C30       1.0  0.27919  0.11702  0.024430000000000004  1.0000
  C   C31       1.0  0.25298  0.22314999999999996  0.08798  1.0000
  C   C32       1.0  0.75383  0.039740000000000004  0.2295  1.0000
  C   C33       1.0  0.16816  0.4858  0.30043  1.0000
  C   C34       1.0  0.21817  0.99075  0.22755  1.0000
  C   C35       1.0  0.91218  0.05120000000000002  0.42494  1.0000
  C   C36       1.0  0.03672999999999999  0.60393  0.08748  1.0000
  C   C37       1.0  0.1224  0.59736  0.03303  1.0000
  C   C38       1.0  0.28662  0.77605  0.0076500000000000005  1.0000
  C   C39       1.0  0.912  0.5078  0.05676  1.0000
  C   C40       1.0  0.37190999999999996  0.9835300000000001  0.4184  1.0000
  C   C41       1.0  0.7528199999999999  0.18962  0.35794  1.0000
  C   C42       1.0  0.4653  0.10871999999999998  0.46095  1.0000
  C   C43       1.0  0.11057000000000002  0.88971  0.31888  1.0000
  C   C44       1.0  0.59629  0.12208999999999999  0.54501  1.0000
  C   C45       1.0  0.016229999999999977  0.8844199999999999  0.21315000000000003  1.0000
  C   C46       1.0  0.35313  0.34228  0.14506  1.0000
  C   C47       1.0  0.1335  0.07788  0.57223  1.0000
  C   C48       1.0  0.20029  0.39582  0.22296  1.0000
  C   C49       1.0  0.10355  0.27643  0.15904  1.0000
  C   C50       1.0  0.44091  0.8547799999999999  0.18054  1.0000
  C   C51       1.0  0.34417999999999993  0.7513299999999999  0.18214  1.0000
  C   C52       1.0  0.65571  0.18501999999999996  0.25326  1.0000
  C   C53       1.0  0.82195  0.51934  0.11697  1.0000
  C   C54       1.0  0.3261  0.42918999999999996  0.21333  1.0000
  C   C55       1.0  0.43001  0.22533000000000003  0.4236500000000001  1.0000
  C   C56       1.0  0.09515999999999998  0.2716  0.49407  1.0000
  N   N1        1.0  0.76329  0.04110000000000001  0.67524  1.0000
  N   N2        1.0  0.18794999999999998  0.9054299999999998  0.66097  1.0000
  N   N3        1.0  0.34459999999999996  0.9099699999999998  0.8296  1.0000
  N   N4        1.0  0.7548799999999996  0.2992  0.93071  1.0000
  N   N5        1.0  0.87409  0.80896  0.91007  1.0000
  N   N6        1.0  0.91801  0.053090000000000026  0.8460100000000002  1.0000
  N   N7        1.0  0.59819  0.13154000000000002  0.93125  1.0000
  N   N8        1.0  0.23883  0.95922  0.32756  1.0000
  N   N9        1.0  0.81468  0.09566  0.34195  1.0000
  N   N10       1.0  0.6573399999999999  0.09154  0.17373  1.0000
  N   N11       1.0  0.24697  0.70166  0.07124  1.0000
  N   N12       1.0  0.12823  0.19177999999999998  0.09267000000000002  1.0000
  N   N13       1.0  0.08451999999999996  0.9474699999999999  0.15677  1.0000
  N   N14       1.0  0.40391  0.8697799999999999  0.07151  1.0000
  O   O1        1.0  0.6054799999999998  0.86606  0.97964  1.0000
  O   O2        1.0  0.82362  0.9902099999999999  0.02571  1.0000
  O   O3        1.0  0.94477  0.55793  0.69227  1.0000
  O   O4        1.0  0.7405299999999998  0.40620999999999996  0.65181  1.0000
  O   O5        1.0  0.39781999999999995  0.13866999999999996  0.02319  1.0000
  O   O6        1.0  0.1808599999999999  0.011059999999999988  0.97778  1.0000
  O   O7        1.0  0.055770000000000014  0.44248  0.30828  1.0000
  O   O8        1.0  0.25969  0.59503  0.34885  1.0000
