data_image0
_chemical_formula_structural       Cu8H60C33Br8N6
_chemical_formula_sum              "Cu8 H60 C33 Br8 N6"
_cell_length_a       6.6699
_cell_length_b       14.574460000000002
_cell_length_c       14.575689999999998
_cell_angle_alpha    119.95728
_cell_angle_beta     89.97169000000001
_cell_angle_gamma    90.03864000000002

_space_group_name_H-M_alt    "P 1"
_space_group_IT_number       1

loop_
  _space_group_symop_operation_xyz
  'x, y, z'

loop_
  _atom_site_type_symbol
  _atom_site_label
  _atom_site_symmetry_multiplicity
  _atom_site_fract_x
  _atom_site_fract_y
  _atom_site_fract_z
  _atom_site_occupancy
  Cu  Cu1       1.0  0.43572  0.8931099999999997  0.99526  1.0000
  Cu  Cu2       1.0  0.25571  0.45757999999999993  0.7175199999999999  1.0000
  Cu  Cu3       1.0  0.43556999999999996  0.10210999999999998  0.10658  1.0000
  Cu  Cu4       1.0  0.25644  0.25984  0.54239  1.0000
  Cu  Cu5       1.0  0.43578  0.0045699999999999595  0.8978299999999999  1.0000
  Cu  Cu6       1.0  0.256  0.28237  0.7402700000000001  1.0000
  Cu  Cu7       1.0  0.74237  4.999999999999998e-05  8.999999999999999e-05  1.0000
  Cu  Cu8       1.0  0.95533  0.3331100000000001  0.6665800000000001  1.0000
  H   H1        1.0  0.07204  0.78652  0.87311  1.0000
  H   H2        1.0  0.06629  0.6521799999999998  0.84202  1.0000
  H   H3        1.0  0.36465  0.7473499999999997  0.7541  1.0000
  H   H4        1.0  0.63403  0.6968299999999997  0.81253  1.0000
  H   H5        1.0  0.66315  0.56428  0.7869500000000001  1.0000
  H   H6        1.0  0.37934999999999997  0.5867199999999998  0.9047  1.0000
  H   H7        1.0  0.56781  0.68389  0.97376  1.0000
  H   H8        1.0  0.17294  0.6418299999999999  0.58739  1.0000
  H   H9        1.0  0.00939  0.7265000000000001  0.6902800000000001  1.0000
  H   H10       1.0  0.01875  0.5892999999999999  0.6499100000000001  1.0000
  H   H11       1.0  0.08255  0.82369  0.05608  1.0000
  H   H12       1.0  0.07471  0.68451  0.99896  1.0000
  H   H13       1.0  0.40434  0.81868  0.15953  1.0000
  H   H14       1.0  0.10841  0.6457799999999998  0.13706  1.0000
  H   H15       1.0  0.29904  0.71657  0.24233  1.0000
  H   H16       1.0  0.6069299999999999  0.4871199999999999  0.6076  1.0000
  H   H17       1.0  0.38159  0.50335  0.5535  1.0000
  H   H18       1.0  0.69367  0.68419  0.65541  1.0000
  H   H19       1.0  0.4975899999999999  0.5672899999999997  0.43492000000000003  1.0000
  H   H20       1.0  0.67275  0.6819099999999998  0.48805  1.0000
  H   H21       1.0  0.07081  0.08666999999999996  0.21363  1.0000
  H   H22       1.0  0.06614  0.18961999999999998  0.34787  1.0000
  H   H23       1.0  0.36418  0.006830000000000008  0.25203  1.0000
  H   H24       1.0  0.63415  0.11563999999999999  0.30306  1.0000
  H   H25       1.0  0.66283  0.22243999999999994  0.43566  1.0000
  H   H26       1.0  0.37926  0.31757  0.41289  1.0000
  H   H27       1.0  0.56747  0.28939  0.31547  1.0000
  H   H28       1.0  0.17311  0.9447  0.35736  1.0000
  H   H29       1.0  0.00917  0.9631799999999998  0.27299  1.0000
  H   H30       1.0  0.018879999999999997  0.05968  0.41027  1.0000
  H   H31       1.0  0.08213  0.23144999999999996  0.17584  1.0000
  H   H32       1.0  0.07483  0.3139899999999999  0.31488  1.0000
  H   H33       1.0  0.4033  0.33982  0.17952  1.0000
  H   H34       1.0  0.10923  0.49054  0.35318  1.0000
  H   H35       1.0  0.29881  0.5245299999999998  0.28131  1.0000
  H   H36       1.0  0.60627  0.11957999999999996  0.51243  1.0000
  H   H37       1.0  0.38061999999999996  0.049220000000000014  0.49586  1.0000
  H   H38       1.0  0.69437  0.9714799999999998  0.31585  1.0000
  H   H39       1.0  0.49321  0.8658399999999998  0.42977  1.0000
  H   H40       1.0  0.67004  0.8053599999999997  0.3159  1.0000
  H   H41       1.0  0.07172  0.12557999999999997  0.91249  1.0000
  H   H42       1.0  0.06642  0.1572499999999999  0.80967  1.0000
  H   H43       1.0  0.36363  0.2447099999999999  0.99297  1.0000
  H   H44       1.0  0.63412  0.18762999999999994  0.88476  1.0000
  H   H45       1.0  0.66364  0.2138499999999999  0.7781999999999999  1.0000
  H   H46       1.0  0.38156  0.09525999999999994  0.68199  1.0000
  H   H47       1.0  0.56975  0.026540000000000005  0.71078  1.0000
  H   H48       1.0  0.17168  0.4115199999999999  0.05478  1.0000
  H   H49       1.0  0.00813  0.30819999999999986  0.03577  1.0000
  H   H50       1.0  0.01807  0.34944999999999987  0.93958  1.0000
  H   H51       1.0  0.08309  0.9437499999999998  0.7670800000000001  1.0000
  H   H52       1.0  0.07777  0.00017999999999995946  0.68433  1.0000
  H   H53       1.0  0.40631  0.8400399999999998  0.66039  1.0000
  H   H54       1.0  0.11198  0.8603899999999998  0.50822  1.0000
  H   H55       1.0  0.30218  0.7552199999999998  0.47552  1.0000
  H   H56       1.0  0.6056699999999999  0.39295  0.8805100000000001  1.0000
  H   H57       1.0  0.37984  0.4463099999999999  0.95068  1.0000
  H   H58       1.0  0.69299  0.34414  0.02887  1.0000
  H   H59       1.0  0.49443  0.5640099999999998  0.13345  1.0000
  H   H60       1.0  0.67033  0.5108099999999998  0.19449  1.0000
  C   C1        1.0  0.16559  0.7168899999999998  0.85216  1.0000
  C   C2        1.0  0.26807  0.6825099999999997  0.7466800000000001  1.0000
  C   C3        1.0  0.55422  0.62772  0.80622  1.0000
  C   C4        1.0  0.4546899999999999  0.65714  0.91102  1.0000
  C   C5        1.0  0.10858  0.6577199999999997  0.66309  1.0000
  C   C6        1.0  0.17654  0.75311  0.03096  1.0000
  C   C7        1.0  0.28392  0.7608399999999998  0.12455  1.0000
  C   C8        1.0  0.22792  0.7044699999999998  0.16987  1.0000
  C   C9        1.0  0.49709  0.54615  0.61359  1.0000
  C   C10       1.0  0.6001000000000001  0.6253099999999998  0.59241  1.0000
  C   C11       1.0  0.58892  0.6248799999999998  0.50054  1.0000
  C   C12       1.0  0.16502  0.13509  0.28303  1.0000
  C   C13       1.0  0.26769  0.06384000000000004  0.31710000000000005  1.0000
  C   C14       1.0  0.55409  0.17824999999999994  0.37208  1.0000
  C   C15       1.0  0.45449  0.25352  0.34251  1.0000
  C   C16       1.0  0.10851  0.004650000000000009  0.34174  1.0000
  C   C17       1.0  0.17642  0.2772399999999999  0.24624  1.0000
  C   C18       1.0  0.28373  0.3628099999999999  0.23782  1.0000
  C   C19       1.0  0.22809  0.46449  0.29413  1.0000
  C   C20       1.0  0.4964299999999999  0.06670999999999996  0.45328999999999997  1.0000
  C   C21       1.0  0.59939  0.9666499999999998  0.37392  1.0000
  C   C22       1.0  0.58619  0.87462  0.3731  1.0000
  C   C23       1.0  0.16551  0.14704  0.86421  1.0000
  C   C24       1.0  0.26735  0.25254999999999994  0.93573  1.0000
  C   C25       1.0  0.55458  0.19401999999999997  0.82197  1.0000
  C   C26       1.0  0.45608999999999994  0.08903999999999998  0.7463  1.0000
  C   C27       1.0  0.10758  0.33592  0.99465  1.0000
  C   C28       1.0  0.17839  0.9684599999999999  0.72165  1.0000
  C   C29       1.0  0.28647  0.8745499999999998  0.63671  1.0000
  C   C30       1.0  0.23108  0.8281599999999999  0.53493  1.0000
  C   C31       1.0  0.49579999999999996  0.3864000000000001  0.9332700000000002  1.0000
  C   C32       1.0  0.59879  0.4071099999999999  0.03337  1.0000
  C   C33       1.0  0.58669  0.4985699999999999  0.12508  1.0000
  Br  Br1       1.0  0.72243  0.91235  0.10647  1.0000
  Br  Br2       1.0  0.98808  0.4756299999999999  0.84967  1.0000
  Br  Br3       1.0  0.72305  0.19390999999999994  0.08756  1.0000
  Br  Br4       1.0  0.98832  0.3732599999999999  0.52363  1.0000
  Br  Br5       1.0  0.72339  0.8935099999999999  0.80624  1.0000
  Br  Br6       1.0  0.98895  0.14992999999999995  0.62606  1.0000
  Br  Br7       1.0  0.13665  3e-05  6e-05  1.0000
  Br  Br8       1.0  0.55657  0.33318000000000003  0.6668800000000001  1.0000
  N   N1        1.0  0.3057  0.7440400000000001  0.9420300000000001  1.0000
  N   N2        1.0  0.40053  0.58925  0.72036  1.0000
  N   N3        1.0  0.30539  0.19762999999999997  0.25567  1.0000
  N   N4        1.0  0.40026  0.13063999999999995  0.41038  1.0000
  N   N5        1.0  0.30653  0.05758000000000009  0.8017000000000001  1.0000
  N   N6        1.0  0.40012  0.27946999999999994  0.86925  1.0000
