data_image0
_chemical_formula_structural       Cd6Ni6H24C36O48
_chemical_formula_sum              "Cd6 Ni6 H24 C36 O48"
_cell_length_a       12.85906
_cell_length_b       12.85951
_cell_length_c       12.85933
_cell_angle_alpha    84.90071
_cell_angle_beta     84.86266999999998
_cell_angle_gamma    84.86274

_space_group_name_H-M_alt    "P 1"
_space_group_IT_number       1

loop_
  _space_group_symop_operation_xyz
  'x, y, z'

loop_
  _atom_site_type_symbol
  _atom_site_label
  _atom_site_symmetry_multiplicity
  _atom_site_fract_x
  _atom_site_fract_y
  _atom_site_fract_z
  _atom_site_occupancy
  Cd  Cd1       1.0  0.9887299999999998  0.51294  0.24972000000000003  1.0000
  Cd  Cd2       1.0  0.51292  0.24984000000000003  0.98872  1.0000
  Cd  Cd3       1.0  0.24978999999999996  0.9887100000000002  0.51295  1.0000
  Cd  Cd4       1.0  0.011279999999999998  0.48707  0.75028  1.0000
  Cd  Cd5       1.0  0.48709  0.75016  0.011280000000000004  1.0000
  Cd  Cd6       1.0  0.7502199999999998  0.011300000000000001  0.48706000000000005  1.0000
  Ni  Ni1       1.0  0.2508299999999999  0.51495  0.98672  1.0000
  Ni  Ni2       1.0  0.51495  0.98674  0.2508  1.0000
  Ni  Ni3       1.0  0.9867199999999999  0.25082  0.51499  1.0000
  Ni  Ni4       1.0  0.7491799999999998  0.48506  0.013280000000000004  1.0000
  Ni  Ni5       1.0  0.48504999999999987  0.013259999999999977  0.7492100000000003  1.0000
  Ni  Ni6       1.0  0.013290000000000005  0.7491899999999999  0.48501  1.0000
  H   H1        1.0  0.36625  0.42800000000000005  0.18464000000000005  1.0000
  H   H2        1.0  0.35403  0.51633  0.28527  1.0000
  H   H3        1.0  0.42797999999999997  0.18473000000000003  0.36622000000000005  1.0000
  H   H4        1.0  0.51629  0.28533  0.3540600000000001  1.0000
  H   H5        1.0  0.18468000000000004  0.3661600000000001  0.42794  1.0000
  H   H6        1.0  0.28531  0.354  0.5162300000000001  1.0000
  H   H7        1.0  0.07342  0.13627  0.31438  1.0000
  H   H8        1.0  0.9830699999999999  0.14852999999999997  0.21568000000000007  1.0000
  H   H9        1.0  0.3143999999999999  0.07346  0.13634000000000002  1.0000
  H   H10       1.0  0.21565999999999996  0.98314  0.14856  1.0000
  H   H11       1.0  0.13624999999999995  0.31445  0.07340000000000002  1.0000
  H   H12       1.0  0.14852999999999997  0.21569000000000005  0.98305  1.0000
  H   H13       1.0  0.6337499999999999  0.57201  0.8153700000000002  1.0000
  H   H14       1.0  0.64598  0.48367  0.7147300000000001  1.0000
  H   H15       1.0  0.5720299999999999  0.8152699999999999  0.6337900000000001  1.0000
  H   H16       1.0  0.48370999999999975  0.7146699999999999  0.64595  1.0000
  H   H17       1.0  0.8153199999999999  0.63384  0.57206  1.0000
  H   H18       1.0  0.7146899999999999  0.646  0.48377000000000003  1.0000
  H   H19       1.0  0.92658  0.86373  0.68562  1.0000
  H   H20       1.0  0.01692999999999999  0.85147  0.7843300000000001  1.0000
  H   H21       1.0  0.6855999999999999  0.92654  0.8636600000000002  1.0000
  H   H22       1.0  0.78434  0.016859999999999976  0.8514500000000003  1.0000
  H   H23       1.0  0.8637499999999998  0.68555  0.9266000000000001  1.0000
  H   H24       1.0  0.85148  0.78431  0.01695  1.0000
  C   C1        1.0  0.21357  0.50729  0.20904  1.0000
  C   C2        1.0  0.3316  0.50545  0.20708000000000004  1.0000
  C   C3        1.0  0.3797599999999999  0.58647  0.12839  1.0000
  C   C4        1.0  0.50729  0.20904  0.21357  1.0000
  C   C5        1.0  0.50544  0.20713  0.3316000000000001  1.0000
  C   C6        1.0  0.5864599999999999  0.12841000000000005  0.37975000000000003  1.0000
  C   C7        1.0  0.20904999999999999  0.21355  0.50726  1.0000
  C   C8        1.0  0.20711  0.33158  0.50539  1.0000
  C   C9        1.0  0.1284  0.37977000000000005  0.58646  1.0000
  C   C10       1.0  0.99274  0.28852  0.2926  1.0000
  C   C11       1.0  0.99521  0.17039  0.29376  1.0000
  C   C12       1.0  0.9157199999999998  0.12093  0.37332  1.0000
  C   C13       1.0  0.29251999999999995  0.9927600000000001  0.2885400000000001  1.0000
  C   C14       1.0  0.29373999999999995  0.99526  0.17041  1.0000
  C   C15       1.0  0.37330999999999986  0.91574  0.12092000000000003  1.0000
  C   C16       1.0  0.28851  0.29251  0.9927400000000002  1.0000
  C   C17       1.0  0.17038  0.29375999999999997  0.9952000000000001  1.0000
  C   C18       1.0  0.12093  0.3733099999999999  0.9157200000000001  1.0000
  C   C19       1.0  0.78643  0.49271  0.79097  1.0000
  C   C20       1.0  0.6684  0.49455000000000005  0.7929200000000001  1.0000
  C   C21       1.0  0.6202499999999999  0.41353000000000006  0.8716200000000002  1.0000
  C   C22       1.0  0.49271999999999994  0.79096  0.78643  1.0000
  C   C23       1.0  0.49457  0.79287  0.6684  1.0000
  C   C24       1.0  0.4135400000000001  0.87159  0.62026  1.0000
  C   C25       1.0  0.7909599999999999  0.78645  0.49274  1.0000
  C   C26       1.0  0.79289  0.66842  0.49462  1.0000
  C   C27       1.0  0.8716099999999998  0.62023  0.4135500000000001  1.0000
  C   C28       1.0  0.007269999999999959  0.7114800000000001  0.70741  1.0000
  C   C29       1.0  0.004789999999999975  0.8296100000000002  0.70625  1.0000
  C   C30       1.0  0.08427999999999997  0.87907  0.6266800000000001  1.0000
  C   C31       1.0  0.7074899999999998  0.007240000000000002  0.71147  1.0000
  C   C32       1.0  0.7062699999999996  0.004740000000000002  0.82959  1.0000
  C   C33       1.0  0.6266999999999999  0.08426999999999998  0.8790800000000001  1.0000
  C   C34       1.0  0.71149  0.7074900000000001  0.007260000000000001  1.0000
  C   C35       1.0  0.82962  0.70624  0.0048  1.0000
  C   C36       1.0  0.8790699999999999  0.62669  0.08428  1.0000
  O   O1        1.0  0.15938  0.50282  0.29616  1.0000
  O   O2        1.0  0.16894  0.51243  0.12244  1.0000
  O   O3        1.0  0.44563  0.64134  0.15861  1.0000
  O   O4        1.0  0.3542999999999999  0.59746  0.03251  1.0000
  O   O5        1.0  0.50283  0.29615  0.1594  1.0000
  O   O6        1.0  0.51242  0.12243  0.16893000000000002  1.0000
  O   O7        1.0  0.64134  0.15863  0.4456300000000001  1.0000
  O   O8        1.0  0.5974599999999999  0.03251  0.35428  1.0000
  O   O9        1.0  0.29618  0.15935  0.50282  1.0000
  O   O10       1.0  0.12243999999999998  0.16893000000000005  0.51241  1.0000
  O   O11       1.0  0.15862000000000004  0.44565  0.64135  1.0000
  O   O12       1.0  0.032519999999999986  0.35430000000000006  0.5975  1.0000
  O   O13       1.0  0.99497  0.34282000000000007  0.20555000000000004  1.0000
  O   O14       1.0  0.9897899999999997  0.33306  0.3790900000000001  1.0000
  O   O15       1.0  0.8623399999999998  0.05301999999999999  0.3439800000000001  1.0000
  O   O16       1.0  0.9044499999999999  0.14784  0.46848  1.0000
  O   O17       1.0  0.20545999999999995  0.9949700000000001  0.3428700000000001  1.0000
  O   O18       1.0  0.37899  0.98981  0.33307000000000003  1.0000
  O   O19       1.0  0.34397999999999995  0.86233  0.053010000000000015  1.0000
  O   O20       1.0  0.4684399999999999  0.9044500000000001  0.14783  1.0000
  O   O21       1.0  0.3428399999999999  0.20544999999999997  0.9949700000000001  1.0000
  O   O22       1.0  0.3330699999999999  0.37897000000000003  0.9898000000000002  1.0000
  O   O23       1.0  0.05301999999999998  0.34398  0.8623400000000002  1.0000
  O   O24       1.0  0.14785  0.46843  0.90446  1.0000
  O   O25       1.0  0.8406299999999999  0.4971800000000001  0.7038400000000001  1.0000
  O   O26       1.0  0.8310699999999998  0.48758  0.87756  1.0000
  O   O27       1.0  0.55437  0.35866  0.84139  1.0000
  O   O28       1.0  0.64571  0.40253999999999995  0.9675000000000002  1.0000
  O   O29       1.0  0.49716999999999995  0.70385  0.8406000000000001  1.0000
  O   O30       1.0  0.4875899999999999  0.8775700000000001  0.8310700000000002  1.0000
  O   O31       1.0  0.35867  0.8413700000000001  0.55437  1.0000
  O   O32       1.0  0.40254  0.9674900000000001  0.64572  1.0000
  O   O33       1.0  0.7038299999999997  0.84065  0.49718000000000007  1.0000
  O   O34       1.0  0.8775599999999998  0.83107  0.48759000000000013  1.0000
  O   O35       1.0  0.84139  0.55435  0.35865  1.0000
  O   O36       1.0  0.96749  0.6457  0.4025100000000001  1.0000
  O   O37       1.0  0.005039999999999998  0.6571799999999999  0.7944500000000001  1.0000
  O   O38       1.0  0.010209999999999995  0.66695  0.62092  1.0000
  O   O39       1.0  0.13766  0.94698  0.65602  1.0000
  O   O40       1.0  0.09554999999999995  0.85216  0.5315300000000001  1.0000
  O   O41       1.0  0.79455  0.005030000000000007  0.65714  1.0000
  O   O42       1.0  0.6210199999999998  0.010189999999999998  0.66694  1.0000
  O   O43       1.0  0.6560199999999999  0.13767  0.9469900000000001  1.0000
  O   O44       1.0  0.5315599999999999  0.09555  0.85218  1.0000
  O   O45       1.0  0.65717  0.79455  0.005030000000000001  1.0000
  O   O46       1.0  0.6669399999999998  0.62103  0.0102  1.0000
  O   O47       1.0  0.9469899999999998  0.65602  0.13767  1.0000
  O   O48       1.0  0.8521599999999998  0.53157  0.09554000000000001  1.0000
