data_image0
_chemical_formula_structural       Ho4Cu2H32C48N16O40
_chemical_formula_sum              "Ho4 Cu2 H32 C48 N16 O40"
_cell_length_a       5.97253
_cell_length_b       12.49947
_cell_length_c       23.53638
_cell_angle_alpha    89.96160999999998
_cell_angle_beta     89.97564999999999
_cell_angle_gamma    93.86723000000002

_space_group_name_H-M_alt    "P 1"
_space_group_IT_number       1

loop_
  _space_group_symop_operation_xyz
  'x, y, z'

loop_
  _atom_site_type_symbol
  _atom_site_label
  _atom_site_symmetry_multiplicity
  _atom_site_fract_x
  _atom_site_fract_y
  _atom_site_fract_z
  _atom_site_occupancy
  Ho  Ho1       1.0  8.99999999999881e-05  0.6135  0.82852  1.0000
  Ho  Ho2       1.0  0.50026  0.11339999999999997  0.67151  1.0000
  Ho  Ho3       1.0  0.99412  0.3865099999999999  0.17162  1.0000
  Ho  Ho4       1.0  0.4889  0.88396  0.32847  1.0000
  Cu  Cu1       1.0  0.0004300000000000031  0.50017  0.49967  1.0000
  Cu  Cu2       1.0  0.49906  0.99975  0.99949  1.0000
  H   H1        1.0  0.51746  0.7681099999999998  0.84247  1.0000
  H   H2        1.0  0.86108  0.3842599999999999  0.85929  1.0000
  H   H3        1.0  0.1364  0.61603  0.14027  1.0000
  H   H4        1.0  0.16518  0.6531099999999997  0.60226  1.0000
  H   H5        1.0  0.54669  0.37287999999999993  0.32203  1.0000
  H   H6        1.0  0.66606  0.1534  0.89834  1.0000
  H   H7        1.0  0.29275999999999996  0.18329999999999994  0.5624699999999999  1.0000
  H   H8        1.0  0.36063  0.88274  0.64048  1.0000
  H   H9        1.0  0.59134  0.6245599999999999  0.8985399999999999  1.0000
  H   H10       1.0  0.8964  0.8750999999999999  0.39778  1.0000
  H   H11       1.0  0.47956  0.23149999999999996  0.15878999999999996  1.0000
  H   H12       1.0  0.69903  0.81459  0.43729999999999997  1.0000
  H   H13       1.0  0.13255  0.5646299999999999  0.29933  1.0000
  H   H14       1.0  0.04506999999999997  0.8738799999999998  0.17757999999999996  1.0000
  H   H15       1.0  0.63052  0.0638  0.20036999999999994  1.0000
  H   H16       1.0  0.63359  0.11272  0.35953  1.0000
  H   H17       1.0  0.59952  0.89764  0.6112899999999999  1.0000
  H   H18       1.0  0.3337699999999999  0.84674  0.10147999999999999  1.0000
  H   H19       1.0  0.79192  0.68364  0.93736  1.0000
  H   H20       1.0  0.09238  0.12360999999999998  0.60105  1.0000
  H   H21       1.0  0.20376  0.31719  0.06297999999999998  1.0000
  H   H22       1.0  0.45558  0.62572  0.67778  1.0000
  H   H23       1.0  0.95443  0.12627  0.82203  1.0000
  H   H24       1.0  0.09871999999999999  0.39967  0.88899  1.0000
  H   H25       1.0  0.40203000000000005  0.3761599999999999  0.10203999999999998  1.0000
  H   H26       1.0  0.36243  0.9347099999999999  0.80043  1.0000
  H   H27       1.0  0.9772800000000001  0.73026  0.34193  1.0000
  H   H28       1.0  0.89807  0.6013  0.11083  1.0000
  H   H29       1.0  0.8354  0.34586  0.39792999999999995  1.0000
  H   H30       1.0  0.019380000000000005  0.26763  0.6577  1.0000
  H   H31       1.0  0.86364  0.43443  0.69951  1.0000
  H   H32       1.0  0.39526000000000006  0.09984  0.38891  1.0000
  C   C1        1.0  0.80621  0.84932  0.99065  1.0000
  C   C2        1.0  0.689  0.64811  0.49130999999999997  1.0000
  C   C3        1.0  0.47056  0.09243  0.21415  1.0000
  C   C4        1.0  0.19401  0.15073  0.00886  1.0000
  C   C5        1.0  0.52216  0.906  0.78619  1.0000
  C   C6        1.0  0.08287  0.16847  0.25206  1.0000
  C   C7        1.0  0.29679999999999995  0.6653499999999999  0.40814  1.0000
  C   C8        1.0  0.53869  0.4195  0.59592  1.0000
  C   C9        1.0  0.15184  0.06825  0.26896  1.0000
  C   C10       1.0  0.36743  0.4296299999999999  0.55592  1.0000
  C   C11       1.0  0.86684  0.92914  0.9435699999999998  1.0000
  C   C12       1.0  0.39962  0.7269399999999999  0.21875  1.0000
  C   C13       1.0  0.77239  0.08616  0.89902  1.0000
  C   C14       1.0  0.89693  0.22663999999999995  0.28069  1.0000
  C   C15       1.0  0.43653  0.57086  0.6419  1.0000
  C   C16       1.0  0.13289  0.07089  0.05596999999999999  1.0000
  C   C17       1.0  0.9097  0.8297499999999998  0.74755  1.0000
  C   C18       1.0  0.72864  0.41296  0.39891  1.0000
  C   C19       1.0  0.9720999999999999  0.59292  0.28571  1.0000
  C   C20       1.0  0.5993  0.27224999999999994  0.7802  1.0000
  C   C21       1.0  0.47847  0.51341  0.80312  1.0000
  C   C22       1.0  0.65414  0.56822  0.23074  1.0000
  C   C23       1.0  0.023429999999999996  0.40587  0.7137  1.0000
  C   C24       1.0  0.30701  0.35071999999999987  0.5084599999999999  1.0000
  C   C25       1.0  0.46083  0.57903  0.40355  1.0000
  C   C26       1.0  0.58413  0.66819  0.24768  1.0000
  C   C27       1.0  0.41172  0.3307599999999999  0.7522199999999998  1.0000
  C   C28       1.0  0.3404  0.4304499999999999  0.76935  1.0000
  C   C29       1.0  0.63077  0.56886  0.44389999999999996  1.0000
  C   C30       1.0  0.27097  0.58562  0.6012399999999999  1.0000
  C   C31       1.0  0.88803  0.68566  0.30848  1.0000
  C   C32       1.0  0.69995  0.33181  0.59183  1.0000
  C   C33       1.0  0.93629  0.07116  0.85789  1.0000
  C   C34       1.0  0.38888  0.18614  0.19183  1.0000
  C   C35       1.0  0.19923  0.83192  0.90823  1.0000
  C   C36       1.0  0.96162  0.08067  0.09603  1.0000
  C   C37       1.0  0.56467  0.42788  0.35785  1.0000
  C   C38       1.0  0.038169999999999996  0.9194699999999999  0.9036  1.0000
  C   C39       1.0  0.09645  0.77098  0.71918  1.0000
  C   C40       1.0  0.22762  0.9140399999999997  0.10065999999999997  1.0000
  C   C41       1.0  0.51535  0.48577  0.19703  1.0000
  C   C42       1.0  0.83998  0.9299599999999998  0.73058  1.0000
  C   C43       1.0  0.10735000000000001  0.31271  0.69127  1.0000
  C   C44       1.0  0.012349999999999983  0.9862399999999999  0.30304  1.0000
  C   C45       1.0  0.7999899999999998  0.16804999999999995  0.09164  1.0000
  C   C46       1.0  0.6055  0.8128399999999999  0.8087499999999997  1.0000
  C   C47       1.0  0.06337999999999998  0.9289499999999998  0.1417  1.0000
  C   C48       1.0  0.97865  0.012529999999999996  0.69661  1.0000
  N   N1        1.0  0.7920999999999999  0.7730599999999997  0.78781  1.0000
  N   N2        1.0  0.23773  0.51331  0.55948  1.0000
  N   N3        1.0  0.2613699999999999  0.9866799999999998  0.05903  1.0000
  N   N4        1.0  0.29443  0.27348  0.71215  1.0000
  N   N5        1.0  0.43237999999999993  0.51044  0.35953  1.0000
  N   N6        1.0  0.13889  0.46309  0.75351  1.0000
  N   N7        1.0  0.20171  0.22596  0.21231999999999995  1.0000
  N   N8        1.0  0.73828  0.01332  0.9405199999999999  1.0000
  N   N9        1.0  0.63899  0.96318  0.7465099999999998  1.0000
  N   N10       1.0  0.56928  0.48851999999999995  0.63972  1.0000
  N   N11       1.0  0.3529399999999999  0.034789999999999995  0.25344  1.0000
  N   N12       1.0  0.93112  0.01151  0.13984  1.0000
  N   N13       1.0  0.06836  0.98852  0.8597499999999999  1.0000
  N   N14       1.0  0.70094  0.72524  0.28786  1.0000
  N   N15       1.0  0.8558  0.53545  0.2462  1.0000
  N   N16       1.0  0.7608899999999998  0.48532  0.44065999999999994  1.0000
  O   O1        1.0  0.11916999999999997  0.9298799999999998  0.33755999999999997  1.0000
  O   O2        1.0  0.86401  0.34425  0.5596  1.0000
  O   O3        1.0  0.36242  0.84516  0.9407599999999998  1.0000
  O   O4        1.0  0.7532099999999999  0.63939  0.9024499999999999  1.0000
  O   O5        1.0  0.24003999999999998  0.3630199999999999  0.09744999999999997  1.0000
  O   O6        1.0  0.82831  0.19535999999999995  0.32859999999999995  1.0000
  O   O7        1.0  0.7349099999999998  0.85962  0.40251999999999993  1.0000
  O   O8        1.0  0.18532  0.026099999999999998  0.70756  1.0000
  O   O9        1.0  0.63652  0.15476999999999996  0.05925  1.0000
  O   O10       1.0  0.31856  0.11573  0.96928  1.0000
  O   O11       1.0  0.8169599999999999  0.61412  0.53042  1.0000
  O   O12       1.0  0.15883999999999998  0.6896399999999999  0.7466399999999997  1.0000
  O   O13       1.0  0.18263999999999997  0.3861699999999999  0.46894  1.0000
  O   O14       1.0  0.30839  0.47260999999999986  0.20784999999999998  1.0000
  O   O15       1.0  0.65836  0.19052  0.75257  1.0000
  O   O16       1.0  0.12357  0.24282  0.01103  1.0000
  O   O17       1.0  0.80562  0.9727299999999998  0.29235  1.0000
  O   O18       1.0  0.97608  0.43878  0.87433  1.0000
  O   O19       1.0  0.83839  0.30927999999999994  0.25381  1.0000
  O   O20       1.0  0.37309999999999993  0.5705  0.83747  1.0000
  O   O21       1.0  0.33809  0.80851  0.24605999999999995  1.0000
  O   O22       1.0  0.87304  0.06928  0.6621699999999999  1.0000
  O   O23       1.0  0.8777600000000001  0.7573999999999999  0.98888  1.0000
  O   O24       1.0  0.66143  0.25175  0.6255799999999999  1.0000
  O   O25       1.0  0.33497000000000005  0.6974399999999998  0.17028  1.0000
  O   O26       1.0  0.37801  0.25879  0.51057  1.0000
  O   O27       1.0  0.61266  0.73908  0.48939  1.0000
  O   O28       1.0  0.32854999999999995  0.7454799999999998  0.37414  1.0000
  O   O29       1.0  0.51536  0.059289999999999995  0.37405  1.0000
  O   O30       1.0  0.13569  0.65129  0.44131  1.0000
  O   O31       1.0  0.25424  0.13903  0.59747  1.0000
  O   O32       1.0  0.16362  0.80072  0.67097  1.0000
  O   O33       1.0  0.16137999999999994  0.7516599999999998  0.87465  1.0000
  O   O34       1.0  0.6804300000000001  0.88434  0.029869999999999997  1.0000
  O   O35       1.0  0.68492  0.52714  0.79202  1.0000
  O   O36       1.0  0.019750000000000004  0.56186  0.12583  1.0000
  O   O37       1.0  0.6700200000000001  0.30189  0.8281499999999999  1.0000
  O   O38       1.0  0.83759  0.24824  0.12526  1.0000
  O   O39       1.0  0.47723  0.93692  0.62599  1.0000
  O   O40       1.0  0.6225600000000002  0.42893  0.16284999999999997  1.0000
