data_image0
_chemical_formula_structural       Zn4H44C88O16
_chemical_formula_sum              "Zn4 H44 C88 O16"
_cell_length_a       4.83666
_cell_length_b       13.87954
_cell_length_c       32.45484
_cell_angle_alpha    90.01631
_cell_angle_beta     90.13811000000001
_cell_angle_gamma    97.81733000000001

_symmetry_space_group_name_H-M    'P 1'
_symmetry_Int_Tables_number       1

loop_
  _symmetry_equiv_pos_as_xyz
  'x,y,z'

loop_
  _atom_site_type_symbol
  _atom_site_label
  _atom_site_symmetry_multiplicity
  _atom_site_fract_x
  _atom_site_fract_y
  _atom_site_fract_z
  _atom_site_occupancy
  Zn  Zn1       1.0  0.7555600000000001  0.4065700000000001  0.47183  1.0000
  Zn  Zn2       1.0  0.7539900000000002  0.40671000000000007  0.02806  1.0000
  Zn  Zn3       1.0  0.24600999999999998  0.59329  0.97194  1.0000
  Zn  Zn4       1.0  0.24444  0.59344  0.52817  1.0000
  H   H1        1.0  0.8473499999999999  0.86797  0.14529  1.0000
  H   H2        1.0  0.6868299999999999  0.37555  0.38439  1.0000
  H   H3        1.0  0.92222  0.9160500000000003  0.66656  1.0000
  H   H4        1.0  0.32500999999999997  0.4439100000000001  0.60346  1.0000
  H   H5        1.0  0.61428  0.62016  0.17386  1.0000
  H   H6        1.0  0.58425  0.205  0.83584  1.0000
  H   H7        1.0  0.6746499999999999  0.55536  0.10347  1.0000
  H   H8        1.0  0.5148  0.2738  0.59413  1.0000
  H   H9        1.0  0.62607  0.017350000000000004  0.14522  1.0000
  H   H10       1.0  0.48520000000000013  0.7262000000000002  0.40586  1.0000
  H   H11       1.0  0.51634  0.27433  0.90556  1.0000
  H   H12       1.0  0.32536  0.44465  0.89653  1.0000
  H   H13       1.0  0.675  0.55609  0.39654  1.0000
  H   H14       1.0  0.89889  0.34687  0.74991  1.0000
  H   H15       1.0  0.17141  0.7144200000000003  0.67682  1.0000
  H   H16       1.0  0.6135399999999999  0.62099  0.32621  1.0000
  H   H17       1.0  0.5804099999999999  0.76002  0.75008  1.0000
  H   H18       1.0  0.41548999999999997  0.79536  0.33616  1.0000
  H   H19       1.0  0.9213899999999999  0.91556  0.83385  1.0000
  H   H20       1.0  0.07778999999999997  0.08395  0.33344  1.0000
  H   H21       1.0  0.41574999999999995  0.79501  0.16416  1.0000
  H   H22       1.0  0.06645000000000005  0.8259100000000003  0.60462  1.0000
  H   H23       1.0  0.31318  0.62446  0.6156000000000003  1.0000
  H   H24       1.0  0.62451  0.01687  0.35478  1.0000
  H   H25       1.0  0.41959  0.23998  0.24992000000000003  1.0000
  H   H26       1.0  0.48366999999999993  0.7256700000000001  0.09444  1.0000
  H   H27       1.0  0.10112  0.65314  0.25009  1.0000
  H   H28       1.0  0.68692  0.3757  0.11545  1.0000
  H   H29       1.0  0.3755  0.98313  0.64522  1.0000
  H   H30       1.0  0.8331599999999999  0.28498  0.17625  1.0000
  H   H31       1.0  0.8468399999999999  0.86782  0.35479  1.0000
  H   H32       1.0  0.06602000000000008  0.8255100000000002  0.89576  1.0000
  H   H33       1.0  0.3864599999999999  0.37901000000000007  0.6737900000000002  1.0000
  H   H34       1.0  0.38573  0.3798400000000001  0.82614  1.0000
  H   H35       1.0  0.16684000000000013  0.7150200000000002  0.82375  1.0000
  H   H36       1.0  0.58451  0.20465000000000003  0.66384  1.0000
  H   H37       1.0  0.9335599999999998  0.17409  0.39538  1.0000
  H   H38       1.0  0.8286  0.28559  0.32318  1.0000
  H   H39       1.0  0.3739300000000001  0.9826500000000002  0.85478  1.0000
  H   H40       1.0  0.15265  0.13203  0.8547  1.0000
  H   H41       1.0  0.07861999999999998  0.08444000000000002  0.16615  1.0000
  H   H42       1.0  0.9339799999999999  0.1745  0.10423  1.0000
  H   H43       1.0  0.15316  0.13218  0.64521  1.0000
  H   H44       1.0  0.31307999999999997  0.62431  0.88455  1.0000
  C   C1        1.0  0.68392  0.98833  0.25001  1.0000
  C   C2        1.0  0.09909000000000001  0.59998  0.4482000000000001  1.0000
  C   C3        1.0  0.78782  0.85249  0.8457700000000001  1.0000
  C   C4        1.0  0.91295  0.36683  0.59516  1.0000
  C   C5        1.0  0.49132  0.16894000000000006  0.24992000000000003  1.0000
  C   C6        1.0  0.53006  0.12437000000000002  0.21219  1.0000
  C   C7        1.0  0.19762000000000005  0.10014000000000003  0.74997  1.0000
  C   C8        1.0  0.02078000000000011  0.7227500000000002  0.25007  1.0000
  C   C9        1.0  0.5363899999999999  0.82391  0.6743100000000002  1.0000
  C   C10       1.0  0.08704999999999996  0.63317  0.40484  1.0000
  C   C11       1.0  0.90092  0.40002  0.5518  1.0000
  C   C12       1.0  0.21631000000000003  0.3400900000000001  0.42851  1.0000
  C   C13       1.0  0.86316  0.8556  0.28824  1.0000
  C   C14       1.0  0.25525000000000003  0.7417500000000002  0.15074  1.0000
  C   C15       1.0  0.8635899999999997  0.8557200000000003  0.21185  1.0000
  C   C16       1.0  0.03141000000000001  0.23445  0.78759  1.0000
  C   C17       1.0  0.7447599999999999  0.25826  0.84926  1.0000
  C   C18       1.0  0.62204  0.03215  0.28829  1.0000
  C   C19       1.0  0.35711  0.7417400000000002  0.84028  1.0000
  C   C20       1.0  0.29933  0.28267  0.39291  1.0000
  C   C21       1.0  0.37797  0.9678600000000003  0.71171  1.0000
  C   C22       1.0  0.32162  0.01529  0.82583  1.0000
  C   C23       1.0  0.7984399999999999  0.9013  0.17422  1.0000
  C   C24       1.0  0.5086799999999999  0.8310600000000001  0.75007  1.0000
  C   C25       1.0  0.44567999999999997  0.68887  0.62659  1.0000
  C   C26       1.0  0.7002299999999998  0.7167400000000002  0.89301  1.0000
  C   C27       1.0  0.21092  0.14718  0.3454300000000001  1.0000
  C   C28       1.0  0.7829899999999997  0.6588700000000002  0.92854  1.0000
  C   C29       1.0  0.5287600000000001  0.12420000000000003  0.28768  1.0000
  C   C30       1.0  0.78909  0.8528300000000001  0.65457  1.0000
  C   C31       1.0  0.6783899999999999  0.98471  0.17417  1.0000
  C   C32       1.0  0.87696  0.8002900000000002  0.62139  1.0000
  C   C33       1.0  0.09817000000000002  0.59988  0.05195  1.0000
  C   C34       1.0  0.15664  0.3953800000000001  0.61779  1.0000
  C   C35       1.0  0.47125  0.8758000000000001  0.7123200000000001  1.0000
  C   C36       1.0  0.37676  0.96766  0.78831  1.0000
  C   C37       1.0  0.91418  0.36714  0.90466  1.0000
  C   C38       1.0  0.84268  0.6041300000000002  0.11787  1.0000
  C   C39       1.0  0.15732  0.3958700000000001  0.88213  1.0000
  C   C40       1.0  0.53451  0.82382  0.82592  1.0000
  C   C41       1.0  0.70067  0.7173400000000002  0.60709  1.0000
  C   C42       1.0  0.4636199999999999  0.1761  0.32569  1.0000
  C   C43       1.0  0.25556  0.74201  0.34952  1.0000
  C   C44       1.0  0.13641000000000003  0.14428000000000002  0.7881500000000002  1.0000
  C   C45       1.0  0.19628  0.35598  0.8433  1.0000
  C   C46       1.0  0.2981  0.70086  0.11233  1.0000
  C   C47       1.0  0.010710000000000023  0.71535  0.32719  1.0000
  C   C48       1.0  0.19625999999999996  0.35554  0.6566100000000001  1.0000
  C   C49       1.0  0.7008499999999999  0.29878  0.61205  1.0000
  C   C50       1.0  0.46549  0.17618000000000003  0.17408  1.0000
  C   C51       1.0  0.62325  0.032340000000000015  0.21169  1.0000
  C   C52       1.0  0.21218  0.14751  0.15423  1.0000
  C   C53       1.0  0.44454999999999995  0.6887500000000002  0.8735100000000001  1.0000
  C   C54       1.0  0.010539999999999978  0.7152  0.17295  1.0000
  C   C55       1.0  0.84337  0.60462  0.38221  1.0000
  C   C56       1.0  0.6404199999999998  0.2585  0.3400100000000001  1.0000
  C   C57       1.0  0.2024  0.09892000000000002  0.67417  1.0000
  C   C58       1.0  0.9685999999999999  0.76556  0.2124  1.0000
  C   C59       1.0  0.20156  0.0987  0.82578  1.0000
  C   C60       1.0  0.80238  0.89987  0.25003  1.0000
  C   C61       1.0  0.80373  0.64402  0.1567  1.0000
  C   C62       1.0  0.35958  0.7415  0.65999  1.0000
  C   C63       1.0  0.7836999999999998  0.6599200000000002  0.57149  1.0000
  C   C64       1.0  0.29978  0.28326  0.10698  1.0000
  C   C65       1.0  0.46994  0.87563  0.7878100000000002  1.0000
  C   C66       1.0  0.08581999999999994  0.63286  0.09534000000000002  1.0000
  C   C67       1.0  0.9893000000000002  0.2846600000000001  0.6728100000000002  1.0000
  C   C68       1.0  0.80375  0.6444600000000003  0.34339  1.0000
  C   C69       1.0  0.21700999999999998  0.34113  0.07146  1.0000
  C   C70       1.0  0.64289  0.25826  0.15972  1.0000
  C   C71       1.0  0.9018399999999999  0.40013  0.94805  1.0000
  C   C72       1.0  0.70191  0.29915  0.88767  1.0000
  C   C73       1.0  0.31609  0.011680000000000003  0.74999  1.0000
  C   C74       1.0  0.7444399999999998  0.25799  0.65048  1.0000
  C   C75       1.0  0.12305  0.19972000000000006  0.37861  1.0000
  C   C76       1.0  0.12383999999999998  0.20014  0.12107  1.0000
  C   C77       1.0  0.67699  0.9843800000000003  0.32583  1.0000
  C   C78       1.0  0.87616  0.7998600000000002  0.8789300000000002  1.0000
  C   C79       1.0  0.79761  0.90109  0.32583  1.0000
  C   C80       1.0  0.03139  0.23445  0.71229  1.0000
  C   C81       1.0  0.55546  0.31125  0.12649  1.0000
  C   C82       1.0  0.5543199999999999  0.31113  0.37341  1.0000
  C   C83       1.0  0.29915  0.70122  0.38795  1.0000
  C   C84       1.0  0.9686199999999999  0.7655500000000002  0.28771  1.0000
  C   C85       1.0  0.9792199999999998  0.27725  0.74993  1.0000
  C   C86       1.0  0.98947  0.2848  0.82705  1.0000
  C   C87       1.0  0.13684  0.1444  0.71176  1.0000
  C   C88       1.0  0.32302  0.015620000000000005  0.67417  1.0000
  O   O1        1.0  0.30869  0.6343000000000001  0.029950000000000008  1.0000
  O   O2        1.0  0.11184  0.4556  0.96248  1.0000
  O   O3        1.0  0.38784  0.41165  0.44202  1.0000
  O   O4        1.0  0.8881699999999999  0.5444  0.03752000000000001  1.0000
  O   O5        1.0  0.3095399999999999  0.6343000000000001  0.47041  1.0000
  O   O6        1.0  0.38772999999999996  0.41319  0.05819  1.0000
  O   O7        1.0  0.6913099999999998  0.36570000000000014  0.9700500000000002  1.0000
  O   O8        1.0  0.027760000000000104  0.6851500000000003  0.9435700000000002  1.0000
  O   O9        1.0  0.97136  0.31437  0.44335  1.0000
  O   O10       1.0  0.11105999999999999  0.4556  0.53758  1.0000
  O   O11       1.0  0.028639999999999936  0.68563  0.55665  1.0000
  O   O12       1.0  0.97224  0.31486000000000003  0.05643  1.0000
  O   O13       1.0  0.6904599999999999  0.36570000000000014  0.52959  1.0000
  O   O14       1.0  0.6122800000000002  0.5868100000000003  0.9418  1.0000
  O   O15       1.0  0.61216  0.58835  0.55798  1.0000
  O   O16       1.0  0.8889499999999999  0.54441  0.46242  1.0000
