data_image0
_chemical_formula_structural       Er4Cu2H24C48N16O36
_chemical_formula_sum              "Er4 Cu2 H24 C48 N16 O36"
_cell_length_a       5.93839
_cell_length_b       12.54665
_cell_length_c       23.754790000000003
_cell_angle_alpha    89.84998999999999
_cell_angle_beta     90.07952
_cell_angle_gamma    95.26022

_symmetry_space_group_name_H-M    'P 1'
_symmetry_Int_Tables_number       1

loop_
  _symmetry_equiv_pos_as_xyz
  'x,y,z'

loop_
  _atom_site_type_symbol
  _atom_site_label
  _atom_site_symmetry_multiplicity
  _atom_site_fract_x
  _atom_site_fract_y
  _atom_site_fract_z
  _atom_site_occupancy
  Er  Er1       1.0  0.97721  0.8837599999999999  0.8181699999999998  1.0000
  Er  Er2       1.0  0.022779999999999998  0.11360000000000002  0.18196  1.0000
  Er  Er3       1.0  0.5222300000000001  0.61094  0.31962  1.0000
  Er  Er4       1.0  0.46626  0.38878  0.68135  1.0000
  Cu  Cu1       1.0  0.50073  0.49983  0.0003  1.0000
  Cu  Cu2       1.0  0.99982  0.00020000000000000012  0.50028  1.0000
  H   H1        1.0  0.07540999999999998  0.96513  0.07684  1.0000
  H   H2        1.0  0.10338  0.09771000000000002  0.88335  1.0000
  H   H3        1.0  0.90098  0.89936  0.11625  1.0000
  H   H4        1.0  0.44893  0.7328900000000002  0.84257  1.0000
  H   H5        1.0  0.53544  0.87864  0.67613  1.0000
  H   H6        1.0  0.88157  0.9295300000000001  0.30074  1.0000
  H   H7        1.0  0.59709  0.60097  0.61675  1.0000
  H   H8        1.0  0.42663  0.53476  0.57631  1.0000
  H   H9        1.0  0.5766299999999999  0.46236  0.42295999999999995  1.0000
  H   H10       1.0  0.37943000000000005  0.42914  0.19892999999999994  1.0000
  H   H11       1.0  0.40009  0.39599  0.38461  1.0000
  H   H12       1.0  0.11857  0.07053  0.7000099999999999  1.0000
  H   H13       1.0  0.82424  0.85052  0.60204  1.0000
  H   H14       1.0  0.96426  0.62206  0.17608999999999997  1.0000
  H   H15       1.0  0.46454  0.12104  0.32421  1.0000
  H   H16       1.0  0.32906  0.35073  0.89838  1.0000
  H   H17       1.0  0.045259999999999995  0.76757  0.34343  1.0000
  H   H18       1.0  0.67217  0.6490199999999999  0.10222  1.0000
  H   H19       1.0  0.0372  0.37789  0.8244099999999999  1.0000
  H   H20       1.0  0.61043  0.56973  0.80132  1.0000
  H   H21       1.0  0.17439000000000002  0.14863  0.39809999999999995  1.0000
  H   H22       1.0  0.9524  0.23293000000000003  0.65736  1.0000
  H   H23       1.0  0.92189  0.03424  0.9219099999999998  1.0000
  H   H24       1.0  0.54435  0.26714  0.15628  1.0000
  C   C1        1.0  0.47104  0.08688  0.59601  1.0000
  C   C2        1.0  0.6219  0.30852  0.1926  1.0000
  C   C3        1.0  0.3510499999999999  0.92659  0.22772999999999993  1.0000
  C   C4        1.0  0.57951  0.17189  0.7572499999999999  1.0000
  C   C5        1.0  0.07404  0.67207  0.7425  1.0000
  C   C6        1.0  0.77685  0.58243  0.10049  1.0000
  C   C7        1.0  0.44187  0.06537  0.35948  1.0000
  C   C8        1.0  0.5595300000000001  0.93468  0.64118  1.0000
  C   C9        1.0  0.67245  0.8189  0.40585  1.0000
  C   C10       1.0  0.88542  0.72686  0.71336  1.0000
  C   C11       1.0  0.0588  0.43299999999999994  0.8598  1.0000
  C   C12       1.0  0.3168  0.85329  0.49591  1.0000
  C   C13       1.0  0.96768  0.58437  0.9051899999999999  1.0000
  C   C14       1.0  0.22288  0.41677  0.9003299999999999  1.0000
  C   C15       1.0  0.64827  0.07184  0.77232  1.0000
  C   C16       1.0  0.14137999999999998  0.57191  0.72771  1.0000
  C   C17       1.0  0.17807  0.64358  0.9963099999999998  1.0000
  C   C18       1.0  0.50601  0.98419  0.80237  1.0000
  C   C19       1.0  0.10487  0.27103  0.28656  1.0000
  C   C20       1.0  0.68176  0.14668  0.50459  1.0000
  C   C21       1.0  0.12288999999999999  0.8088  0.30704  1.0000
  C   C22       1.0  0.03170999999999999  0.41468999999999995  0.09579  1.0000
  C   C23       1.0  0.8699199999999999  0.42956  0.05421  1.0000
  C   C24       1.0  0.3904500000000001  0.2254  0.78661  1.0000
  C   C25       1.0  0.1752  0.32115  0.09415  1.0000
  C   C26       1.0  0.4191  0.8263000000000001  0.24305999999999997  1.0000
  C   C27       1.0  0.49333  0.01442  0.19759999999999997  1.0000
  C   C28       1.0  0.13032  0.56968  0.94655  1.0000
  C   C29       1.0  0.82256  0.35568  0.00421  1.0000
  C   C30       1.0  0.99207  0.51238  0.30265  1.0000
  C   C31       1.0  0.6097400000000002  0.77151  0.21436  1.0000
  C   C32       1.0  0.3667199999999999  0.9273899999999999  0.44599  1.0000
  C   C33       1.0  0.53633  0.4004  0.21435  1.0000
  C   C34       1.0  0.99738  0.48502000000000006  0.69761  1.0000
  C   C35       1.0  0.84869  0.42567  0.2722399999999999  1.0000
  C   C36       1.0  0.82446  0.67799  0.90646  1.0000
  C   C37       1.0  0.72238  0.91817  0.60058  1.0000
  C   C38       1.0  0.63253  0.07226  0.55447  1.0000
  C   C39       1.0  0.03773  0.90077  0.28518  1.0000
  C   C40       1.0  0.94117  0.56641  0.14097  1.0000
  C   C41       1.0  0.32741  0.18032  0.59433  1.0000
  C   C42       1.0  0.96066  0.0986  0.71493  1.0000
  C   C43       1.0  0.27904  0.08205  0.40008999999999995  1.0000
  C   C44       1.0  0.52929  0.9125900000000001  0.40467999999999993  1.0000
  C   C45       1.0  0.87464  0.19083000000000003  0.69343  1.0000
  C   C46       1.0  0.45453  0.59825  0.7853399999999999  1.0000
  C   C47       1.0  0.9164  0.32563999999999993  0.25716  1.0000
  C   C48       1.0  0.37006  0.69049  0.8067  1.0000
  N   N1        1.0  0.75808  0.98858  0.55822  1.0000
  N   N2        1.0  0.69355  0.23032  0.7168  1.0000
  N   N3        1.0  0.5644299999999999  0.98044  0.36067  1.0000
  N   N4        1.0  0.8485999999999999  0.0407  0.7552  1.0000
  N   N5        1.0  0.30385  0.76898  0.28376  1.0000
  N   N6        1.0  0.43703  0.01953  0.64023  1.0000
  N   N7        1.0  0.93436  0.51731  0.86098  1.0000
  N   N8        1.0  0.25761  0.48676  0.9427399999999999  1.0000
  N   N9        1.0  0.18894000000000002  0.72968  0.78302  1.0000
  N   N10       1.0  0.06513  0.48194  0.13991  1.0000
  N   N11       1.0  0.64876  0.4573900000000001  0.2549  1.0000
  N   N12       1.0  0.80259  0.2686  0.21624  1.0000
  N   N13       1.0  0.15049000000000004  0.9579300000000001  0.24471  1.0000
  N   N14       1.0  0.2426  0.01161  0.4424  1.0000
  N   N15       1.0  0.74265  0.51254  0.05802  1.0000
  N   N16       1.0  0.34136999999999995  0.54066  0.74517  1.0000
  O   O1        1.0  0.61043  0.91398  0.8268999999999999  1.0000
  O   O2        1.0  0.57727  0.22732  0.49969999999999987  1.0000
  O   O3        1.0  0.7051  0.02007  0.2042  1.0000
  O   O4        1.0  0.16892  0.18991  0.25936  1.0000
  O   O5        1.0  0.80852  0.69405  0.66737  1.0000
  O   O6        1.0  0.011559999999999999  0.02911  0.8879799999999999  1.0000
  O   O7        1.0  0.08227  0.23565  0.11936999999999999  1.0000
  O   O8        1.0  0.8662299999999999  0.83049  0.42501  1.0000
  O   O9        1.0  0.36742  0.33258  0.07409  1.0000
  O   O10       1.0  0.41999000000000003  0.26545  0.61966  1.0000
  O   O11       1.0  0.32977  0.30796  0.75972  1.0000
  O   O12       1.0  0.33089  0.61417  0.030879999999999998  1.0000
  O   O13       1.0  0.67055  0.38576  0.96947  1.0000
  O   O14       1.0  0.1005  0.41446  0.67297  1.0000
  O   O15       1.0  0.66864  0.68857  0.24128999999999998  1.0000
  O   O16       1.0  0.9303499999999999  0.27607  0.99947  1.0000
  O   O17       1.0  0.68675  0.80488  0.16847  1.0000
  O   O18       1.0  0.7860500000000001  0.48144  0.70372  1.0000
  O   O19       1.0  0.9915300000000001  0.9682400000000002  0.11179999999999997  1.0000
  O   O20       1.0  0.13543  0.16929  0.5741  1.0000
  O   O21       1.0  0.17562  0.30275  0.33326  1.0000
  O   O22       1.0  0.91822  0.76264  0.8806599999999998  1.0000
  O   O23       1.0  0.20373  0.51823  0.29583  1.0000
  O   O24       1.0  0.6315900000000001  0.66713  0.9261599999999999  1.0000
  O   O25       1.0  0.16711  0.88424  0.53081  1.0000
  O   O26       1.0  0.06828000000000002  0.7223700000000001  0.00149  1.0000
  O   O27       1.0  0.83222  0.11580000000000001  0.4699499999999999  1.0000
  O   O28       1.0  0.50114  0.53335  0.61269  1.0000
  O   O29       1.0  0.4872  0.46573  0.38874999999999993  1.0000
  O   O30       1.0  0.8877499999999999  0.58174  0.32777  1.0000
  O   O31       1.0  0.57861  0.73369  0.38085  1.0000
  O   O32       1.0  0.8279999999999998  0.80956  0.74028  1.0000
  O   O33       1.0  0.3172000000000001  0.19171  0.83282  1.0000
  O   O34       1.0  0.42226  0.77293  0.5007  1.0000
  O   O35       1.0  0.38900999999999997  0.08437  0.17281  1.0000
  O   O36       1.0  0.29419  0.97838  0.7958299999999999  1.0000
