data_image0
_chemical_formula_structural       Mn8H16C64N8O48
_chemical_formula_sum              "Mn8 H16 C64 N8 O48"
_cell_length_a       13.32251
_cell_length_b       15.30085
_cell_length_c       15.30046
_cell_angle_alpha    65.40526
_cell_angle_beta     78.43667
_cell_angle_gamma    78.43606

_space_group_name_H-M_alt    "P 1"
_space_group_IT_number       1

loop_
  _space_group_symop_operation_xyz
  'x, y, z'

loop_
  _atom_site_type_symbol
  _atom_site_label
  _atom_site_symmetry_multiplicity
  _atom_site_fract_x
  _atom_site_fract_y
  _atom_site_fract_z
  _atom_site_occupancy
  Mn  Mn1       1.0  0.12947999999999996  0.7113100000000002  0.56331  1.0000
  Mn  Mn2       1.0  0.8708700000000001  0.66108  0.66  1.0000
  Mn  Mn3       1.0  0.3705  0.43673  0.28867  1.0000
  Mn  Mn4       1.0  0.62913  0.34003  0.33891  1.0000
  Mn  Mn5       1.0  0.8705199999999997  0.28868  0.4367  1.0000
  Mn  Mn6       1.0  0.12912999999999994  0.33891  0.34001  1.0000
  Mn  Mn7       1.0  0.6295  0.5632599999999999  0.71134  1.0000
  Mn  Mn8       1.0  0.37086999999999987  0.6599600000000001  0.6611  1.0000
  H   H1        1.0  0.97243  0.36341  0.73848  1.0000
  H   H2        1.0  0.18787  0.46365  0.47831  1.0000
  H   H3        1.0  0.08991999999999996  0.9972300000000001  0.5293  1.0000
  H   H4        1.0  0.3410699999999998  0.9227900000000003  0.6967  1.0000
  H   H5        1.0  0.5275699999999999  0.26152  0.63661  1.0000
  H   H6        1.0  0.31208999999999987  0.5216700000000001  0.53636  1.0000
  H   H7        1.0  0.41005  0.4706800000000001  0.0028300000000000005  1.0000
  H   H8        1.0  0.15892000000000003  0.30328  0.07720999999999999  1.0000
  H   H9        1.0  0.02756999999999997  0.63659  0.26152  1.0000
  H   H10       1.0  0.8121299999999998  0.53635  0.52169  1.0000
  H   H11       1.0  0.91008  0.002770000000000007  0.47069999999999995  1.0000
  H   H12       1.0  0.65893  0.07721000000000001  0.30331  1.0000
  H   H13       1.0  0.47242999999999996  0.73848  0.36339  1.0000
  H   H14       1.0  0.68791  0.47833000000000003  0.46364  1.0000
  H   H15       1.0  0.5899499999999998  0.52932  0.99717  1.0000
  H   H16       1.0  0.8410799999999999  0.69672  0.9228  1.0000
  C   C1        1.0  0.06598000000000002  0.25447000000000003  0.6936299999999999  1.0000
  C   C2        1.0  0.032329999999999935  0.34945000000000004  0.68451  1.0000
  C   C3        1.0  0.07683999999999996  0.42539  0.60728  1.0000
  C   C4        1.0  0.15388999999999994  0.40466000000000024  0.53914  1.0000
  C   C5        1.0  0.18800999999999995  0.30869000000000013  0.54898  1.0000
  C   C6        1.0  0.14494  0.23102  0.62772  1.0000
  C   C7        1.0  0.17185  0.13191  0.62681  1.0000
  C   C8        1.0  0.11475999999999999  0.10740999999999999  0.57388  1.0000
  C   C9        1.0  0.13548  0.016230000000000012  0.56885  1.0000
  C   C10       1.0  0.21482000000000004  0.94783  0.61542  1.0000
  C   C11       1.0  0.27669  0.9732  0.66283  1.0000
  C   C12       1.0  0.25529  0.06402000000000004  0.66702  1.0000
  C   C13       1.0  0.04357000000000002  0.52652  0.6009699999999999  1.0000
  C   C14       1.0  0.27593  0.28961  0.4779  1.0000
  C   C15       1.0  0.028060000000000022  0.17774  0.5238  1.0000
  C   C16       1.0  0.23443  0.8491  0.61372  1.0000
  C   C17       1.0  0.43401999999999996  0.30637  0.74554  1.0000
  C   C18       1.0  0.46767  0.31548999999999994  0.65056  1.0000
  C   C19       1.0  0.42313999999999985  0.39272000000000007  0.57462  1.0000
  C   C20       1.0  0.3460799999999999  0.46085000000000015  0.59536  1.0000
  C   C21       1.0  0.31197  0.4510100000000002  0.69133  1.0000
  C   C22       1.0  0.35506999999999994  0.37227  0.769  1.0000
  C   C23       1.0  0.32817  0.37318  0.86811  1.0000
  C   C24       1.0  0.38526000000000005  0.42611000000000004  0.8926199999999999  1.0000
  C   C25       1.0  0.36451000000000006  0.43114  0.98379  1.0000
  C   C26       1.0  0.28515  0.38459  0.05217  1.0000
  C   C27       1.0  0.2232999999999999  0.3371600000000001  0.026800000000000004  1.0000
  C   C28       1.0  0.24472000000000005  0.33297  0.93598  1.0000
  C   C29       1.0  0.45643000000000006  0.39903  0.47349  1.0000
  C   C30       1.0  0.22405999999999998  0.52208  0.71044  1.0000
  C   C31       1.0  0.4719499999999999  0.47619000000000017  0.8222899999999999  1.0000
  C   C32       1.0  0.26550999999999997  0.38634000000000013  0.15088  1.0000
  C   C33       1.0  0.9340199999999997  0.74553  0.30637  1.0000
  C   C34       1.0  0.9676699999999998  0.6505500000000002  0.31550000000000006  1.0000
  C   C35       1.0  0.9231599999999993  0.5746100000000001  0.39273  1.0000
  C   C36       1.0  0.84611  0.5953300000000002  0.46086  1.0000
  C   C37       1.0  0.8119899999999998  0.6913000000000002  0.45103  1.0000
  C   C38       1.0  0.85506  0.76898  0.37228  1.0000
  C   C39       1.0  0.82815  0.8680899999999999  0.37319  1.0000
  C   C40       1.0  0.88524  0.8925800000000003  0.42613  1.0000
  C   C41       1.0  0.8645199999999998  0.98376  0.43115  1.0000
  C   C42       1.0  0.78518  0.052159999999999984  0.38458  1.0000
  C   C43       1.0  0.7233099999999999  0.026789999999999994  0.33718  1.0000
  C   C44       1.0  0.7447099999999999  0.9359799999999999  0.33298000000000005  1.0000
  C   C45       1.0  0.9564299999999998  0.47348  0.39903  1.0000
  C   C46       1.0  0.72407  0.7103800000000001  0.52211  1.0000
  C   C47       1.0  0.97194  0.8222600000000001  0.4762  1.0000
  C   C48       1.0  0.76557  0.1509  0.38628  1.0000
  C   C49       1.0  0.5659799999999999  0.69363  0.25446  1.0000
  C   C50       1.0  0.5323299999999996  0.6845  0.34945  1.0000
  C   C51       1.0  0.5768600000000002  0.60727  0.42538  1.0000
  C   C52       1.0  0.65392  0.5391500000000002  0.40465  1.0000
  C   C53       1.0  0.6880299999999999  0.54899  0.30867  1.0000
  C   C54       1.0  0.6449299999999998  0.62772  0.23101  1.0000
  C   C55       1.0  0.6718399999999998  0.6268200000000002  0.1319  1.0000
  C   C56       1.0  0.61474  0.57389  0.10739  1.0000
  C   C57       1.0  0.6354899999999999  0.56886  0.01621  1.0000
  C   C58       1.0  0.7148499999999998  0.6154100000000001  0.9478399999999999  1.0000
  C   C59       1.0  0.7766999999999998  0.6628300000000001  0.9732  1.0000
  C   C60       1.0  0.7552799999999997  0.66703  0.06402  1.0000
  C   C61       1.0  0.5435699999999999  0.60097  0.52652  1.0000
  C   C62       1.0  0.77594  0.47791  0.28956  1.0000
  C   C63       1.0  0.52805  0.5238  0.17772  1.0000
  C   C64       1.0  0.73449  0.61366  0.84912  1.0000
  N   N1        1.0  0.01644999999999999  0.17775000000000005  0.77823  1.0000
  N   N2        1.0  0.32445  0.08815000000000003  0.71544  1.0000
  N   N3        1.0  0.48356000000000005  0.22177000000000002  0.8222599999999999  1.0000
  N   N4        1.0  0.17556000000000002  0.2845599999999999  0.91183  1.0000
  N   N5        1.0  0.9835499999999998  0.8222500000000003  0.22178  1.0000
  N   N6        1.0  0.6755500000000001  0.91185  0.28456  1.0000
  N   N7        1.0  0.51644  0.77823  0.17774999999999996  1.0000
  N   N8        1.0  0.8244399999999997  0.71543  0.08817  1.0000
  O   O1        1.0  0.05584999999999994  0.09256  0.79533  1.0000
  O   O2        1.0  0.9396199999999998  0.2039  0.82644  1.0000
  O   O3        1.0  0.9588899999999999  0.54158  0.65243  1.0000
  O   O4        1.0  0.10131000000000004  0.59134  0.5463  1.0000
  O   O5        1.0  0.2629599999999999  0.34344  0.38435  1.0000
  O   O6        1.0  0.35384  0.23269000000000004  0.50255  1.0000
  O   O7        1.0  0.045309999999999996  0.22746000000000002  0.42983  1.0000
  O   O8        1.0  0.93951  0.18642  0.5689  1.0000
  O   O9        1.0  0.17264  0.8272499999999999  0.57431  1.0000
  O   O10       1.0  0.31295999999999996  0.79317  0.65225  1.0000
  O   O11       1.0  0.29821999999999993  0.16433000000000003  0.72932  1.0000
  O   O12       1.0  0.4044899999999999  0.03162999999999999  0.73803  1.0000
  O   O13       1.0  0.44415999999999994  0.20467000000000005  0.90746  1.0000
  O   O14       1.0  0.56037  0.17354999999999998  0.79611  1.0000
  O   O15       1.0  0.54111  0.34758  0.45842  1.0000
  O   O16       1.0  0.3986899999999998  0.4537  0.40866  1.0000
  O   O17       1.0  0.23703000000000005  0.6156199999999998  0.65658  1.0000
  O   O18       1.0  0.14618  0.49745000000000006  0.76743  1.0000
  O   O19       1.0  0.45469999999999977  0.5701600000000004  0.77255  1.0000
  O   O20       1.0  0.5604999999999999  0.43111  0.8136  1.0000
  O   O21       1.0  0.3272399999999999  0.4258300000000001  0.17271  1.0000
  O   O22       1.0  0.18701999999999996  0.34775  0.20681  1.0000
  O   O23       1.0  0.20179  0.27070000000000005  0.83564  1.0000
  O   O24       1.0  0.09551999999999995  0.2619600000000001  0.96834  1.0000
  O   O25       1.0  0.94416  0.90744  0.20467  1.0000
  O   O26       1.0  0.06038000000000001  0.79609  0.17356  1.0000
  O   O27       1.0  0.04110999999999996  0.45841000000000015  0.34757000000000005  1.0000
  O   O28       1.0  0.8987  0.40866  0.4537  1.0000
  O   O29       1.0  0.7370399999999998  0.6565600000000001  0.61565  1.0000
  O   O30       1.0  0.6461599999999998  0.7673000000000002  0.49746  1.0000
  O   O31       1.0  0.95469  0.7725300000000002  0.57017  1.0000
  O   O32       1.0  0.06048999999999993  0.8135700000000002  0.43111  1.0000
  O   O33       1.0  0.8273699999999998  0.17274  0.42569000000000007  1.0000
  O   O34       1.0  0.68704  0.20683000000000004  0.34775  1.0000
  O   O35       1.0  0.70178  0.83567  0.27068  1.0000
  O   O36       1.0  0.59551  0.96836  0.26197  1.0000
  O   O37       1.0  0.5558399999999999  0.7953300000000002  0.09254  1.0000
  O   O38       1.0  0.4396299999999998  0.8264400000000001  0.20389999999999997  1.0000
  O   O39       1.0  0.45888999999999996  0.65241  0.54158  1.0000
  O   O40       1.0  0.6013100000000001  0.5463  0.59135  1.0000
  O   O41       1.0  0.7629699999999999  0.38438000000000005  0.34343  1.0000
  O   O42       1.0  0.8538199999999999  0.5025400000000002  0.23256999999999997  1.0000
  O   O43       1.0  0.54531  0.4298400000000001  0.22745  1.0000
  O   O44       1.0  0.43949999999999995  0.5688900000000002  0.18641  1.0000
  O   O45       1.0  0.67276  0.5741600000000001  0.8273  1.0000
  O   O46       1.0  0.8129799999999997  0.65224  0.79319  1.0000
  O   O47       1.0  0.79821  0.72929  0.16436  1.0000
  O   O48       1.0  0.9044799999999998  0.73803  0.03166  1.0000
