data_image0
_chemical_formula_structural       La4H32C64N4O24
_chemical_formula_sum              "La4 H32 C64 N4 O24"
_cell_length_a       13.14628
_cell_length_b       15.008899999999999
_cell_length_c       16.284550000000003
_cell_angle_alpha    117.1534
_cell_angle_beta     97.00209000000001
_cell_angle_gamma    89.88461

_symmetry_space_group_name_H-M    'P 1'
_symmetry_Int_Tables_number       1

loop_
  _symmetry_equiv_pos_as_xyz
  'x,y,z'

loop_
  _atom_site_type_symbol
  _atom_site_label
  _atom_site_symmetry_multiplicity
  _atom_site_fract_x
  _atom_site_fract_y
  _atom_site_fract_z
  _atom_site_occupancy
  La  La1       1.0  0.52859  0.53154  0.6328000000000003  1.0000
  La  La2       1.0  0.97121  0.90057  0.3677300000000001  1.0000
  La  La3       1.0  0.47141000000000005  0.46845000000000003  0.36719  1.0000
  La  La4       1.0  0.02879000000000001  0.09942999999999996  0.63227  1.0000
  H   H1        1.0  0.43596  0.6169700000000001  0.9411900000000002  1.0000
  H   H2        1.0  0.37435  0.72931  0.09328000000000002  1.0000
  H   H3        1.0  0.39228  0.9784699999999998  0.03199  1.0000
  H   H4        1.0  0.45412  0.8649999999999998  0.87944  1.0000
  H   H5        1.0  0.34874999999999995  0.88719  0.20905  1.0000
  H   H6        1.0  0.4315  0.20217  0.31242  1.0000
  H   H7        1.0  0.22664  0.9688399999999997  0.29502  1.0000
  H   H8        1.0  0.30814  0.23177999999999993  0.55745  1.0000
  H   H9        1.0  0.06316  0.67789  0.06178  1.0000
  H   H10       1.0  0.12533  0.6361699999999998  0.90916  1.0000
  H   H11       1.0  0.10983  0.9450299999999998  0.96607  1.0000
  H   H12       1.0  0.04734  0.9859699999999998  0.11913000000000001  1.0000
  H   H13       1.0  0.15212000000000006  0.67723  0.79178  1.0000
  H   H14       1.0  0.07001000000000003  0.8888700000000002  0.6875000000000002  1.0000
  H   H15       1.0  0.2747  0.67202  0.70492  1.0000
  H   H16       1.0  0.19164  0.67388  0.4420600000000001  1.0000
  H   H17       1.0  0.56404  0.38302  0.05881000000000001  1.0000
  H   H18       1.0  0.62565  0.27069  0.90671  1.0000
  H   H19       1.0  0.60772  0.021530000000000108  0.9680100000000003  1.0000
  H   H20       1.0  0.54588  0.13499  0.12056  1.0000
  H   H21       1.0  0.65125  0.11280000000000014  0.7909400000000002  1.0000
  H   H22       1.0  0.5685  0.7978200000000001  0.6875800000000001  1.0000
  H   H23       1.0  0.77336  0.031160000000000118  0.7049800000000003  1.0000
  H   H24       1.0  0.69186  0.76821  0.44255  1.0000
  H   H25       1.0  0.93684  0.32211  0.93822  1.0000
  H   H26       1.0  0.87467  0.36381999999999987  0.09084000000000003  1.0000
  H   H27       1.0  0.89017  0.05496  0.03392  1.0000
  H   H28       1.0  0.95266  0.014029999999999968  0.88087  1.0000
  H   H29       1.0  0.84788  0.32276  0.20821000000000006  1.0000
  H   H30       1.0  0.9299899999999999  0.11112000000000002  0.3125000000000001  1.0000
  H   H31       1.0  0.7253  0.3279699999999999  0.29508  1.0000
  H   H32       1.0  0.80836  0.3261200000000001  0.5579400000000002  1.0000
  C   C1        1.0  0.49290999999999996  0.6694500000000001  0.8158800000000003  1.0000
  C   C2        1.0  0.44992999999999994  0.7351699999999999  0.90282  1.0000
  C   C3        1.0  0.42564  0.69597  0.9619900000000002  1.0000
  C   C4        1.0  0.39172  0.75868  0.04619  1.0000
  C   C5        1.0  0.38149999999999995  0.86131  0.07272000000000003  1.0000
  C   C6        1.0  0.40185  0.8993599999999999  0.01123  1.0000
  C   C7        1.0  0.43592  0.8367800000000001  0.9271000000000003  1.0000
  C   C8        1.0  0.3575400000000001  0.9257299999999998  0.16650000000000004  1.0000
  C   C9        1.0  0.43095  0.3272  0.49864  1.0000
  C   C10       1.0  0.37573000000000006  0.22730000000000003  0.4411200000000001  1.0000
  C   C11       1.0  0.38453999999999994  0.17261  0.34612  1.0000
  C   C12       1.0  0.33528  0.07639  0.29333  1.0000
  C   C13       1.0  0.2708  0.04008000000000002  0.33556  1.0000
  C   C14       1.0  0.26052  0.09580000000000002  0.43023  1.0000
  C   C15       1.0  0.31481  0.18866999999999995  0.48382  1.0000
  C   C16       1.0  0.18953999999999996  0.05502999999999995  0.47153  1.0000
  C   C17       1.0  0.00731  0.85617  0.18503  1.0000
  C   C18       1.0  0.05053  0.8336699999999998  0.09784000000000002  1.0000
  C   C19       1.0  0.07422  0.7352399999999998  0.03987000000000001  1.0000
  C   C20       1.0  0.10855000000000004  0.7127  0.9554400000000002  1.0000
  C   C21       1.0  0.11977  0.788  0.92779  1.0000
  C   C22       1.0  0.09978  0.88753  0.98801  1.0000
  C   C23       1.0  0.06526  0.9101  0.07230000000000002  1.0000
  C   C24       1.0  0.14408  0.75811  0.83396  1.0000
  C   C25       1.0  0.06945  0.82852  0.50093  1.0000
  C   C26       1.0  0.1249  0.78563  0.5585  1.0000
  C   C27       1.0  0.11678  0.8256499999999998  0.65367  1.0000
  C   C28       1.0  0.16641000000000003  0.7819099999999999  0.7066000000000002  1.0000
  C   C29       1.0  0.23036  0.7031299999999999  0.6643500000000002  1.0000
  C   C30       1.0  0.23989000000000002  0.6645000000000001  0.5695000000000002  1.0000
  C   C31       1.0  0.18541  0.70422  0.51581  1.0000
  C   C32       1.0  0.31068  0.58257  0.52817  1.0000
  C   C33       1.0  0.50709  0.33055  0.18412000000000003  1.0000
  C   C34       1.0  0.55007  0.26483  0.09717  1.0000
  C   C35       1.0  0.57436  0.30403  0.03801  1.0000
  C   C36       1.0  0.6082800000000002  0.24132  0.9538  1.0000
  C   C37       1.0  0.6185  0.13869  0.92727  1.0000
  C   C38       1.0  0.59815  0.10064  0.98877  1.0000
  C   C39       1.0  0.56408  0.16321000000000002  0.07290000000000002  1.0000
  C   C40       1.0  0.64246  0.07427000000000002  0.83349  1.0000
  C   C41       1.0  0.56905  0.6728  0.50135  1.0000
  C   C42       1.0  0.62427  0.7727000000000002  0.5588800000000002  1.0000
  C   C43       1.0  0.61546  0.82739  0.65388  1.0000
  C   C44       1.0  0.66472  0.9236  0.70666  1.0000
  C   C45       1.0  0.7292  0.9599199999999999  0.6644300000000002  1.0000
  C   C46       1.0  0.7394799999999999  0.9041899999999999  0.56977  1.0000
  C   C47       1.0  0.68519  0.8113299999999998  0.51617  1.0000
  C   C48       1.0  0.8104500000000002  0.94497  0.52846  1.0000
  C   C49       1.0  0.9926900000000001  0.14382000000000011  0.8149700000000002  1.0000
  C   C50       1.0  0.94947  0.1663199999999999  0.90216  1.0000
  C   C51       1.0  0.9257799999999999  0.26476  0.96012  1.0000
  C   C52       1.0  0.89145  0.2873  0.04456  1.0000
  C   C53       1.0  0.88023  0.212  0.0722  1.0000
  C   C54       1.0  0.9002200000000001  0.11246  0.011980000000000003  1.0000
  C   C55       1.0  0.9347399999999999  0.0899  0.92769  1.0000
  C   C56       1.0  0.85592  0.24189  0.16604  1.0000
  C   C57       1.0  0.93055  0.17146999999999996  0.49907  1.0000
  C   C58       1.0  0.8751000000000001  0.21436000000000005  0.4415000000000001  1.0000
  C   C59       1.0  0.8832199999999999  0.17434000000000005  0.34633000000000014  1.0000
  C   C60       1.0  0.83359  0.21809000000000006  0.2934000000000001  1.0000
  C   C61       1.0  0.76964  0.29686  0.33564  1.0000
  C   C62       1.0  0.7601099999999998  0.3355000000000001  0.43049000000000004  1.0000
  C   C63       1.0  0.81459  0.29578  0.4841900000000001  1.0000
  C   C64       1.0  0.68932  0.41743  0.47182000000000013  1.0000
  N   N1        1.0  0.35359000000000007  0.02180000000000003  0.20033000000000006  1.0000
  N   N2        1.0  0.14876  0.8202699999999998  0.79975  1.0000
  N   N3        1.0  0.64641  0.9782  0.79967  1.0000
  N   N4        1.0  0.85124  0.17973  0.20025  1.0000
  O   O1        1.0  0.50543  0.57656  0.7951  1.0000
  O   O2        1.0  0.51541  0.70497  0.7615800000000003  1.0000
  O   O3        1.0  0.44907  0.36195  0.58665  1.0000
  O   O4        1.0  0.45993  0.37789  0.45813  1.0000
  O   O5        1.0  0.14287  0.96954  0.41708  1.0000
  O   O6        1.0  0.17736999999999997  0.10624000000000004  0.55733  1.0000
  O   O7        1.0  0.9946100000000001  0.78489  0.20716000000000007  1.0000
  O   O8        1.0  0.98476  0.9458200000000001  0.23816000000000007  1.0000
  O   O9        1.0  0.05132  0.7764599999999999  0.41292  1.0000
  O   O10       1.0  0.04023000000000002  0.9193199999999999  0.54157  1.0000
  O   O11       1.0  0.35714000000000007  0.55075  0.58264  1.0000
  O   O12       1.0  0.32291  0.5489199999999999  0.4424500000000001  1.0000
  O   O13       1.0  0.49457  0.42343999999999976  0.2049  1.0000
  O   O14       1.0  0.48458999999999997  0.2950199999999999  0.23841000000000004  1.0000
  O   O15       1.0  0.55093  0.63805  0.41334  1.0000
  O   O16       1.0  0.54007  0.6221099999999999  0.54187  1.0000
  O   O17       1.0  0.85713  0.030449999999999932  0.58292  1.0000
  O   O18       1.0  0.82263  0.8937599999999998  0.4426600000000001  1.0000
  O   O19       1.0  0.005390000000000044  0.2151100000000001  0.7928400000000002  1.0000
  O   O20       1.0  0.015240000000000045  0.05418000000000014  0.7618400000000002  1.0000
  O   O21       1.0  0.94868  0.22353999999999988  0.58708  1.0000
  O   O22       1.0  0.9597699999999999  0.08067000000000006  0.4584200000000001  1.0000
  O   O23       1.0  0.64286  0.4492399999999999  0.4173600000000001  1.0000
  O   O24       1.0  0.67709  0.45108000000000004  0.5575500000000001  1.0000
