data_image0
_chemical_formula_structural       Cd2H44C60N12O12
_chemical_formula_sum              "Cd2 H44 C60 N12 O12"
_cell_length_a       12.29918
_cell_length_b       12.29718
_cell_length_c       13.44744
_cell_angle_alpha    78.12025
_cell_angle_beta     78.15911
_cell_angle_gamma    67.04806

_symmetry_space_group_name_H-M    'P 1'
_symmetry_Int_Tables_number       1

loop_
  _symmetry_equiv_pos_as_xyz
  'x,y,z'

loop_
  _atom_site_type_symbol
  _atom_site_label
  _atom_site_symmetry_multiplicity
  _atom_site_fract_x
  _atom_site_fract_y
  _atom_site_fract_z
  _atom_site_occupancy
  Cd  Cd1       1.0  0.4999999999999999  0.0  0.5  1.0000
  Cd  Cd2       1.0  0.0  0.5  0.0  1.0000
  H   H1        1.0  0.45342  0.18426  0.28004  1.0000
  H   H2        1.0  0.04584000000000001  0.22347999999999996  0.44023  1.0000
  H   H3        1.0  0.28148000000000006  0.3078699999999999  0.17917  1.0000
  H   H4        1.0  0.9815599999999999  0.64302  0.33808  1.0000
  H   H5        1.0  0.34507  0.86245  0.66075  1.0000
  H   H6        1.0  0.15705  0.46784  0.60443  1.0000
  H   H7        1.0  0.13764000000000004  0.65786  0.58402  1.0000
  H   H8        1.0  0.43427000000000016  0.87155  0.34556999999999993  1.0000
  H   H9        1.0  0.31042999999999993  0.7560799999999999  0.33791  1.0000
  H   H10       1.0  0.2176899999999999  0.7434  0.66748  1.0000
  H   H11       1.0  0.22360000000000002  0.11347000000000003  0.533  1.0000
  H   H12       1.0  0.8156599999999999  0.54651  0.22  1.0000
  H   H13       1.0  0.7765199999999998  0.9543199999999997  0.05997  1.0000
  H   H14       1.0  0.6920899999999999  0.7183499999999999  0.32083  1.0000
  H   H15       1.0  0.35704  0.018380000000000007  0.16184999999999997  1.0000
  H   H16       1.0  0.13752000000000011  0.6548999999999998  0.83928  1.0000
  H   H17       1.0  0.5321500000000001  0.8429299999999997  0.8956399999999999  1.0000
  H   H18       1.0  0.3421299999999998  0.86233  0.9159599999999998  1.0000
  H   H19       1.0  0.12838  0.56577  0.15451  1.0000
  H   H20       1.0  0.24392999999999998  0.6895400000000002  0.16214  1.0000
  H   H21       1.0  0.25659999999999994  0.78227  0.83252  1.0000
  H   H22       1.0  0.8864600000000001  0.7766699999999999  0.9671499999999997  1.0000
  H   H23       1.0  0.54658  0.8157299999999997  0.71996  1.0000
  H   H24       1.0  0.95417  0.7765199999999999  0.55977  1.0000
  H   H25       1.0  0.7185199999999999  0.6921199999999997  0.8208299999999998  1.0000
  H   H26       1.0  0.0184400000000001  0.3569799999999999  0.6619199999999997  1.0000
  H   H27       1.0  0.6549299999999998  0.13754  0.33925  1.0000
  H   H28       1.0  0.8429599999999995  0.53215  0.39557  1.0000
  H   H29       1.0  0.86236  0.34214  0.41597  1.0000
  H   H30       1.0  0.56573  0.12844  0.6544299999999998  1.0000
  H   H31       1.0  0.6895699999999999  0.24392  0.66209  1.0000
  H   H32       1.0  0.78231  0.25659999999999994  0.33252  1.0000
  H   H33       1.0  0.7764  0.88653  0.46699999999999997  1.0000
  H   H34       1.0  0.18433999999999998  0.45348  0.78  1.0000
  H   H35       1.0  0.22348000000000004  0.04568  0.94003  1.0000
  H   H36       1.0  0.30791  0.28165  0.67917  1.0000
  H   H37       1.0  0.64296  0.98162  0.83815  1.0000
  H   H38       1.0  0.8624799999999998  0.3450899999999999  0.16071999999999997  1.0000
  H   H39       1.0  0.46784999999999993  0.15707  0.10434999999999998  1.0000
  H   H40       1.0  0.6578699999999998  0.13767  0.08404  1.0000
  H   H41       1.0  0.8716199999999998  0.43423  0.8454799999999999  1.0000
  H   H42       1.0  0.75607  0.31044999999999995  0.83786  1.0000
  H   H43       1.0  0.7433999999999998  0.21772  0.16748  1.0000
  H   H44       1.0  0.11354000000000003  0.22332999999999997  0.03285  1.0000
  C   C1        1.0  0.045809999999999976  0.34278  0.24210999999999996  1.0000
  C   C2        1.0  0.15017999999999998  0.27514999999999995  0.30221999999999993  1.0000
  C   C3        1.0  0.36095  0.19868999999999992  0.31305  1.0000
  C   C4        1.0  0.13404000000000005  0.21941999999999998  0.4027899999999999  1.0000
  C   C5        1.0  0.2665499999999999  0.2651  0.25733  1.0000
  C   C6        1.0  0.9893999999999996  0.57987  0.4084399999999999  1.0000
  C   C7        1.0  0.3358599999999999  0.83557  0.59138  1.0000
  C   C8        1.0  0.08791000000000002  0.48218  0.55908  1.0000
  C   C9        1.0  0.38513  0.84126  0.41549  1.0000
  C   C10       1.0  0.2546200000000001  0.7382799999999999  0.5034299999999999  1.0000
  C   C11       1.0  0.31637999999999994  0.77586  0.41114  1.0000
  C   C12       1.0  0.07737000000000002  0.56283  0.46799  1.0000
  C   C13       1.0  0.26519  0.7700000000000001  0.5949199999999999  1.0000
  C   C14       1.0  0.15654  0.63353  0.4321  1.0000
  C   C15       1.0  0.23248  0.15705  0.45425  1.0000
  C   C16       1.0  0.6572600000000001  0.9541599999999999  0.25793  1.0000
  C   C17       1.0  0.72486  0.8498099999999998  0.19787999999999997  1.0000
  C   C18       1.0  0.8012599999999998  0.63902  0.18699  1.0000
  C   C19       1.0  0.78059  0.86606  0.09735  1.0000
  C   C20       1.0  0.7348799999999999  0.73337  0.24272  1.0000
  C   C21       1.0  0.42015999999999987  0.010580000000000003  0.09151  1.0000
  C   C22       1.0  0.16440000000000005  0.66413  0.90865  1.0000
  C   C23       1.0  0.51781  0.91208  0.94095  1.0000
  C   C24       1.0  0.1587  0.61487  0.08456999999999998  1.0000
  C   C25       1.0  0.2617300000000001  0.7453499999999998  0.99659  1.0000
  C   C26       1.0  0.22414000000000003  0.6836  0.08891  1.0000
  C   C27       1.0  0.43719  0.9225999999999999  0.032  1.0000
  C   C28       1.0  0.23000000000000007  0.73478  0.90509  1.0000
  C   C29       1.0  0.36650000000000005  0.84343  0.06788  1.0000
  C   C30       1.0  0.84291  0.7676799999999998  0.04587  1.0000
  C   C31       1.0  0.9541899999999999  0.65722  0.75789  1.0000
  C   C32       1.0  0.8498299999999999  0.72485  0.69778  1.0000
  C   C33       1.0  0.6390499999999998  0.80131  0.68695  1.0000
  C   C34       1.0  0.8659599999999997  0.78058  0.59721  1.0000
  C   C35       1.0  0.73345  0.7349  0.74267  1.0000
  C   C36       1.0  0.010600000000000033  0.42013  0.59156  1.0000
  C   C37       1.0  0.66414  0.16443  0.4086199999999999  1.0000
  C   C38       1.0  0.9120899999999998  0.51782  0.44092  1.0000
  C   C39       1.0  0.6148699999999998  0.15873999999999996  0.58451  1.0000
  C   C40       1.0  0.7453799999999999  0.26171999999999995  0.49656999999999996  1.0000
  C   C41       1.0  0.6836199999999999  0.22413999999999998  0.58886  1.0000
  C   C42       1.0  0.92263  0.43716  0.53201  1.0000
  C   C43       1.0  0.73481  0.23  0.40508  1.0000
  C   C44       1.0  0.8434599999999998  0.36647  0.5679  1.0000
  C   C45       1.0  0.76753  0.84295  0.54575  1.0000
  C   C46       1.0  0.34274  0.04584000000000005  0.7420699999999998  1.0000
  C   C47       1.0  0.27513999999999994  0.15018999999999996  0.80212  1.0000
  C   C48       1.0  0.19874000000000003  0.36097  0.81301  1.0000
  C   C49       1.0  0.21940999999999997  0.13394  0.90265  1.0000
  C   C50       1.0  0.2651200000000001  0.26662  0.75728  1.0000
  C   C51       1.0  0.5798399999999999  0.9894199999999999  0.90848  1.0000
  C   C52       1.0  0.8355999999999999  0.33587  0.09135  1.0000
  C   C53       1.0  0.48219  0.08792  0.05904  1.0000
  C   C54       1.0  0.8413  0.38512  0.91543  1.0000
  C   C55       1.0  0.73827  0.25465  0.00341  1.0000
  C   C56       1.0  0.77587  0.31640000000000007  0.9110899999999998  1.0000
  C   C57       1.0  0.56281  0.0774  0.968  1.0000
  C   C58       1.0  0.77001  0.26521999999999996  0.0949  1.0000
  C   C59       1.0  0.6335  0.15657000000000001  0.93212  1.0000
  C   C60       1.0  0.15708999999999998  0.23232000000000003  0.95413  1.0000
  N   N1        1.0  0.34446999999999994  0.14527  0.41014  1.0000
  N   N2        1.0  0.39624  0.87109  0.50311  1.0000
  N   N3        1.0  0.18347000000000002  0.67123  0.51127  1.0000
  N   N4        1.0  0.8546799999999999  0.6556  0.08994  1.0000
  N   N5        1.0  0.12885999999999995  0.6037700000000001  0.9969399999999999  1.0000
  N   N6        1.0  0.32878999999999997  0.81648  0.98874  1.0000
  N   N7        1.0  0.6555300000000001  0.8547299999999999  0.58986  1.0000
  N   N8        1.0  0.60376  0.12891000000000002  0.49689  1.0000
  N   N9        1.0  0.81653  0.32876  0.48873  1.0000
  N   N10       1.0  0.14531999999999998  0.34439000000000003  0.9100599999999998  1.0000
  N   N11       1.0  0.8711500000000001  0.3962299999999999  0.00306  1.0000
  N   N12       1.0  0.67122  0.18352  0.01126  1.0000
  O   O1        1.0  0.07415000000000001  0.38542  0.15024999999999997  1.0000
  O   O2        1.0  0.9418200000000001  0.35043999999999986  0.28562  1.0000
  O   O3        1.0  0.19061  0.65706  0.34012  1.0000
  O   O4        1.0  0.6144599999999999  0.9258399999999998  0.34972  1.0000
  O   O5        1.0  0.6497699999999997  0.05817000000000001  0.21439999999999998  1.0000
  O   O6        1.0  0.34295  0.8093399999999998  0.15990999999999994  1.0000
  O   O7        1.0  0.92586  0.61458  0.84975  1.0000
  O   O8        1.0  0.05818000000000001  0.64956  0.71437  1.0000
  O   O9        1.0  0.8093900000000002  0.34294  0.6598799999999999  1.0000
  O   O10       1.0  0.38554  0.07414999999999998  0.65028  1.0000
  O   O11       1.0  0.35024000000000005  0.9418299999999998  0.7855999999999997  1.0000
  O   O12       1.0  0.6570499999999999  0.19065000000000004  0.8400899999999999  1.0000
