data_image0
_chemical_formula_structural       Cd4H44C56N8O16
_chemical_formula_sum              "Cd4 H44 C56 N8 O16"
_cell_length_a       11.58659
_cell_length_b       11.58411
_cell_length_c       12.00645
_cell_angle_alpha    75.4981
_cell_angle_beta     75.43109
_cell_angle_gamma    89.88731999999999

_symmetry_space_group_name_H-M    'P 1'
_symmetry_Int_Tables_number       1

loop_
  _symmetry_equiv_pos_as_xyz
  'x,y,z'

loop_
  _atom_site_type_symbol
  _atom_site_label
  _atom_site_symmetry_multiplicity
  _atom_site_fract_x
  _atom_site_fract_y
  _atom_site_fract_z
  _atom_site_occupancy
  Cd  Cd1       1.0  0.6704799999999999  0.30653  0.405  1.0000
  Cd  Cd2       1.0  0.69336  0.3294599999999999  0.09517  1.0000
  Cd  Cd3       1.0  0.3295199999999999  0.6934600000000001  0.595  1.0000
  Cd  Cd4       1.0  0.3066400000000001  0.6705299999999998  0.9048299999999999  1.0000
  H   H1        1.0  0.4324500000000001  0.40381  0.42303  1.0000
  H   H2        1.0  0.4479099999999999  0.28461000000000003  0.36494  1.0000
  H   H3        1.0  0.71928  0.04811000000000001  0.55476  1.0000
  H   H4        1.0  0.57679  0.34268  0.6602  1.0000
  H   H5        1.0  0.6767100000000001  0.92503  0.7660299999999999  1.0000
  H   H6        1.0  0.52597  0.23284000000000005  0.8747499999999999  1.0000
  H   H7        1.0  0.42905  0.08077999999999999  0.51123  1.0000
  H   H8        1.0  0.23621  0.28345  0.82165  1.0000
  H   H9        1.0  0.23204000000000002  0.06085  0.87107  1.0000
  H   H10       1.0  0.59148  0.9066499999999998  0.9745900000000001  1.0000
  H   H11       1.0  0.6211999999999999  0.03825  0.01437  1.0000
  H   H12       1.0  0.5959  0.56735  0.0772  1.0000
  H   H13       1.0  0.7151499999999998  0.55203  0.13514  1.0000
  H   H14       1.0  0.9519300000000002  0.28080000000000005  0.9450099999999999  1.0000
  H   H15       1.0  0.65728  0.42307000000000006  0.84006  1.0000
  H   H16       1.0  0.07505000000000002  0.32346  0.73364  1.0000
  H   H17       1.0  0.76713  0.47395999999999994  0.62547  1.0000
  H   H18       1.0  0.9190999999999999  0.5711  0.98871  1.0000
  H   H19       1.0  0.7165899999999998  0.7635899999999999  0.67852  1.0000
  H   H20       1.0  0.93929  0.7678499999999999  0.62897  1.0000
  H   H21       1.0  0.09344999999999998  0.40863999999999995  0.52519  1.0000
  H   H22       1.0  0.96186  0.37878999999999996  0.48551  1.0000
  H   H23       1.0  0.56755  0.5961800000000002  0.57697  1.0000
  H   H24       1.0  0.5520900000000001  0.7153899999999999  0.63506  1.0000
  H   H25       1.0  0.28072  0.95189  0.44524  1.0000
  H   H26       1.0  0.4232099999999999  0.65732  0.33981  1.0000
  H   H27       1.0  0.32329  0.07496999999999998  0.23397  1.0000
  H   H28       1.0  0.47404  0.76716  0.12525  1.0000
  H   H29       1.0  0.57095  0.91922  0.48877  1.0000
  H   H30       1.0  0.7638  0.71655  0.17835000000000004  1.0000
  H   H31       1.0  0.76796  0.93915  0.12893  1.0000
  H   H32       1.0  0.40852  0.09335000000000002  0.02541  1.0000
  H   H33       1.0  0.3788  0.96174  0.98563  1.0000
  H   H34       1.0  0.40409999999999996  0.43264  0.9228  1.0000
  H   H35       1.0  0.28486  0.44796000000000014  0.86486  1.0000
  H   H36       1.0  0.04807  0.71919  0.05499  1.0000
  H   H37       1.0  0.34271999999999997  0.5769200000000001  0.15994  1.0000
  H   H38       1.0  0.92495  0.67653  0.26636  1.0000
  H   H39       1.0  0.23287  0.52604  0.37453  1.0000
  H   H40       1.0  0.0809  0.4289  0.011290000000000001  1.0000
  H   H41       1.0  0.28341  0.23640000000000003  0.32148  1.0000
  H   H42       1.0  0.06071000000000001  0.23214999999999994  0.37103  1.0000
  H   H43       1.0  0.9065499999999999  0.59136  0.4748200000000001  1.0000
  H   H44       1.0  0.03813999999999998  0.6211999999999999  0.51449  1.0000
  C   C1        1.0  0.33171  0.44172  0.61199  1.0000
  C   C2        1.0  0.67762  0.08521000000000001  0.62893  1.0000
  C   C3        1.0  0.5965  0.24976999999999996  0.688  1.0000
  C   C4        1.0  0.38715999999999995  0.25013  0.54966  1.0000
  C   C5        1.0  0.33209  0.30858999999999986  0.63822  1.0000
  C   C6        1.0  0.6523  0.017289999999999996  0.74662  1.0000
  C   C7        1.0  0.56807  0.18750999999999998  0.80715  1.0000
  C   C8        1.0  0.38344  0.12485000000000002  0.57858  1.0000
  C   C9        1.0  0.2771  0.23841999999999997  0.7536000000000002  1.0000
  C   C10       1.0  0.59613  0.06816999999999998  0.83909  1.0000
  C   C11       1.0  0.32807  0.05695000000000001  0.69354  1.0000
  C   C12       1.0  0.27441  0.11454000000000002  0.78179  1.0000
  C   C13       1.0  0.5668299999999997  0.9991599999999999  0.96802  1.0000
  C   C14       1.0  0.32835  0.92242  0.72403  1.0000
  C   C15       1.0  0.5583099999999999  0.6682  0.88796  1.0000
  C   C16       1.0  0.91481  0.32243  0.87094  1.0000
  C   C17       1.0  0.75021  0.40342  0.81214  1.0000
  C   C18       1.0  0.7497199999999999  0.6128399999999999  0.95044  1.0000
  C   C19       1.0  0.6914  0.66786  0.86187  1.0000
  C   C20       1.0  0.98276  0.34778  0.7532  1.0000
  C   C21       1.0  0.81248  0.43187  0.69296  1.0000
  C   C22       1.0  0.8750199999999999  0.6166099999999999  0.9214399999999999  1.0000
  C   C23       1.0  0.7616499999999999  0.7228299999999999  0.74649  1.0000
  C   C24       1.0  0.9318599999999999  0.40388  0.66085  1.0000
  C   C25       1.0  0.943  0.6719000000000002  0.80647  1.0000
  C   C26       1.0  0.8855200000000002  0.7255300000000001  0.71825  1.0000
  C   C27       1.0  0.00088999999999999  0.43319  0.53189  1.0000
  C   C28       1.0  0.07755999999999998  0.6715699999999999  0.77594  1.0000
  C   C29       1.0  0.6682999999999999  0.55828  0.38801  1.0000
  C   C30       1.0  0.32238  0.9147799999999999  0.37107  1.0000
  C   C31       1.0  0.40349999999999997  0.75022  0.312  1.0000
  C   C32       1.0  0.61284  0.74987  0.45034  1.0000
  C   C33       1.0  0.6679099999999998  0.6914000000000001  0.36179  1.0000
  C   C34       1.0  0.3477  0.98271  0.25338  1.0000
  C   C35       1.0  0.43193  0.81249  0.19285999999999998  1.0000
  C   C36       1.0  0.6165599999999998  0.8751499999999999  0.42142  1.0000
  C   C37       1.0  0.7228999999999999  0.76158  0.2464  1.0000
  C   C38       1.0  0.40387  0.9318299999999999  0.16091  1.0000
  C   C39       1.0  0.6719399999999999  0.94305  0.30646  1.0000
  C   C40       1.0  0.72559  0.88545  0.21820999999999996  1.0000
  C   C41       1.0  0.43317  0.0008300000000000003  0.03198  1.0000
  C   C42       1.0  0.6716499999999997  0.07758  0.27598  1.0000
  C   C43       1.0  0.44169  0.33179000000000003  0.11204  1.0000
  C   C44       1.0  0.08519  0.67756  0.12906  1.0000
  C   C45       1.0  0.24979000000000004  0.59657  0.18786  1.0000
  C   C46       1.0  0.25028  0.38715  0.04956000000000001  1.0000
  C   C47       1.0  0.30860000000000004  0.33213  0.13813  1.0000
  C   C48       1.0  0.017240000000000002  0.6522199999999998  0.2468  1.0000
  C   C49       1.0  0.18752  0.56813  0.30704  1.0000
  C   C50       1.0  0.12498999999999999  0.3833900000000001  0.07856  1.0000
  C   C51       1.0  0.23834999999999998  0.27717  0.25351  1.0000
  C   C52       1.0  0.06814000000000002  0.59611  0.33915  1.0000
  C   C53       1.0  0.05700000000000001  0.32809999999999995  0.19352999999999998  1.0000
  C   C54       1.0  0.11448  0.27445999999999987  0.28175  1.0000
  C   C55       1.0  0.99911  0.56681  0.46811  1.0000
  C   C56       1.0  0.92244  0.3284300000000001  0.22406  1.0000
  N   N1        1.0  0.6506899999999998  0.20040000000000002  0.59946  1.0000
  N   N2        1.0  0.45457  0.31606  0.43632  1.0000
  N   N3        1.0  0.7995899999999999  0.34929  0.90057  1.0000
  N   N4        1.0  0.6837199999999999  0.54543  0.06375  1.0000
  N   N5        1.0  0.34931  0.7995900000000001  0.40054  1.0000
  N   N6        1.0  0.54543  0.6839399999999999  0.56368  1.0000
  N   N7        1.0  0.20041  0.65071  0.09943  1.0000
  N   N8        1.0  0.31628000000000006  0.45457000000000003  0.93625  1.0000
  O   O1        1.0  0.34893  0.50394  0.50477  1.0000
  O   O2        1.0  0.31305999999999995  0.49055000000000004  0.69945  1.0000
  O   O3        1.0  0.36595  0.87431  0.63853  1.0000
  O   O4        1.0  0.29145999999999994  0.8685499999999999  0.83447  1.0000
  O   O5        1.0  0.49584  0.6509299999999998  0.99514  1.0000
  O   O6        1.0  0.50971  0.6869  0.80041  1.0000
  O   O7        1.0  0.12565999999999997  0.63403  0.86135  1.0000
  O   O8        1.0  0.13142999999999994  0.7084700000000002  0.66546  1.0000
  O   O9        1.0  0.65108  0.49605000000000005  0.49523  1.0000
  O   O10       1.0  0.68694  0.50945  0.30055  1.0000
  O   O11       1.0  0.6340499999999999  0.12569  0.36147  1.0000
  O   O12       1.0  0.70854  0.13144000000000003  0.16553  1.0000
  O   O13       1.0  0.50416  0.34907  0.00486  1.0000
  O   O14       1.0  0.49029  0.3131  0.19959  1.0000
  O   O15       1.0  0.8743399999999999  0.36597  0.13865  1.0000
  O   O16       1.0  0.86857  0.29152  0.33454  1.0000
