data_image0
_chemical_formula_structural       Zn4H32C56N8O20
_chemical_formula_sum              "Zn4 H32 C56 N8 O20"
_cell_length_a       13.94369
_cell_length_b       13.94402
_cell_length_c       14.01306
_cell_angle_alpha    110.59662000000002
_cell_angle_beta     90.0
_cell_angle_gamma    90.0

_space_group_name_H-M_alt    "P 1"
_space_group_IT_number       1

loop_
  _space_group_symop_operation_xyz
  'x, y, z'

loop_
  _atom_site_type_symbol
  _atom_site_label
  _atom_site_symmetry_multiplicity
  _atom_site_fract_x
  _atom_site_fract_y
  _atom_site_fract_z
  _atom_site_occupancy
  Zn  Zn1       1.0  0.05451  0.90802  0.9595299999999999  1.0000
  Zn  Zn2       1.0  0.55451  0.09196999999999997  0.54047  1.0000
  Zn  Zn3       1.0  0.9454900000000003  0.09197  0.04047  1.0000
  Zn  Zn4       1.0  0.44549  0.90802  0.45953  1.0000
  H   H1        1.0  0.8947800000000002  0.5959600000000002  0.15315  1.0000
  H   H2        1.0  0.9245300000000002  0.74098  0.11565  1.0000
  H   H3        1.0  0.7636300000000003  0.013980000000000008  0.26831  1.0000
  H   H4        1.0  0.69303  0.73496  0.3189  1.0000
  H   H5        1.0  0.029920000000000006  0.30077000000000004  0.11822999999999999  1.0000
  H   H6        1.0  0.97561  0.4817  0.18497  1.0000
  H   H7        1.0  0.68377  0.37023000000000006  0.15801  1.0000
  H   H8        1.0  0.7516500000000003  0.19066  0.0893  1.0000
  H   H9        1.0  0.39478  0.40403  0.34684999999999994  1.0000
  H   H10       1.0  0.42453  0.25901  0.38434999999999997  1.0000
  H   H11       1.0  0.26363  0.98601  0.23169  1.0000
  H   H12       1.0  0.19303000000000006  0.26503  0.1811  1.0000
  H   H13       1.0  0.52993  0.6992300000000002  0.38177  1.0000
  H   H14       1.0  0.4756100000000001  0.5183  0.31503  1.0000
  H   H15       1.0  0.18377000000000004  0.62977  0.34199999999999997  1.0000
  H   H16       1.0  0.25166  0.8093400000000001  0.4107  1.0000
  H   H17       1.0  0.10523  0.40403  0.84685  1.0000
  H   H18       1.0  0.07547000000000002  0.25901  0.8843499999999997  1.0000
  H   H19       1.0  0.23637  0.98601  0.73169  1.0000
  H   H20       1.0  0.30697  0.26503  0.6811099999999999  1.0000
  H   H21       1.0  0.9700800000000003  0.6992300000000002  0.88177  1.0000
  H   H22       1.0  0.024390000000000005  0.51829  0.81503  1.0000
  H   H23       1.0  0.31623  0.6297699999999999  0.8419999999999997  1.0000
  H   H24       1.0  0.24835000000000002  0.80933  0.9107  1.0000
  H   H25       1.0  0.60522  0.5959600000000002  0.6531599999999999  1.0000
  H   H26       1.0  0.57547  0.74098  0.6156599999999999  1.0000
  H   H27       1.0  0.73637  0.013980000000000008  0.76831  1.0000
  H   H28       1.0  0.8069700000000002  0.73496  0.8189  1.0000
  H   H29       1.0  0.47008000000000005  0.30076  0.61824  1.0000
  H   H30       1.0  0.52439  0.4817  0.68497  1.0000
  H   H31       1.0  0.8162300000000001  0.37023000000000006  0.6580099999999999  1.0000
  H   H32       1.0  0.74835  0.19066  0.5893  1.0000
  C   C1        1.0  0.8121800000000002  0.7251500000000002  0.2169  1.0000
  C   C2        1.0  0.8673900000000002  0.77849  0.16851999999999998  1.0000
  C   C3        1.0  0.84921  0.88181  0.18548  1.0000
  C   C4        1.0  0.7772500000000001  0.9334  0.2539  1.0000
  C   C5        1.0  0.72174  0.8796400000000001  0.30139  1.0000
  C   C6        1.0  0.73788  0.77552  0.28262  1.0000
  C   C7        1.0  0.7794600000000003  0.54647  0.21241  1.0000
  C   C8        1.0  0.9539100000000001  0.31972  0.12652  1.0000
  C   C9        1.0  0.92207  0.42092  0.16301999999999997  1.0000
  C   C10       1.0  0.8232500000000003  0.44078  0.17384  1.0000
  C   C11       1.0  0.7606100000000002  0.35691  0.14872  1.0000
  C   C12       1.0  0.79769  0.25806  0.11162  1.0000
  C   C13       1.0  0.90565  0.93336  0.12586  1.0000
  C   C14       1.0  0.6425400000000002  0.9316400000000004  0.37321  1.0000
  C   C15       1.0  0.31218  0.27485  0.28311  1.0000
  C   C16       1.0  0.36739000000000005  0.22151000000000004  0.33148  1.0000
  C   C17       1.0  0.3492100000000001  0.11817999999999998  0.31451999999999997  1.0000
  C   C18       1.0  0.27724  0.06658999999999998  0.24609999999999999  1.0000
  C   C19       1.0  0.22174000000000005  0.12036000000000002  0.19861  1.0000
  C   C20       1.0  0.23788000000000006  0.22448000000000012  0.21739  1.0000
  C   C21       1.0  0.27946  0.45352000000000003  0.28759  1.0000
  C   C22       1.0  0.45391  0.68027  0.37348  1.0000
  C   C23       1.0  0.42207000000000006  0.57908  0.33698  1.0000
  C   C24       1.0  0.32325000000000004  0.55922  0.32617  1.0000
  C   C25       1.0  0.26061000000000006  0.64309  0.35128  1.0000
  C   C26       1.0  0.29769000000000007  0.7419400000000002  0.38838  1.0000
  C   C27       1.0  0.40565  0.06663  0.37414  1.0000
  C   C28       1.0  0.14254000000000003  0.06835  0.12679  1.0000
  C   C29       1.0  0.18782  0.27485  0.78311  1.0000
  C   C30       1.0  0.13261  0.22151000000000004  0.83148  1.0000
  C   C31       1.0  0.15079000000000006  0.11818000000000001  0.81452  1.0000
  C   C32       1.0  0.22276000000000007  0.06659  0.7461  1.0000
  C   C33       1.0  0.27827  0.12036000000000005  0.69861  1.0000
  C   C34       1.0  0.26212  0.22448  0.71739  1.0000
  C   C35       1.0  0.22055000000000005  0.45352000000000003  0.7875899999999998  1.0000
  C   C36       1.0  0.04609000000000001  0.68027  0.87348  1.0000
  C   C37       1.0  0.07793000000000001  0.57907  0.8369799999999998  1.0000
  C   C38       1.0  0.17676  0.55921  0.8261699999999998  1.0000
  C   C39       1.0  0.23939  0.64309  0.85128  1.0000
  C   C40       1.0  0.20231000000000005  0.7419400000000002  0.88839  1.0000
  C   C41       1.0  0.09435000000000002  0.06662999999999997  0.87414  1.0000
  C   C42       1.0  0.3574700000000001  0.06835  0.62679  1.0000
  C   C43       1.0  0.68782  0.7251500000000002  0.7169  1.0000
  C   C44       1.0  0.63261  0.77849  0.66853  1.0000
  C   C45       1.0  0.6507900000000002  0.88181  0.68548  1.0000
  C   C46       1.0  0.72276  0.9334  0.7538999999999999  1.0000
  C   C47       1.0  0.77827  0.8796400000000001  0.80139  1.0000
  C   C48       1.0  0.7621200000000002  0.77552  0.78262  1.0000
  C   C49       1.0  0.72054  0.54647  0.71241  1.0000
  C   C50       1.0  0.54609  0.31972  0.62652  1.0000
  C   C51       1.0  0.5779300000000003  0.42092  0.66302  1.0000
  C   C52       1.0  0.67675  0.44078  0.67384  1.0000
  C   C53       1.0  0.73939  0.35691  0.64872  1.0000
  C   C54       1.0  0.7023100000000002  0.25806  0.61162  1.0000
  C   C55       1.0  0.5943500000000003  0.93336  0.62587  1.0000
  C   C56       1.0  0.8574700000000002  0.9316400000000001  0.8732099999999999  1.0000
  N   N1        1.0  0.83485  0.6207700000000002  0.19599999999999998  1.0000
  N   N2        1.0  0.8928  0.23972  0.10049999999999998  1.0000
  N   N3        1.0  0.3348500000000001  0.37922000000000006  0.304  1.0000
  N   N4        1.0  0.3928  0.76027  0.39951  1.0000
  N   N5        1.0  0.16515000000000005  0.37922000000000006  0.8039999999999998  1.0000
  N   N6        1.0  0.1072  0.7602699999999999  0.8995099999999999  1.0000
  N   N7        1.0  0.6651500000000002  0.6207700000000002  0.69601  1.0000
  N   N8        1.0  0.6072000000000002  0.23972  0.6005  1.0000
  O   O1        1.0  0.69965  0.56148  0.25352  1.0000
  O   O2        1.0  0.9729700000000001  0.88033  0.0708  1.0000
  O   O3        1.0  0.8810800000000002  0.023769999999999993  0.13314  1.0000
  O   O4        1.0  0.6556300000000003  0.024850000000000007  0.42929  1.0000
  O   O5        1.0  0.56927  0.87655  0.37223  1.0000
  O   O6        1.0  0.19965  0.43851  0.24648  1.0000
  O   O7        1.0  0.47297  0.11966000000000002  0.4292  1.0000
  O   O8        1.0  0.3810900000000001  0.97622  0.36685999999999996  1.0000
  O   O9        1.0  0.15564  0.97515  0.07071  1.0000
  O   O10       1.0  0.06927000000000001  0.12344000000000004  0.12777  1.0000
  O   O11       1.0  0.30035  0.43851000000000007  0.74649  1.0000
  O   O12       1.0  0.027030000000000005  0.11966000000000002  0.9292  1.0000
  O   O13       1.0  0.11892000000000003  0.97622  0.86686  1.0000
  O   O14       1.0  0.34437  0.9751400000000003  0.57071  1.0000
  O   O15       1.0  0.4307300000000001  0.12344  0.6277699999999999  1.0000
  O   O16       1.0  0.8003500000000002  0.56148  0.7535199999999999  1.0000
  O   O17       1.0  0.52703  0.88033  0.5708  1.0000
  O   O18       1.0  0.61891  0.023770000000000017  0.63314  1.0000
  O   O19       1.0  0.84437  0.02485000000000004  0.92929  1.0000
  O   O20       1.0  0.9307300000000002  0.87655  0.87223  1.0000
