data_image0
_chemical_formula_structural       Cd4H28C60O24
_chemical_formula_sum              "Cd4 H28 C60 O24"
_cell_length_a       6.5876
_cell_length_b       13.977250000000002
_cell_length_c       17.42429
_cell_angle_alpha    90.02276999999998
_cell_angle_beta     89.97473
_cell_angle_gamma    92.74245

_space_group_name_H-M_alt    "P 1"
_space_group_IT_number       1

loop_
  _space_group_symop_operation_xyz
  'x, y, z'

loop_
  _atom_site_type_symbol
  _atom_site_label
  _atom_site_symmetry_multiplicity
  _atom_site_fract_x
  _atom_site_fract_y
  _atom_site_fract_z
  _atom_site_occupancy
  Cd  Cd1       1.0  0.31909000000000004  0.12451000000000001  0.52463  1.0000
  Cd  Cd2       1.0  0.17713000000000004  0.87486  0.024769999999999993  1.0000
  Cd  Cd3       1.0  0.68089  0.87549  0.47537000000000007  1.0000
  Cd  Cd4       1.0  0.82285  0.12515  0.97522  1.0000
  H   H1        1.0  0.6763400000000003  0.03859  0.24733  1.0000
  H   H2        1.0  0.66616  0.33442  0.18353  1.0000
  H   H3        1.0  0.6517100000000002  0.25276  0.42451  1.0000
  H   H4        1.0  0.38190000000000013  0.54338  0.45788  1.0000
  H   H5        1.0  0.42991  0.37208000000000013  0.42415  1.0000
  H   H6        1.0  0.8038500000000002  0.4673000000000001  0.23228000000000001  1.0000
  H   H7        1.0  0.7794800000000001  0.63585  0.27425  1.0000
  H   H8        1.0  0.8244200000000002  0.96161  0.74751  1.0000
  H   H9        1.0  0.8344700000000003  0.66576  0.68343  1.0000
  H   H10       1.0  0.8478700000000001  0.74731  0.9244700000000001  1.0000
  H   H11       1.0  0.11612000000000003  0.45619  0.9575199999999999  1.0000
  H   H12       1.0  0.06977000000000001  0.62781  0.924  1.0000
  H   H13       1.0  0.69619  0.53341  0.73177  1.0000
  H   H14       1.0  0.7186300000000002  0.36468  0.77373  1.0000
  H   H15       1.0  0.3236500000000001  0.9614100000000002  0.7526699999999998  1.0000
  H   H16       1.0  0.33383000000000007  0.66558  0.81646  1.0000
  H   H17       1.0  0.3482800000000001  0.7472500000000002  0.57549  1.0000
  H   H18       1.0  0.6180800000000001  0.45663  0.54212  1.0000
  H   H19       1.0  0.5700700000000001  0.62792  0.57585  1.0000
  H   H20       1.0  0.19614000000000006  0.5327  0.7677099999999998  1.0000
  H   H21       1.0  0.22051000000000004  0.36415  0.72575  1.0000
  H   H22       1.0  0.17556000000000005  0.03839  0.25248  1.0000
  H   H23       1.0  0.16552  0.33425  0.31657  1.0000
  H   H24       1.0  0.15212000000000006  0.2527  0.07552999999999999  1.0000
  H   H25       1.0  0.8838700000000002  0.54381  0.04247  1.0000
  H   H26       1.0  0.93021  0.37219000000000013  0.07599  1.0000
  H   H27       1.0  0.3038  0.46659000000000006  0.26823  1.0000
  H   H28       1.0  0.28136  0.63532  0.22627  1.0000
  C   C1        1.0  0.6716500000000002  0.06261  0.40244  1.0000
  C   C2        1.0  0.69679  0.15953000000000006  0.12384  1.0000
  C   C3        1.0  0.6648000000000002  0.13914  0.34225  1.0000
  C   C4        1.0  0.67115  0.11364000000000002  0.26374  1.0000
  C   C5        1.0  0.67359  0.18499  0.20697  1.0000
  C   C6        1.0  0.66685  0.28043  0.22853  1.0000
  C   C7        1.0  0.65296  0.3071500000000001  0.30701  1.0000
  C   C8        1.0  0.6553400000000003  0.23461  0.36368  1.0000
  C   C9        1.0  0.58518  0.69896  0.40253  1.0000
  C   C10       1.0  0.5862  0.59943  0.37092  1.0000
  C   C11       1.0  0.48099  0.52469  0.41092  1.0000
  C   C12       1.0  0.5079800000000001  0.42979000000000006  0.39207  1.0000
  C   C13       1.0  0.62935  0.40714  0.32808  1.0000
  C   C14       1.0  0.7175200000000003  0.48318  0.28349  1.0000
  C   C15       1.0  0.7021  0.5778800000000002  0.30608  1.0000
  C   C16       1.0  0.82818  0.93753  0.90267  1.0000
  C   C17       1.0  0.8070800000000002  0.8403  0.62338  1.0000
  C   C18       1.0  0.83467  0.86095  0.84232  1.0000
  C   C19       1.0  0.8293400000000002  0.88652  0.76375  1.0000
  C   C20       1.0  0.8279200000000001  0.81528  0.7068  1.0000
  C   C21       1.0  0.8338700000000002  0.71981  0.72841  1.0000
  C   C22       1.0  0.84707  0.69303  0.80687  1.0000
  C   C23       1.0  0.84397  0.76549  0.86366  1.0000
  C   C24       1.0  0.9112800000000001  0.30143  0.9015499999999999  1.0000
  C   C25       1.0  0.91154  0.40097  0.87038  1.0000
  C   C26       1.0  0.017400000000000013  0.47531000000000007  0.91062  1.0000
  C   C27       1.0  0.9912000000000002  0.57027  0.89189  1.0000
  C   C28       1.0  0.8703300000000003  0.59308  0.82784  1.0000
  C   C29       1.0  0.7819500000000003  0.51731  0.783  1.0000
  C   C30       1.0  0.79629  0.42262000000000005  0.8055  1.0000
  C   C31       1.0  0.32833  0.9374  0.59755  1.0000
  C   C32       1.0  0.30320000000000014  0.8404700000000003  0.87615  1.0000
  C   C33       1.0  0.33518000000000003  0.86086  0.65774  1.0000
  C   C34       1.0  0.32884  0.88637  0.73625  1.0000
  C   C35       1.0  0.32639  0.8150100000000001  0.79303  1.0000
  C   C36       1.0  0.33313  0.71957  0.77147  1.0000
  C   C37       1.0  0.34703  0.6928500000000002  0.69299  1.0000
  C   C38       1.0  0.34464  0.7654  0.63632  1.0000
  C   C39       1.0  0.4148100000000001  0.30104  0.59747  1.0000
  C   C40       1.0  0.4137900000000001  0.40057  0.62908  1.0000
  C   C41       1.0  0.5189900000000001  0.47532  0.58907  1.0000
  C   C42       1.0  0.492  0.57022  0.60793  1.0000
  C   C43       1.0  0.37064  0.59286  0.67192  1.0000
  C   C44       1.0  0.28247  0.51682  0.71651  1.0000
  C   C45       1.0  0.29788000000000003  0.4221200000000001  0.69391  1.0000
  C   C46       1.0  0.1718  0.06247  0.09733  1.0000
  C   C47       1.0  0.19290000000000004  0.15970000000000004  0.37660999999999994  1.0000
  C   C48       1.0  0.16531000000000007  0.13905  0.15767999999999996  1.0000
  C   C49       1.0  0.17064  0.11349000000000001  0.23624  1.0000
  C   C50       1.0  0.17207000000000006  0.18472000000000002  0.2932  1.0000
  C   C51       1.0  0.16611000000000004  0.28019  0.27159  1.0000
  C   C52       1.0  0.15292  0.30697  0.19313  1.0000
  C   C53       1.0  0.15602  0.23451000000000002  0.13634  1.0000
  C   C54       1.0  0.0887  0.69858  0.09845  1.0000
  C   C55       1.0  0.08844  0.59903  0.12961  1.0000
  C   C56       1.0  0.9825900000000001  0.52469  0.08938  1.0000
  C   C57       1.0  0.008780000000000012  0.42974000000000007  0.10810999999999998  1.0000
  C   C58       1.0  0.12965  0.40692  0.17216  1.0000
  C   C59       1.0  0.21804000000000007  0.4826900000000001  0.217  1.0000
  C   C60       1.0  0.20370000000000002  0.57738  0.19449  1.0000
  O   O1        1.0  0.6287100000000002  0.08107  0.47154  1.0000
  O   O2        1.0  0.72676  0.98077  0.3795  1.0000
  O   O3        1.0  0.7063100000000002  0.07248  0.10481  1.0000
  O   O4        1.0  0.7168000000000001  0.22817  0.07512  1.0000
  O   O5        1.0  0.7387  0.75534  0.38653  1.0000
  O   O6        1.0  0.4443600000000001  0.7225300000000002  0.44702  1.0000
  O   O7        1.0  0.86741  0.91869  0.9720399999999999  1.0000
  O   O8        1.0  0.77749  0.019890000000000005  0.87941  1.0000
  O   O9        1.0  0.7981100000000002  0.92714  0.60331  1.0000
  O   O10       1.0  0.7880700000000003  0.7713000000000002  0.57506  1.0000
  O   O11       1.0  0.7551700000000002  0.24645000000000006  0.88673  1.0000
  O   O12       1.0  0.05417  0.27668  0.94455  1.0000
  O   O13       1.0  0.37127  0.9189300000000002  0.5284499999999999  1.0000
  O   O14       1.0  0.27322  0.01923  0.6205  1.0000
  O   O15       1.0  0.29367000000000004  0.9275300000000002  0.89519  1.0000
  O   O16       1.0  0.28318000000000004  0.77184  0.9248700000000001  1.0000
  O   O17       1.0  0.26128000000000007  0.24466000000000004  0.61347  1.0000
  O   O18       1.0  0.5556300000000001  0.27747  0.5529799999999999  1.0000
  O   O19       1.0  0.13258  0.08131  0.02795  1.0000
  O   O20       1.0  0.22249  0.98011  0.12059  1.0000
  O   O21       1.0  0.20186999999999997  0.07286  0.39668  1.0000
  O   O22       1.0  0.21191  0.22871000000000005  0.42494  1.0000
  O   O23       1.0  0.24481000000000008  0.75356  0.11327  1.0000
  O   O24       1.0  0.9458200000000001  0.72333  0.05545  1.0000
