data_image0
_chemical_formula_structural       Li16H24C56N8O32
_chemical_formula_sum              "Li16 H24 C56 N8 O32"
_cell_length_a       8.68731
_cell_length_b       15.87138
_cell_length_c       18.86496
_cell_angle_alpha    90.0
_cell_angle_beta     89.99685
_cell_angle_gamma    90.0

_symmetry_space_group_name_H-M    'P 1'
_symmetry_Int_Tables_number       1

loop_
  _symmetry_equiv_pos_as_xyz
  'x,y,z'

loop_
  _atom_site_type_symbol
  _atom_site_label
  _atom_site_symmetry_multiplicity
  _atom_site_fract_x
  _atom_site_fract_y
  _atom_site_fract_z
  _atom_site_occupancy
  Li  Li1       1.0  0.65813  0.07775  0.66932  1.0000
  Li  Li2       1.0  0.58975  0.9553099999999998  0.54415  1.0000
  Li  Li3       1.0  0.84182  0.4221199999999999  0.16937  1.0000
  Li  Li4       1.0  0.91005  0.5446799999999998  0.0441  1.0000
  Li  Li5       1.0  0.65817  0.92212  0.83063  1.0000
  Li  Li6       1.0  0.58994  0.044679999999999984  0.9559  1.0000
  Li  Li7       1.0  0.84187  0.57775  0.33068  1.0000
  Li  Li8       1.0  0.91025  0.45531  0.45585  1.0000
  Li  Li9       1.0  0.34187  0.92225  0.33068  1.0000
  Li  Li10      1.0  0.41025  0.04469  0.45585  1.0000
  Li  Li11      1.0  0.15817  0.57787  0.83063  1.0000
  Li  Li12      1.0  0.08994  0.45531  0.9559  1.0000
  Li  Li13      1.0  0.34182  0.07787  0.16937  1.0000
  Li  Li14      1.0  0.41005  0.9553099999999998  0.0441  1.0000
  Li  Li15      1.0  0.15813  0.4222499999999999  0.66932  1.0000
  Li  Li16      1.0  0.08975  0.54469  0.54415  1.0000
  H   H1        1.0  0.80453  0.7434599999999998  0.70684  1.0000
  H   H2        1.0  0.71478  0.7900999999999998  0.4522999999999999  1.0000
  H   H3        1.0  0.86864  0.6268699999999998  0.61966  1.0000
  H   H4        1.0  0.69543  0.75658  0.20681  1.0000
  H   H5        1.0  0.78527  0.7098999999999998  0.9522899999999999  1.0000
  H   H6        1.0  0.63138  0.8730899999999998  0.11964  1.0000
  H   H7        1.0  0.80457  0.25657999999999986  0.79319  1.0000
  H   H8        1.0  0.71473  0.20989999999999995  0.04771  1.0000
  H   H9        1.0  0.86861  0.37309  0.88036  1.0000
  H   H10       1.0  0.69546  0.24346  0.29316  1.0000
  H   H11       1.0  0.78521  0.2901  0.54769  1.0000
  H   H12       1.0  0.63135  0.12687  0.38033999999999996  1.0000
  H   H13       1.0  0.19546  0.25652999999999987  0.29316  1.0000
  H   H14       1.0  0.28521  0.20989999999999995  0.54769  1.0000
  H   H15       1.0  0.13135  0.3731299999999999  0.38033999999999996  1.0000
  H   H16       1.0  0.30457  0.24341999999999994  0.79319  1.0000
  H   H17       1.0  0.21473  0.29009  0.04771  1.0000
  H   H18       1.0  0.36861  0.12690999999999994  0.88036  1.0000
  H   H19       1.0  0.19543  0.74342  0.20681  1.0000
  H   H20       1.0  0.28527  0.7900899999999997  0.9522899999999999  1.0000
  H   H21       1.0  0.13138  0.6269099999999997  0.11964  1.0000
  H   H22       1.0  0.30453  0.7565299999999998  0.70684  1.0000
  H   H23       1.0  0.21478  0.7098899999999998  0.4522999999999999  1.0000
  H   H24       1.0  0.36864  0.8731299999999997  0.61966  1.0000
  C   C1        1.0  0.67702  0.8955299999999998  0.6745899999999999  1.0000
  C   C2        1.0  0.83517  0.6338  0.47540999999999994  1.0000
  C   C3        1.0  0.7968  0.7004799999999998  0.52948  1.0000
  C   C4        1.0  0.72452  0.8257299999999997  0.62432  1.0000
  C   C5        1.0  0.78645  0.75048  0.65006  1.0000
  C   C6        1.0  0.73584  0.77837  0.50839  1.0000
  C   C7        1.0  0.82196  0.6868899999999998  0.60195  1.0000
  C   C8        1.0  0.82316  0.60451  0.17458  1.0000
  C   C9        1.0  0.66498  0.8662299999999998  0.97543  1.0000
  C   C10       1.0  0.70323  0.7995099999999998  0.02946  1.0000
  C   C11       1.0  0.77557  0.67426  0.12429  1.0000
  C   C12       1.0  0.71348  0.74948  0.15003  1.0000
  C   C13       1.0  0.76411  0.7216099999999998  0.00836  1.0000
  C   C14       1.0  0.67799  0.81306  0.10193  1.0000
  C   C15       1.0  0.67684  0.10450999999999998  0.82542  1.0000
  C   C16       1.0  0.83501  0.36623  0.02457  1.0000
  C   C17       1.0  0.79677  0.2995099999999999  0.9705399999999998  1.0000
  C   C18       1.0  0.72442  0.17426999999999995  0.87571  1.0000
  C   C19       1.0  0.78651  0.24948  0.84997  1.0000
  C   C20       1.0  0.73588  0.22161999999999996  0.99164  1.0000
  C   C21       1.0  0.82201  0.3130599999999999  0.8980700000000001  1.0000
  C   C22       1.0  0.82297  0.39554  0.32541  1.0000
  C   C23       1.0  0.66483  0.13381  0.52459  1.0000
  C   C24       1.0  0.7031899999999999  0.20048999999999995  0.47052  1.0000
  C   C25       1.0  0.77547  0.32573  0.37568  1.0000
  C   C26       1.0  0.71354  0.25048  0.34994  1.0000
  C   C27       1.0  0.76415  0.27837  0.49161  1.0000
  C   C28       1.0  0.67804  0.18688999999999995  0.39805  1.0000
  C   C29       1.0  0.32297  0.10446  0.32541  1.0000
  C   C30       1.0  0.16483  0.36619  0.52459  1.0000
  C   C31       1.0  0.20319  0.2995099999999999  0.47052  1.0000
  C   C32       1.0  0.27548  0.17426999999999995  0.37568  1.0000
  C   C33       1.0  0.21354  0.24951999999999994  0.34994  1.0000
  C   C34       1.0  0.26415  0.22163  0.49161  1.0000
  C   C35       1.0  0.17804  0.3131  0.39805  1.0000
  C   C36       1.0  0.17684  0.3954899999999999  0.82542  1.0000
  C   C37       1.0  0.33501  0.13377  0.02457  1.0000
  C   C38       1.0  0.29677  0.20048999999999995  0.9705399999999998  1.0000
  C   C39       1.0  0.22442  0.32573  0.87571  1.0000
  C   C40       1.0  0.28651  0.25052  0.84997  1.0000
  C   C41       1.0  0.23588  0.27838  0.99164  1.0000
  C   C42       1.0  0.32201  0.18694  0.8980700000000001  1.0000
  C   C43       1.0  0.32316  0.89549  0.17458  1.0000
  C   C44       1.0  0.16498  0.6337599999999998  0.97543  1.0000
  C   C45       1.0  0.20322999999999997  0.7004799999999998  0.02946  1.0000
  C   C46       1.0  0.27557  0.8257299999999997  0.12429  1.0000
  C   C47       1.0  0.21348  0.75052  0.15003  1.0000
  C   C48       1.0  0.26411  0.7783799999999997  0.00836  1.0000
  C   C49       1.0  0.17799  0.68694  0.10193  1.0000
  C   C50       1.0  0.17702  0.6044599999999998  0.6745899999999999  1.0000
  C   C51       1.0  0.33517  0.86619  0.47540999999999994  1.0000
  C   C52       1.0  0.2968  0.7995099999999998  0.52948  1.0000
  C   C53       1.0  0.22452  0.67427  0.62432  1.0000
  C   C54       1.0  0.28645  0.74951  0.65005  1.0000
  C   C55       1.0  0.23584  0.72163  0.50839  1.0000
  C   C56       1.0  0.32196  0.8130999999999998  0.60195  1.0000
  N   N1        1.0  0.70011  0.8398699999999998  0.5543999999999999  1.0000
  N   N2        1.0  0.79975  0.66008  0.054349999999999996  1.0000
  N   N3        1.0  0.70024  0.16008  0.94565  1.0000
  N   N4        1.0  0.79989  0.33987  0.4456  1.0000
  N   N5        1.0  0.29989  0.16011999999999996  0.4456  1.0000
  N   N6        1.0  0.20024  0.3399199999999999  0.94565  1.0000
  N   N7        1.0  0.29975  0.83992  0.054349999999999996  1.0000
  N   N8        1.0  0.20011  0.66012  0.5543999999999999  1.0000
  O   O1        1.0  0.61894  0.9619999999999997  0.64616  1.0000
  O   O2        1.0  0.69572  0.88279  0.7397399999999998  1.0000
  O   O3        1.0  0.81169  0.6499  0.41078  1.0000
  O   O4        1.0  0.89033  0.5644  0.49975  1.0000
  O   O5        1.0  0.88106  0.53797  0.14614  1.0000
  O   O6        1.0  0.80449  0.6172599999999998  0.23973  1.0000
  O   O7        1.0  0.68836  0.85008  0.91079  1.0000
  O   O8        1.0  0.60963  0.93561  0.99973  1.0000
  O   O9        1.0  0.61894  0.03797  0.8538599999999998  1.0000
  O   O10       1.0  0.69551  0.11725999999999998  0.76027  1.0000
  O   O11       1.0  0.81163  0.3500799999999999  0.0892  1.0000
  O   O12       1.0  0.89037  0.4356099999999999  0.00027  1.0000
  O   O13       1.0  0.88106  0.462  0.35383999999999993  1.0000
  O   O14       1.0  0.80427  0.38279999999999986  0.26026  1.0000
  O   O15       1.0  0.6883  0.14989999999999995  0.5892199999999999  1.0000
  O   O16       1.0  0.60966  0.0644  0.50025  1.0000
  O   O17       1.0  0.38106  0.037999999999999985  0.35383999999999993  1.0000
  O   O18       1.0  0.30427  0.1172  0.26026  1.0000
  O   O19       1.0  0.1883  0.3501  0.5892199999999999  1.0000
  O   O20       1.0  0.10966  0.4356  0.50025  1.0000
  O   O21       1.0  0.11894  0.4620299999999999  0.8538599999999998  1.0000
  O   O22       1.0  0.19551  0.3827299999999999  0.76027  1.0000
  O   O23       1.0  0.31163  0.14991999999999997  0.0892  1.0000
  O   O24       1.0  0.39037  0.06439  0.00027  1.0000
  O   O25       1.0  0.38106  0.96202  0.14614  1.0000
  O   O26       1.0  0.30449  0.8827299999999998  0.23973  1.0000
  O   O27       1.0  0.18836  0.64992  0.91079  1.0000
  O   O28       1.0  0.10963  0.56439  0.99973  1.0000
  O   O29       1.0  0.11894  0.538  0.64616  1.0000
  O   O30       1.0  0.19572  0.6172  0.7397399999999998  1.0000
  O   O31       1.0  0.31169  0.8500999999999997  0.41078  1.0000
  O   O32       1.0  0.39033  0.9356  0.49975  1.0000
