data_image0
_chemical_formula_structural       La4H60C48O24
_chemical_formula_sum              "La4 H60 C48 O24"
_cell_length_a       9.80349
_cell_length_b       11.23192
_cell_length_c       14.87984
_cell_angle_alpha    93.5953
_cell_angle_beta     99.24683999999999
_cell_angle_gamma    104.18446000000002

_symmetry_space_group_name_H-M    'P 1'
_symmetry_Int_Tables_number       1

loop_
  _symmetry_equiv_pos_as_xyz
  'x,y,z'

loop_
  _atom_site_type_symbol
  _atom_site_label
  _atom_site_symmetry_multiplicity
  _atom_site_fract_x
  _atom_site_fract_y
  _atom_site_fract_z
  _atom_site_occupancy
  La  La1       1.0  0.37859000000000004  0.52111  0.88222  1.0000
  La  La2       1.0  0.16583  0.55728  0.61996  1.0000
  La  La3       1.0  0.62142  0.47889  0.11778000000000002  1.0000
  La  La4       1.0  0.83417  0.44272  0.38005  1.0000
  H   H1        1.0  0.11647000000000002  0.89408  0.79268  1.0000
  H   H2        1.0  0.4162400000000001  0.8985199999999999  0.8913400000000002  1.0000
  H   H3        1.0  0.36700999999999995  0.91683  0.7746  1.0000
  H   H4        1.0  0.03854000000000002  0.84959  0.9411300000000002  1.0000
  H   H5        1.0  0.21694000000000008  0.8625  0.9935100000000002  1.0000
  H   H6        1.0  0.14831  0.05782  0.029320000000000006  1.0000
  H   H7        1.0  0.10313000000000005  0.07242000000000004  0.9115000000000002  1.0000
  H   H8        1.0  0.3095899999999999  0.11521  0.81437  1.0000
  H   H9        1.0  0.4845499999999999  0.12084  0.86868  1.0000
  H   H10       1.0  0.39956  0.07274  0.014170000000000004  1.0000
  H   H11       1.0  0.06283000000000007  0.22311000000000006  0.8120900000000002  1.0000
  H   H12       1.0  0.8259799999999998  0.15584  0.69603  1.0000
  H   H13       1.0  0.8161399999999999  0.12187  0.80938  1.0000
  H   H14       1.0  0.10161000000000008  0.41742  0.9159900000000002  1.0000
  H   H15       1.0  0.9843199999999999  0.28857  0.9460600000000002  1.0000
  H   H16       1.0  0.88911  0.4730599999999999  0.95932  1.0000
  H   H17       1.0  0.89511  0.4944699999999999  0.84334  1.0000
  H   H18       1.0  0.6103799999999999  0.20206000000000002  0.7476000000000003  1.0000
  H   H19       1.0  0.72457  0.33446  0.71792  1.0000
  H   H20       1.0  0.7209099999999999  0.26796  0.91508  1.0000
  H   H21       1.0  0.91945  0.76309  0.6451300000000002  1.0000
  H   H22       1.0  0.7694  0.86268  0.53765  1.0000
  H   H23       1.0  0.61659  0.7418299999999999  0.53894  1.0000
  H   H24       1.0  0.81892  0.566  0.7010500000000002  1.0000
  H   H25       1.0  0.6451499999999999  0.55998  0.6422300000000002  1.0000
  H   H26       1.0  0.6754699999999999  0.6351  0.8082500000000002  1.0000
  H   H27       1.0  0.8213699999999999  0.7574000000000001  0.79774  1.0000
  H   H28       1.0  0.78515  0.92966  0.7025000000000001  1.0000
  H   H29       1.0  0.61424  0.92509  0.64014  1.0000
  H   H30       1.0  0.6109300000000001  0.83403  0.7925300000000001  1.0000
  H   H31       1.0  0.88354  0.10591999999999999  0.20732000000000006  1.0000
  H   H32       1.0  0.58376  0.10148  0.10866  1.0000
  H   H33       1.0  0.6329999999999999  0.08317  0.2254  1.0000
  H   H34       1.0  0.96146  0.15041  0.05887  1.0000
  H   H35       1.0  0.7830599999999998  0.1375  0.006490000000000002  1.0000
  H   H36       1.0  0.8516899999999997  0.94218  0.9706900000000003  1.0000
  H   H37       1.0  0.8968799999999999  0.9275800000000001  0.0885  1.0000
  H   H38       1.0  0.69042  0.88479  0.18563000000000004  1.0000
  H   H39       1.0  0.51546  0.87916  0.13132000000000002  1.0000
  H   H40       1.0  0.60044  0.92726  0.9858300000000002  1.0000
  H   H41       1.0  0.9371699999999998  0.77689  0.18791000000000005  1.0000
  H   H42       1.0  0.17402999999999993  0.8441600000000001  0.30397000000000013  1.0000
  H   H43       1.0  0.18385999999999988  0.87813  0.19062  1.0000
  H   H44       1.0  0.8984  0.58258  0.08401000000000003  1.0000
  H   H45       1.0  0.015680000000000013  0.71143  0.05394000000000001  1.0000
  H   H46       1.0  0.11088999999999999  0.52694  0.04068000000000001  1.0000
  H   H47       1.0  0.10489  0.50553  0.15666000000000005  1.0000
  H   H48       1.0  0.3896199999999999  0.79795  0.2524000000000001  1.0000
  H   H49       1.0  0.27543  0.66554  0.28208  1.0000
  H   H50       1.0  0.27909999999999996  0.73204  0.08492000000000002  1.0000
  H   H51       1.0  0.08055000000000002  0.23691  0.35487000000000013  1.0000
  H   H52       1.0  0.2306100000000001  0.13732000000000003  0.4623500000000001  1.0000
  H   H53       1.0  0.38342000000000004  0.25818  0.4610600000000001  1.0000
  H   H54       1.0  0.18108  0.434  0.29895  1.0000
  H   H55       1.0  0.3548599999999999  0.44001999999999997  0.35777  1.0000
  H   H56       1.0  0.32453999999999994  0.3649  0.19175  1.0000
  H   H57       1.0  0.17864  0.2426  0.20227000000000006  1.0000
  H   H58       1.0  0.21485  0.07034  0.2975000000000001  1.0000
  H   H59       1.0  0.38575999999999994  0.07491  0.3598600000000001  1.0000
  H   H60       1.0  0.38907  0.16597  0.20747000000000004  1.0000
  C   C1        1.0  0.17342999999999995  0.72895  0.82418  1.0000
  C   C2        1.0  0.18835999999999997  0.86607  0.8470900000000001  1.0000
  C   C3        1.0  0.3440099999999999  0.93588  0.8432200000000002  1.0000
  C   C4        1.0  0.1504000000000001  0.89762  0.9402300000000002  1.0000
  C   C5        1.0  0.17463000000000004  0.03732000000000003  0.9618600000000003  1.0000
  C   C6        1.0  0.37114  0.07537  0.86729  1.0000
  C   C7        1.0  0.33099  0.10518000000000004  0.9604200000000003  1.0000
  C   C8        1.0  0.35871999999999993  0.24392000000000003  0.9842100000000003  1.0000
  C   C9        1.0  0.04195000000000001  0.36707000000000006  0.73353  1.0000
  C   C10       1.0  0.9860199999999999  0.28009  0.80082  1.0000
  C   C11       1.0  0.8337599999999998  0.19800999999999996  0.7659  1.0000
  C   C12       1.0  0.9952699999999999  0.35364  0.8938900000000002  1.0000
  C   C13       1.0  0.8803700000000003  0.42428999999999994  0.8917900000000002  1.0000
  C   C14       1.0  0.71668  0.26675  0.7681200000000002  1.0000
  C   C15       1.0  0.73108  0.33414  0.8631800000000001  1.0000
  C   C16       1.0  0.61622  0.4008300000000001  0.87004  1.0000
  C   C17       1.0  0.8291599999999995  0.6306  0.53028  1.0000
  C   C18       1.0  0.8117900000000001  0.71044  0.6105500000000003  1.0000
  C   C19       1.0  0.71714  0.79701  0.58121  1.0000
  C   C20       1.0  0.74642  0.62314  0.6780600000000001  1.0000
  C   C21       1.0  0.7192999999999999  0.69708  0.7601300000000002  1.0000
  C   C22       1.0  0.6853899999999998  0.8673099999999999  0.6638800000000002  1.0000
  C   C23       1.0  0.61991  0.78014  0.73005  1.0000
  C   C24       1.0  0.4659700000000001  0.70741  0.6925800000000001  1.0000
  C   C25       1.0  0.8265799999999999  0.27105  0.17582  1.0000
  C   C26       1.0  0.81164  0.13393  0.15291000000000005  1.0000
  C   C27       1.0  0.6559899999999999  0.06412  0.15678000000000006  1.0000
  C   C28       1.0  0.8496099999999999  0.10238000000000004  0.05977000000000001  1.0000
  C   C29       1.0  0.82537  0.9626799999999999  0.03814  1.0000
  C   C30       1.0  0.62886  0.92463  0.13271  1.0000
  C   C31       1.0  0.66901  0.89483  0.03958000000000001  1.0000
  C   C32       1.0  0.6412900000000001  0.7560800000000001  0.01579  1.0000
  C   C33       1.0  0.95806  0.6329400000000001  0.2664700000000001  1.0000
  C   C34       1.0  0.013980000000000005  0.71992  0.19918  1.0000
  C   C35       1.0  0.16625000000000004  0.80199  0.23410000000000006  1.0000
  C   C36       1.0  0.004739999999999999  0.64636  0.10611  1.0000
  C   C37       1.0  0.11964  0.57571  0.10822000000000002  1.0000
  C   C38       1.0  0.28332  0.73325  0.23188000000000006  1.0000
  C   C39       1.0  0.26893  0.66586  0.13682000000000005  1.0000
  C   C40       1.0  0.3837899999999999  0.59917  0.12996  1.0000
  C   C41       1.0  0.17085  0.3694  0.4697200000000001  1.0000
  C   C42       1.0  0.18820999999999996  0.28956  0.3894500000000001  1.0000
  C   C43       1.0  0.28286999999999995  0.20298999999999998  0.41879  1.0000
  C   C44       1.0  0.25359  0.37686  0.3219400000000001  1.0000
  C   C45       1.0  0.2807  0.30292  0.23987000000000006  1.0000
  C   C46       1.0  0.31462000000000007  0.13269  0.3361200000000001  1.0000
  C   C47       1.0  0.38009000000000015  0.21986  0.26995  1.0000
  C   C48       1.0  0.5340299999999999  0.29259  0.30742  1.0000
  O   O1        1.0  0.21952000000000005  0.66718  0.8854600000000002  1.0000
  O   O2        1.0  0.11970000000000006  0.6844900000000002  0.7408  1.0000
  O   O3        1.0  0.43444999999999995  0.28998000000000007  0.06264  1.0000
  O   O4        1.0  0.30636999999999986  0.30552  0.9251200000000003  1.0000
  O   O5        1.0  0.17831  0.42322  0.75037  1.0000
  O   O6        1.0  0.96387  0.3875  0.66315  1.0000
  O   O7        1.0  0.61331  0.45387  0.94993  1.0000
  O   O8        1.0  0.52628  0.4065  0.80055  1.0000
  O   O9        1.0  0.40693000000000007  0.61815  0.7364600000000001  1.0000
  O   O10       1.0  0.39274  0.73357  0.62174  1.0000
  O   O11       1.0  0.94976  0.60027  0.5313600000000003  1.0000
  O   O12       1.0  0.7265099999999999  0.58768  0.4637500000000001  1.0000
  O   O13       1.0  0.78049  0.33282  0.11454  1.0000
  O   O14       1.0  0.8803  0.31551  0.25920000000000004  1.0000
  O   O15       1.0  0.5655599999999998  0.71002  0.9373600000000002  1.0000
  O   O16       1.0  0.6936299999999999  0.69448  0.07488000000000003  1.0000
  O   O17       1.0  0.82169  0.57678  0.24963000000000005  1.0000
  O   O18       1.0  0.03612999999999998  0.6125  0.33685  1.0000
  O   O19       1.0  0.3866899999999998  0.54613  0.05007000000000002  1.0000
  O   O20       1.0  0.47371999999999986  0.5935  0.19945000000000002  1.0000
  O   O21       1.0  0.59307  0.38184999999999997  0.26354  1.0000
  O   O22       1.0  0.6072699999999999  0.26643  0.37826000000000004  1.0000
  O   O23       1.0  0.050240000000000055  0.39973000000000003  0.4686400000000001  1.0000
  O   O24       1.0  0.27349  0.41232  0.53625  1.0000
