data_image0
_chemical_formula_structural       Eu4H16C48S8O32
_chemical_formula_sum              "Eu4 H16 C48 S8 O32"
_cell_length_a       11.85329
_cell_length_b       12.07972
_cell_length_c       16.55775
_cell_angle_alpha    90.04509999999999
_cell_angle_beta     90.04984
_cell_angle_gamma    112.32484

_symmetry_space_group_name_H-M    'P 1'
_symmetry_Int_Tables_number       1

loop_
  _symmetry_equiv_pos_as_xyz
  'x,y,z'

loop_
  _atom_site_type_symbol
  _atom_site_label
  _atom_site_symmetry_multiplicity
  _atom_site_fract_x
  _atom_site_fract_y
  _atom_site_fract_z
  _atom_site_occupancy
  Eu  Eu1       1.0  0.80658  0.42409  0.97216  1.0000
  Eu  Eu2       1.0  0.19374  0.07751  0.4715400000000001  1.0000
  Eu  Eu3       1.0  0.1944  0.57821  0.027600000000000006  1.0000
  Eu  Eu4       1.0  0.8065000000000002  0.9229500000000002  0.52853  1.0000
  H   H1        1.0  0.23593  0.7909  0.86185  1.0000
  H   H2        1.0  0.26994000000000007  0.9177600000000001  0.72566  1.0000
  H   H3        1.0  0.6946400000000001  0.06986  0.7481600000000003  1.0000
  H   H4        1.0  0.56853  0.009039999999999998  0.61178  1.0000
  H   H5        1.0  0.76447  0.70854  0.36192000000000013  1.0000
  H   H6        1.0  0.7318  0.58086  0.22562000000000004  1.0000
  H   H7        1.0  0.30668  0.43197  0.24772000000000002  1.0000
  H   H8        1.0  0.43225  0.49205  0.11135000000000002  1.0000
  H   H9        1.0  0.76391  0.20769000000000004  0.13744  1.0000
  H   H10       1.0  0.7305900000000001  0.08095  0.27379  1.0000
  H   H11       1.0  0.30590000000000006  0.9302800000000001  0.25189  1.0000
  H   H12       1.0  0.43241999999999997  0.9918599999999999  0.38808  1.0000
  H   H13       1.0  0.23538000000000003  0.28961  0.64011  1.0000
  H   H14       1.0  0.26823  0.41852999999999996  0.77568  1.0000
  H   H15       1.0  0.69283  0.56636  0.7516500000000003  1.0000
  H   H16       1.0  0.56883  0.50865  0.8888600000000002  1.0000
  C   C1        1.0  0.04191000000000001  0.75968  0.85058  1.0000
  C   C2        1.0  0.16530999999999998  0.8069099999999999  0.8274  1.0000
  C   C3        1.0  0.1831  0.87296  0.75598  1.0000
  C   C4        1.0  0.07309000000000002  0.8743  0.7248000000000002  1.0000
  C   C5        1.0  0.98578  0.67831  0.9189  1.0000
  C   C6        1.0  0.0535800000000001  0.9312600000000001  0.64951  1.0000
  C   C7        1.0  0.60427  0.19548000000000004  0.7692800000000002  1.0000
  C   C8        1.0  0.62939  0.10681  0.72716  1.0000
  C   C9        1.0  0.56293  0.07442  0.6550500000000002  1.0000
  C   C10       1.0  0.4867600000000001  0.13777  0.64323  1.0000
  C   C11       1.0  0.66362  0.2617  0.84257  1.0000
  C   C12       1.0  0.40521  0.12959  0.57421  1.0000
  C   C13       1.0  0.9587200000000001  0.74076  0.35115  1.0000
  C   C14       1.0  0.83538  0.69271  0.32775  1.0000
  C   C15       1.0  0.81824  0.62662  0.25629  1.0000
  C   C16       1.0  0.9286200000000001  0.62631  0.22525  1.0000
  C   C17       1.0  0.01469000000000002  0.82298  0.4191800000000001  1.0000
  C   C18       1.0  0.9476000000000001  0.56947  0.14975  1.0000
  C   C19       1.0  0.39615  0.30548  0.26874  1.0000
  C   C20       1.0  0.37146  0.39448999999999995  0.22669  1.0000
  C   C21       1.0  0.43795999999999996  0.42681  0.15467  1.0000
  C   C22       1.0  0.51396  0.36325  0.143  1.0000
  C   C23       1.0  0.3367300000000001  0.23917  0.34195  1.0000
  C   C24       1.0  0.59508  0.37063  0.07404000000000002  1.0000
  C   C25       1.0  0.9585100000000001  0.24181000000000002  0.14956  1.0000
  C   C26       1.0  0.83486  0.19286000000000003  0.17225  1.0000
  C   C27       1.0  0.81732  0.12661  0.24355  1.0000
  C   C28       1.0  0.92758  0.12647  0.27506  1.0000
  C   C29       1.0  0.01449  0.32352  0.08125000000000003  1.0000
  C   C30       1.0  0.9467300000000001  0.06905  0.35023  1.0000
  C   C31       1.0  0.39629000000000003  0.8046300000000001  0.23096000000000005  1.0000
  C   C32       1.0  0.37117000000000006  0.8933900000000001  0.2729600000000001  1.0000
  C   C33       1.0  0.43772  0.9260900000000001  0.34503  1.0000
  C   C34       1.0  0.51362  0.8625  0.3570200000000001  1.0000
  C   C35       1.0  0.33679  0.73857  0.15765  1.0000
  C   C36       1.0  0.5951000000000001  0.8705200000000001  0.4259700000000001  1.0000
  C   C37       1.0  0.04158000000000001  0.25997  0.6494400000000002  1.0000
  C   C38       1.0  0.1646  0.30667  0.67362  1.0000
  C   C39       1.0  0.18183000000000002  0.3737  0.7447000000000003  1.0000
  C   C40       1.0  0.0718  0.3762  0.7748  1.0000
  C   C41       1.0  0.98583  0.17771  0.5812700000000002  1.0000
  C   C42       1.0  0.052080000000000015  0.43356  0.85  1.0000
  C   C43       1.0  0.60482  0.69428  0.73094  1.0000
  C   C44       1.0  0.6290600000000002  0.60495  0.77296  1.0000
  C   C45       1.0  0.56339  0.57378  0.8453500000000003  1.0000
  C   C46       1.0  0.48838  0.63835  0.85725  1.0000
  C   C47       1.0  0.66389  0.76068  0.65768  1.0000
  C   C48       1.0  0.40726  0.63167  0.9261300000000002  1.0000
  S   S1        1.0  0.94896  0.79528  0.78374  1.0000
  S   S2        1.0  0.4959100000000001  0.2362  0.72092  1.0000
  S   S3        1.0  0.05242  0.7061  0.28442  1.0000
  S   S4        1.0  0.50443  0.26467  0.2205  1.0000
  S   S5        1.0  0.05186  0.2074  0.21672  1.0000
  S   S6        1.0  0.50431  0.76373  0.27956  1.0000
  S   S7        1.0  0.94831  0.29746  0.7150700000000002  1.0000
  S   S8        1.0  0.49794  0.73667  0.77962  1.0000
  O   O1        1.0  0.86985  0.62993  0.9204300000000002  1.0000
  O   O2        1.0  0.05703999999999999  0.65745  0.96874  1.0000
  O   O3        1.0  0.94793  0.93332  0.63958  1.0000
  O   O4        1.0  0.14392000000000008  0.9729200000000001  0.6024000000000003  1.0000
  O   O5        1.0  0.71419  0.21601999999999996  0.89275  1.0000
  O   O6        1.0  0.66306  0.3667000000000001  0.85299  1.0000
  O   O7        1.0  0.355  0.2062  0.56806  1.0000
  O   O8        1.0  0.38296  0.04431  0.52374  1.0000
  O   O9        1.0  0.13060999999999998  0.87171  0.42064  1.0000
  O   O10       1.0  0.94328  0.84422  0.46868  1.0000
  O   O11       1.0  0.052890000000000006  0.56707  0.13931  1.0000
  O   O12       1.0  0.8566  0.5279  0.10287000000000003  1.0000
  O   O13       1.0  0.28606  0.2849  0.39209  1.0000
  O   O14       1.0  0.33716  0.13412  0.35257  1.0000
  O   O15       1.0  0.6450399999999998  0.29385  0.06789000000000002  1.0000
  O   O16       1.0  0.6171800000000001  0.4557800000000001  0.02359  1.0000
  O   O17       1.0  0.13036  0.37197  0.07952000000000002  1.0000
  O   O18       1.0  0.94286  0.34414  0.03158  1.0000
  O   O19       1.0  0.05218  0.06668  0.36031  1.0000
  O   O20       1.0  0.85625  0.027469999999999998  0.3973  1.0000
  O   O21       1.0  0.286  0.78424  0.10758  1.0000
  O   O22       1.0  0.3370099999999999  0.63344  0.14704  1.0000
  O   O23       1.0  0.64524  0.79384  0.4321300000000001  1.0000
  O   O24       1.0  0.6173400000000001  0.9558000000000001  0.47643000000000013  1.0000
  O   O25       1.0  0.86985  0.12873  0.5796800000000002  1.0000
  O   O26       1.0  0.05705  0.15679  0.5315  1.0000
  O   O27       1.0  0.94573  0.43335999999999997  0.86038  1.0000
  O   O28       1.0  0.14317  0.47758000000000006  0.89662  1.0000
  O   O29       1.0  0.71445  0.71516  0.60738  1.0000
  O   O30       1.0  0.66305  0.86563  0.64737  1.0000
  O   O31       1.0  0.35968  0.71028  0.9324500000000001  1.0000
  O   O32       1.0  0.38289000000000006  0.54542  0.9760099999999999  1.0000
