data_image0
_chemical_formula_structural       Mn8H24C72O48
_chemical_formula_sum              "Mn8 H24 C72 O48"
_cell_length_a       13.03097
_cell_length_b       12.70198
_cell_length_c       16.23905
_cell_angle_alpha    89.99823999999998
_cell_angle_beta     89.99417
_cell_angle_gamma    90.35144

_symmetry_space_group_name_H-M    'P 1'
_symmetry_Int_Tables_number       1

loop_
  _symmetry_equiv_pos_as_xyz
  'x,y,z'

loop_
  _atom_site_type_symbol
  _atom_site_label
  _atom_site_symmetry_multiplicity
  _atom_site_fract_x
  _atom_site_fract_y
  _atom_site_fract_z
  _atom_site_occupancy
  Mn  Mn1       1.0  0.55023  0.39446000000000003  0.4192  1.0000
  Mn  Mn2       1.0  0.44999  0.10736  0.91877  1.0000
  Mn  Mn3       1.0  0.050300000000000004  0.6098700000000001  0.08155  1.0000
  Mn  Mn4       1.0  0.94857  0.89083  0.581  1.0000
  Mn  Mn5       1.0  0.44965  0.60947  0.5817899999999998  1.0000
  Mn  Mn6       1.0  0.55038  0.8917900000000002  0.08204  1.0000
  Mn  Mn7       1.0  0.94667  0.38945000000000013  0.91925  1.0000
  Mn  Mn8       1.0  0.0515  0.11016  0.4195  1.0000
  H   H1        1.0  0.75195  0.35125000000000006  0.9775499999999998  1.0000
  H   H2        1.0  0.53562  0.24857  0.16014  1.0000
  H   H3        1.0  0.7861000000000001  0.45603  0.22887  1.0000
  H   H4        1.0  0.24533  0.15277000000000002  0.47786  1.0000
  H   H5        1.0  0.46092  0.25596  0.6608  1.0000
  H   H6        1.0  0.21546  0.040730000000000016  0.7274999999999998  1.0000
  H   H7        1.0  0.25296  0.6517700000000002  0.52247  1.0000
  H   H8        1.0  0.04028  0.7582  0.33953  1.0000
  H   H9        1.0  0.2837  0.54514  0.27130999999999994  1.0000
  H   H10       1.0  0.7492300000000001  0.85195  0.02339  1.0000
  H   H11       1.0  0.96137  0.74667  0.83925  1.0000
  H   H12       1.0  0.7138800000000001  0.95532  0.77189  1.0000
  H   H13       1.0  0.2459  0.6486100000000002  0.022659999999999993  1.0000
  H   H14       1.0  0.4618800000000001  0.75303  0.84067  1.0000
  H   H15       1.0  0.21372  0.5425300000000001  0.77154  1.0000
  H   H16       1.0  0.75371  0.8506900000000001  0.52314  1.0000
  H   H17       1.0  0.53779  0.7466300000000002  0.34049  1.0000
  H   H18       1.0  0.78545  0.9577700000000002  0.27229  1.0000
  H   H19       1.0  0.74837  0.3514300000000001  0.47727  1.0000
  H   H20       1.0  0.95924  0.24563000000000004  0.6618299999999999  1.0000
  H   H21       1.0  0.7124700000000002  0.4553  0.72879  1.0000
  H   H22       1.0  0.25039  0.14792  0.9768699999999998  1.0000
  H   H23       1.0  0.03806  0.25338  0.16073  1.0000
  H   H24       1.0  0.28569  0.04486000000000001  0.22839999999999996  1.0000
  C   C1        1.0  0.7279300000000001  0.35117  0.04167  1.0000
  C   C2        1.0  0.5935000000000001  0.23165000000000002  0.9922399999999999  1.0000
  C   C3        1.0  0.60428  0.29276  0.14321  1.0000
  C   C4        1.0  0.6186400000000001  0.36264000000000013  0.28732  1.0000
  C   C5        1.0  0.6405100000000002  0.29241000000000006  0.06202  1.0000
  C   C6        1.0  0.87459  0.4688800000000001  0.07666  1.0000
  C   C7        1.0  0.74587  0.41011  0.18228  1.0000
  C   C8        1.0  0.78174  0.4085600000000001  0.10119  1.0000
  C   C9        1.0  0.6568800000000002  0.35304  0.20268  1.0000
  C   C10       1.0  0.26993  0.15173  0.54179  1.0000
  C   C11       1.0  0.40514  0.27161  0.49291999999999997  1.0000
  C   C12       1.0  0.39333  0.21019000000000002  0.64348  1.0000
  C   C13       1.0  0.38210000000000005  0.13735000000000003  0.78667  1.0000
  C   C14       1.0  0.35699  0.21104  0.56236  1.0000
  C   C15       1.0  0.12504  0.0307  0.57592  1.0000
  C   C16       1.0  0.25425  0.08902000000000002  0.68155  1.0000
  C   C17       1.0  0.21723  0.09222  0.60074  1.0000
  C   C18       1.0  0.34226000000000006  0.14758000000000002  0.70241  1.0000
  C   C19       1.0  0.229  0.6518  0.45838  1.0000
  C   C20       1.0  0.09646  0.77202  0.50769  1.0000
  C   C21       1.0  0.10718000000000001  0.71222  0.35675  1.0000
  C   C22       1.0  0.11955  0.64195  0.21292  1.0000
  C   C23       1.0  0.14315  0.7117600000000002  0.43794  1.0000
  C   C24       1.0  0.3729800000000001  0.53221  0.42443  1.0000
  C   C25       1.0  0.24542000000000003  0.5921000000000001  0.31802  1.0000
  C   C26       1.0  0.28136  0.59311  0.39913  1.0000
  C   C27       1.0  0.15826  0.65107  0.2974499999999999  1.0000
  C   C28       1.0  0.7729500000000002  0.85163  0.95921  1.0000
  C   C29       1.0  0.90674  0.73144  0.007749999999999999  1.0000
  C   C30       1.0  0.8939700000000003  0.7917600000000002  0.85671  1.0000
  C   C31       1.0  0.8781000000000001  0.8586400000000002  0.7121099999999998  1.0000
  C   C32       1.0  0.8592400000000002  0.7923300000000002  0.9383399999999997  1.0000
  C   C33       1.0  0.6276  0.9701400000000002  0.9252  1.0000
  C   C34       1.0  0.7536700000000002  0.9094100000000003  0.8184  1.0000
  C   C35       1.0  0.7192700000000001  0.9091900000000002  0.89996  1.0000
  C   C36       1.0  0.84102  0.85124  0.79727  1.0000
  C   C37       1.0  0.27031  0.64832  0.95869  1.0000
  C   C38       1.0  0.4039900000000001  0.7685000000000001  0.00884  1.0000
  C   C39       1.0  0.39372  0.70795  0.8576199999999998  1.0000
  C   C40       1.0  0.3806100000000001  0.63877  0.7139299999999997  1.0000
  C   C41       1.0  0.3576  0.7075300000000001  0.93879  1.0000
  C   C42       1.0  0.12331000000000002  0.5307300000000001  0.9242699999999998  1.0000
  C   C43       1.0  0.25286  0.58926  0.8182299999999998  1.0000
  C   C44       1.0  0.21655000000000005  0.5906300000000001  0.89924  1.0000
  C   C45       1.0  0.34137  0.6474100000000002  0.79818  1.0000
  C   C46       1.0  0.72925  0.85096  0.45916  1.0000
  C   C47       1.0  0.59422  0.73135  0.5084  1.0000
  C   C48       1.0  0.60585  0.7916700000000002  0.35779  1.0000
  C   C49       1.0  0.61931  0.8609500000000002  0.21403999999999995  1.0000
  C   C50       1.0  0.6419400000000001  0.7919400000000002  0.43898  1.0000
  C   C51       1.0  0.8748  0.9705100000000002  0.42425  1.0000
  C   C52       1.0  0.7463000000000001  0.91072  0.31877  1.0000
  C   C53       1.0  0.7825  0.9091600000000001  0.39975  1.0000
  C   C54       1.0  0.65821  0.8522300000000003  0.29841  1.0000
  C   C55       1.0  0.77147  0.35108  0.5415799999999997  1.0000
  C   C56       1.0  0.9059100000000001  0.23207000000000005  0.49265999999999993  1.0000
  C   C57       1.0  0.8919900000000002  0.29077  0.64415  1.0000
  C   C58       1.0  0.8757900000000002  0.35851  0.78849  1.0000
  C   C59       1.0  0.85767  0.29165  0.56247  1.0000
  C   C60       1.0  0.62665  0.47062000000000004  0.57547  1.0000
  C   C61       1.0  0.7521400000000001  0.40935  0.68219  1.0000
  C   C62       1.0  0.71789  0.4090300000000001  0.60062  1.0000
  C   C63       1.0  0.8391  0.3507  0.70334  1.0000
  C   C64       1.0  0.22669  0.14824000000000004  0.04106  1.0000
  C   C65       1.0  0.09263  0.26829  0.9922899999999999  1.0000
  C   C66       1.0  0.10542000000000003  0.20818  0.14336  1.0000
  C   C67       1.0  0.12147  0.14162  0.28819  1.0000
  C   C68       1.0  0.14023  0.20746000000000006  0.06174999999999999  1.0000
  C   C69       1.0  0.3723  0.02971  0.0752  1.0000
  C   C70       1.0  0.24587  0.09077000000000003  0.18189999999999995  1.0000
  C   C71       1.0  0.28046  0.09078  0.10037999999999997  1.0000
  C   C72       1.0  0.15839000000000006  0.14894  0.20294  1.0000
  O   O1        1.0  0.49881  0.19583  0.00447  1.0000
  O   O2        1.0  0.64148  0.21694000000000005  0.92787  1.0000
  O   O3        1.0  0.65018  0.43923  0.33384  1.0000
  O   O4        1.0  0.9331700000000003  0.50854  0.12994  1.0000
  O   O5        1.0  0.89022  0.4822900000000001  0.9980600000000001  1.0000
  O   O6        1.0  0.55165  0.30041  0.32028  1.0000
  O   O7        1.0  0.49984  0.3072500000000001  0.50589  1.0000
  O   O8        1.0  0.35835  0.28564  0.4278499999999999  1.0000
  O   O9        1.0  0.35385000000000005  0.05885  0.8327599999999997  1.0000
  O   O10       1.0  0.06662  0.9906500000000003  0.62925  1.0000
  O   O11       1.0  0.10981  0.01661  0.49725  1.0000
  O   O12       1.0  0.44755000000000006  0.20137  0.81972  1.0000
  O   O13       1.0  0.000660000000000002  0.8041700000000003  0.49577999999999994  1.0000
  O   O14       1.0  0.14558  0.78827  0.57144  1.0000
  O   O15       1.0  0.15050000000000002  0.56567  0.1663  1.0000
  O   O16       1.0  0.43235  0.49314  0.37161  1.0000
  O   O17       1.0  0.3863300000000001  0.51861  0.50339  1.0000
  O   O18       1.0  0.05256000000000002  0.7039100000000003  0.18021  1.0000
  O   O19       1.0  0.0020799999999999994  0.69857  0.9956800000000001  1.0000
  O   O20       1.0  0.85839  0.7142400000000002  0.07167  1.0000
  O   O21       1.0  0.84404  0.93137  0.66326  1.0000
  O   O22       1.0  0.5685700000000001  0.009410000000000002  0.87222  1.0000
  O   O23       1.0  0.61356  0.9836400000000002  0.00406  1.0000
  O   O24       1.0  0.94779  0.7985600000000003  0.68121  1.0000
  O   O25       1.0  0.49911000000000005  0.80401  0.9965299999999999  1.0000
  O   O26       1.0  0.35493  0.7832700000000001  0.0727  1.0000
  O   O27       1.0  0.35019  0.56244  0.66659  1.0000
  O   O28       1.0  0.06322  0.4922  0.8714299999999998  1.0000
  O   O29       1.0  0.10952  0.51757  0.00327  1.0000
  O   O30       1.0  0.4478  0.70216  0.68246  1.0000
  O   O31       1.0  0.49869000000000013  0.69815  0.49587999999999993  1.0000
  O   O32       1.0  0.6419900000000001  0.7146600000000001  0.57263  1.0000
  O   O33       1.0  0.6505600000000001  0.9367000000000001  0.16649  1.0000
  O   O34       1.0  0.933  0.010700000000000001  0.3709  1.0000
  O   O35       1.0  0.8902600000000003  0.9840000000000001  0.50296  1.0000
  O   O36       1.0  0.5515  0.7985800000000001  0.18248  1.0000
  O   O37       1.0  0.0007900000000000006  0.19794000000000006  0.50508  1.0000
  O   O38       1.0  0.8584800000000002  0.21714000000000006  0.4280299999999999  1.0000
  O   O39       1.0  0.8441700000000001  0.4333700000000001  0.83636  1.0000
  O   O40       1.0  0.5671200000000001  0.50829  0.62869  1.0000
  O   O41       1.0  0.61378  0.48633  0.49665  1.0000
  O   O42       1.0  0.94302  0.29629  0.82046  1.0000
  O   O43       1.0  0.9971200000000001  0.3009200000000001  0.00442  1.0000
  O   O44       1.0  0.14127  0.28563  0.92849  1.0000
  O   O45       1.0  0.15562000000000004  0.06888  0.33695999999999987  1.0000
  O   O46       1.0  0.43162  0.99074  0.12818  1.0000
  O   O47       1.0  0.38598  0.015920000000000004  0.9963600000000001  1.0000
  O   O48       1.0  0.05201  0.20173  0.31953  1.0000
