data_image0
_chemical_formula_structural       Cu4H36C80O24
_chemical_formula_sum              "Cu4 H36 C80 O24"
_cell_length_a       16.31757
_cell_length_b       17.15204
_cell_length_c       28.29321
_cell_angle_alpha    89.99675999999998
_cell_angle_beta     89.99685
_cell_angle_gamma    118.51493

_symmetry_space_group_name_H-M    'P 1'
_symmetry_Int_Tables_number       1

loop_
  _symmetry_equiv_pos_as_xyz
  'x,y,z'

loop_
  _atom_site_type_symbol
  _atom_site_label
  _atom_site_symmetry_multiplicity
  _atom_site_fract_x
  _atom_site_fract_y
  _atom_site_fract_z
  _atom_site_occupancy
  Cu  Cu1       1.0  0.41594  0.45006  4e-05  1.0000
  Cu  Cu2       1.0  0.58416  0.54999  0.99997  1.0000
  Cu  Cu3       1.0  0.03429999999999996  0.4501399999999999  0.4999799999999999  1.0000
  Cu  Cu4       1.0  0.9656899999999999  0.5498899999999998  0.50002  1.0000
  H   H1        1.0  0.38383  0.25464  0.89593  1.0000
  H   H2        1.0  0.678  0.43522  0.89151  1.0000
  H   H3        1.0  0.40317  0.16007  0.835  1.0000
  H   H4        1.0  0.69772  0.34381  0.82886  1.0000
  H   H5        1.0  0.616  0.74555  0.89594  1.0000
  H   H6        1.0  0.32194  0.5647  0.89158  1.0000
  H   H7        1.0  0.59652  0.83989  0.83495  1.0000
  H   H8        1.0  0.30201  0.6559  0.82892  1.0000
  H   H9        1.0  0.8706600000000002  0.25487999999999994  0.60376  1.0000
  H   H10       1.0  0.75804  0.43544  0.60844  1.0000
  H   H11       1.0  0.7564199999999999  0.16013999999999995  0.66479  1.0000
  H   H12       1.0  0.64631  0.3437899999999999  0.67104  1.0000
  H   H13       1.0  0.12913999999999995  0.7448799999999998  0.60376  1.0000
  H   H14       1.0  0.24215  0.56464  0.60831  1.0000
  H   H15       1.0  0.24332  0.83969  0.66482  1.0000
  H   H16       1.0  0.35361999999999993  0.6560799999999999  0.6710199999999998  1.0000
  H   H17       1.0  0.61606  0.7452299999999997  0.10404  1.0000
  H   H18       1.0  0.32188  0.5647  0.10852  1.0000
  H   H19       1.0  0.59682  0.83989  0.16492  1.0000
  H   H20       1.0  0.30224  0.65616  0.17117  1.0000
  H   H21       1.0  0.38419000000000003  0.25463  0.10402  1.0000
  H   H22       1.0  0.6782599999999999  0.4352899999999999  0.10841  1.0000
  H   H23       1.0  0.4034800000000001  0.16024999999999995  0.16505  1.0000
  H   H24       1.0  0.6980500000000002  0.34406  0.17114  1.0000
  H   H25       1.0  0.12936  0.74516  0.39624  1.0000
  H   H26       1.0  0.24196000000000006  0.56457  0.39157  1.0000
  H   H27       1.0  0.24363999999999983  0.8399099999999998  0.33523  1.0000
  H   H28       1.0  0.35369  0.65622  0.32896  1.0000
  H   H29       1.0  0.87091  0.25515  0.39622  1.0000
  H   H30       1.0  0.7578499999999999  0.43536  0.39169  1.0000
  H   H31       1.0  0.7567299999999999  0.16035999999999995  0.33515  1.0000
  H   H32       1.0  0.64637  0.3439199999999999  0.32899  1.0000
  H   H33       1.0  0.65418  0.3081  0.7498599999999997  1.0000
  H   H34       1.0  0.34597999999999995  0.6918399999999999  0.74971  1.0000
  H   H35       1.0  0.3457899999999999  0.6918899999999998  0.25015  1.0000
  H   H36       1.0  0.6540100000000001  0.30817  0.25029  1.0000
  C   C1        1.0  0.51827  0.4047999999999999  0.93558  1.0000
  C   C2        1.0  0.51447  0.09537999999999998  0.792  1.0000
  C   C3        1.0  0.56324  0.19298  0.78939  1.0000
  C   C4        1.0  0.45232999999999995  0.27281  0.88143  1.0000
  C   C5        1.0  0.5298399999999999  0.35021999999999986  0.89775  1.0000
  C   C6        1.0  0.61831  0.3755599999999999  0.87838  1.0000
  C   C7        1.0  0.46307000000000004  0.22029  0.84717  1.0000
  C   C8        1.0  0.55151  0.24553  0.82712  1.0000
  C   C9        1.0  0.6287099999999999  0.3244499999999999  0.84313  1.0000
  C   C10       1.0  0.48175  0.59519  0.93557  1.0000
  C   C11       1.0  0.48543  0.9045599999999998  0.79212  1.0000
  C   C12       1.0  0.43643  0.80692  0.78945  1.0000
  C   C13       1.0  0.5474999999999998  0.7271999999999997  0.8814  1.0000
  C   C14       1.0  0.47011  0.64973  0.89774  1.0000
  C   C15       1.0  0.3816099999999999  0.6243099999999998  0.87839  1.0000
  C   C16       1.0  0.5366600000000001  0.7796299999999998  0.84712  1.0000
  C   C17       1.0  0.44818  0.75429  0.8271  1.0000
  C   C18       1.0  0.3710799999999999  0.6752999999999998  0.84312  1.0000
  C   C19       1.0  0.88691  0.40486  0.56439  1.0000
  C   C20       1.0  0.5810100000000002  0.09544  0.70789  1.0000
  C   C21       1.0  0.62951  0.19300999999999993  0.7104  1.0000
  C   C22       1.0  0.8204500000000001  0.27293999999999996  0.6184  1.0000
  C   C23       1.0  0.8207000000000002  0.3503799999999999  0.6021899999999999  1.0000
  C   C24       1.0  0.7577  0.3757299999999999  0.6215499999999998  1.0000
  C   C25       1.0  0.75703  0.22038  0.65264  1.0000
  C   C26       1.0  0.6939300000000002  0.24559999999999996  0.6727  1.0000
  C   C27       1.0  0.69591  0.32452  0.65672  1.0000
  C   C28       1.0  0.11324999999999989  0.5952199999999997  0.56434  1.0000
  C   C29       1.0  0.4192599999999999  0.9045699999999998  0.7079399999999998  1.0000
  C   C30       1.0  0.37052  0.807  0.7103899999999997  1.0000
  C   C31       1.0  0.17951  0.72701  0.61839  1.0000
  C   C32       1.0  0.17945  0.64967  0.60213  1.0000
  C   C33       1.0  0.2424  0.62429  0.6215  1.0000
  C   C34       1.0  0.2429099999999999  0.7795499999999997  0.65265  1.0000
  C   C35       1.0  0.3061099999999999  0.7543999999999997  0.67267  1.0000
  C   C36       1.0  0.30403999999999987  0.6753999999999998  0.65673  1.0000
  C   C37       1.0  0.48162  0.59513  0.06443  1.0000
  C   C38       1.0  0.4854999999999999  0.9046199999999998  0.20801  1.0000
  C   C39       1.0  0.43673  0.807  0.21061  1.0000
  C   C40       1.0  0.54756  0.7271199999999998  0.11853  1.0000
  C   C41       1.0  0.47003000000000006  0.64973  0.10223  1.0000
  C   C42       1.0  0.3815799999999999  0.6243899999999999  0.12162999999999999  1.0000
  C   C43       1.0  0.5368699999999997  0.7796599999999998  0.1528  1.0000
  C   C44       1.0  0.44845999999999997  0.7544399999999999  0.17288999999999996  1.0000
  C   C45       1.0  0.37125  0.67549  0.15689  1.0000
  C   C46       1.0  0.51848  0.40487  0.06441  1.0000
  C   C47       1.0  0.51452  0.09544  0.20792  1.0000
  C   C48       1.0  0.56355  0.19307999999999995  0.21057  1.0000
  C   C49       1.0  0.45265999999999995  0.2729099999999999  0.11858  1.0000
  C   C50       1.0  0.53011  0.3503399999999999  0.10224  1.0000
  C   C51       1.0  0.61858  0.37571  0.12161  1.0000
  C   C52       1.0  0.46341  0.22044999999999995  0.15287  1.0000
  C   C53       1.0  0.55185  0.24572999999999995  0.1729  1.0000
  C   C54       1.0  0.62902  0.32468  0.15689  1.0000
  C   C55       1.0  0.11309999999999995  0.59516  0.4356199999999999  1.0000
  C   C56       1.0  0.41912  0.90455  0.29213  1.0000
  C   C57       1.0  0.37052  0.80698  0.28960999999999987  1.0000
  C   C58       1.0  0.1795699999999999  0.7270999999999997  0.38161  1.0000
  C   C59       1.0  0.17932999999999993  0.64965  0.39783  1.0000
  C   C60       1.0  0.2423  0.62429  0.37846  1.0000
  C   C61       1.0  0.24299  0.7796499999999997  0.34736999999999996  1.0000
  C   C62       1.0  0.3060799999999999  0.7544099999999998  0.32731  1.0000
  C   C63       1.0  0.30408  0.67549  0.3432799999999999  1.0000
  C   C64       1.0  0.88676  0.40478  0.43566999999999995  1.0000
  C   C65       1.0  0.58084  0.09541999999999998  0.29206  1.0000
  C   C66       1.0  0.62953  0.19302  0.28960999999999987  1.0000
  C   C67       1.0  0.8205399999999999  0.2730399999999999  0.38159  1.0000
  C   C68       1.0  0.82057  0.3503499999999999  0.39786  1.0000
  C   C69       1.0  0.7576  0.37571999999999994  0.3785  1.0000
  C   C70       1.0  0.75715  0.22049999999999995  0.34734  1.0000
  C   C71       1.0  0.69395  0.24563999999999994  0.32731999999999994  1.0000
  C   C72       1.0  0.6959699999999999  0.3246099999999999  0.34326  1.0000
  C   C73       1.0  0.52291  0.04588  0.74994  1.0000
  C   C74       1.0  0.61776  0.23573999999999995  0.74988  1.0000
  C   C75       1.0  0.47705  0.9540999999999997  0.7500599999999998  1.0000
  C   C76       1.0  0.3821099999999999  0.7642199999999998  0.74988  1.0000
  C   C77       1.0  0.47708999999999996  0.9540799999999999  0.25007  1.0000
  C   C78       1.0  0.3822199999999999  0.7642699999999998  0.25012  1.0000
  C   C79       1.0  0.52296  0.04593  0.24996  1.0000
  C   C80       1.0  0.61789  0.23575999999999994  0.25013  1.0000
  O   O1        1.0  0.43506  0.37943  0.9503699999999999  1.0000
  O   O2        1.0  0.5922199999999999  0.4726299999999999  0.95024  1.0000
  O   O3        1.0  0.45767  0.05527999999999999  0.82387  1.0000
  O   O4        1.0  0.5649799999999999  0.6205699999999997  0.95032  1.0000
  O   O5        1.0  0.40780999999999995  0.5273799999999998  0.9503  1.0000
  O   O6        1.0  0.5425  0.94454  0.82391  1.0000
  O   O7        1.0  0.94455  0.3793699999999999  0.54958  1.0000
  O   O8        1.0  0.88084  0.4726299999999999  0.54979  1.0000
  O   O9        1.0  0.59851  0.05556  0.67625  1.0000
  O   O10       1.0  0.05557000000000002  0.62069  0.54959  1.0000
  O   O11       1.0  0.11928000000000004  0.52744  0.54972  1.0000
  O   O12       1.0  0.4025500000000001  0.94467  0.6761299999999998  1.0000
  O   O13       1.0  0.56482  0.62061  0.04959  1.0000
  O   O14       1.0  0.40773000000000004  0.5271699999999998  0.04982  1.0000
  O   O15       1.0  0.5423  0.94472  0.17612999999999998  1.0000
  O   O16       1.0  0.43528  0.3793399999999999  0.04958  1.0000
  O   O17       1.0  0.59236  0.4728399999999999  0.04977  1.0000
  O   O18       1.0  0.45743  0.05547  0.17612  1.0000
  O   O19       1.0  0.0554399999999999  0.6206299999999998  0.45040999999999987  1.0000
  O   O20       1.0  0.11916999999999994  0.5273799999999998  0.45021  1.0000
  O   O21       1.0  0.4017099999999998  0.9444199999999998  0.32382  1.0000
  O   O22       1.0  0.9444200000000001  0.3793  0.45043  1.0000
  O   O23       1.0  0.8807199999999998  0.47255999999999987  0.45028  1.0000
  O   O24       1.0  0.59772  0.055379999999999985  0.32384  1.0000
