data_image0
_chemical_formula_structural       Cd3H32C32N48
_chemical_formula_sum              "Cd3 H32 C32 N48"
_cell_length_a       13.10772
_cell_length_b       11.272499999999999
_cell_length_c       14.19573
_cell_angle_alpha    121.43404
_cell_angle_beta     112.38831
_cell_angle_gamma    88.64879

_space_group_name_H-M_alt    "P 1"
_space_group_IT_number       1

loop_
  _space_group_symop_operation_xyz
  'x, y, z'

loop_
  _atom_site_type_symbol
  _atom_site_label
  _atom_site_symmetry_multiplicity
  _atom_site_fract_x
  _atom_site_fract_y
  _atom_site_fract_z
  _atom_site_occupancy
  Cd  Cd1       1.0  0.03778  0.19243999999999994  0.16682  1.0000
  Cd  Cd2       1.0  0.7424200000000002  0.6754299999999999  0.39004  1.0000
  Cd  Cd3       1.0  0.3756100000000001  0.38043  0.71238  1.0000
  H   H1        1.0  0.31523000000000007  0.3331899999999999  0.21545999999999998  1.0000
  H   H2        1.0  0.11382999999999997  0.24340000000000006  0.85746  1.0000
  H   H3        1.0  0.30502  0.043650000000000036  0.88095  1.0000
  H   H4        1.0  0.4423900000000001  0.4885999999999999  0.1246  1.0000
  H   H5        1.0  0.22871  0.84636  0.39443999999999996  1.0000
  H   H6        1.0  0.45611000000000007  0.7706899999999998  0.23046999999999998  1.0000
  H   H7        1.0  0.59331  0.9993399999999999  0.50371  1.0000
  H   H8        1.0  0.26711  0.0963  0.39813  1.0000
  H   H9        1.0  0.91301  0.01794  0.25718  1.0000
  H   H10       1.0  0.7343900000000001  0.6349  0.90276  1.0000
  H   H11       1.0  0.55436  0.7905799999999997  0.01312  1.0000
  H   H12       1.0  0.8443400000000002  0.7654699999999999  0.26806  1.0000
  H   H13       1.0  0.05739000000000001  0.5338599999999999  0.22702999999999998  1.0000
  H   H14       1.0  0.8118600000000002  0.34430999999999995  0.26145  1.0000
  H   H15       1.0  0.07488999999999998  0.26116  0.5743  1.0000
  H   H16       1.0  0.26652999999999993  0.38644999999999996  0.44952  1.0000
  H   H17       1.0  0.03577  0.8221899999999998  0.95613  1.0000
  H   H18       1.0  0.3960900000000001  0.92842  0.14125  1.0000
  H   H19       1.0  0.11610000000000005  0.57363  0.9818  1.0000
  H   H20       1.0  0.34304000000000007  0.70501  0.88387  1.0000
  H   H21       1.0  0.47264  0.9111199999999999  0.82597  1.0000
  H   H22       1.0  0.4770500000000001  0.49226  0.57915  1.0000
  H   H23       1.0  0.52916  0.2073  0.27373  1.0000
  H   H24       1.0  0.50205  0.63302  0.4358  1.0000
  H   H25       1.0  0.8896700000000002  0.19438999999999987  0.91114  1.0000
  H   H26       1.0  0.6181299999999998  0.10378999999999991  0.9749499999999999  1.0000
  H   H27       1.0  0.8003000000000002  0.46690999999999994  0.06267  1.0000
  H   H28       1.0  0.51898  0.13817999999999994  0.74239  1.0000
  H   H29       1.0  0.31806999999999996  0.84389  0.6000199999999999  1.0000
  H   H30       1.0  0.16178999999999996  0.18917999999999985  0.71108  1.0000
  H   H31       1.0  0.80784  0.21793  0.69904  1.0000
  H   H32       1.0  0.006310000000000005  0.9205999999999999  0.59436  1.0000
  C   C1        1.0  0.24158  0.3124099999999999  0.13392  1.0000
  C   C2        1.0  0.13896000000000006  0.26822  0.94912  1.0000
  C   C3        1.0  0.3658300000000001  0.14465999999999996  0.93935  1.0000
  C   C4        1.0  0.4371800000000001  0.37674  0.06308  1.0000
  C   C5        1.0  0.26765000000000005  0.7904499999999999  0.33269  1.0000
  C   C6        1.0  0.38732000000000005  0.7525499999999999  0.24997999999999998  1.0000
  C   C7        1.0  0.52554  0.05817999999999995  0.49890999999999996  1.0000
  C   C8        1.0  0.35755000000000003  0.10941  0.44484  1.0000
  C   C9        1.0  0.8900800000000001  0.92696  0.16375  1.0000
  C   C10       1.0  0.79908  0.72995  0.97924  1.0000
  C   C11       1.0  0.6074500000000002  0.7861499999999999  0.09189  1.0000
  C   C12       1.0  0.7578900000000002  0.7725299999999998  0.22323  1.0000
  C   C13       1.0  0.9879099999999998  0.5168  0.24565  1.0000
  C   C14       1.0  0.8648300000000003  0.4182  0.26269  1.0000
  C   C15       1.0  0.10164999999999998  0.27321  0.51575  1.0000
  C   C16       1.0  0.19951000000000005  0.33748  0.45369  1.0000
  C   C17       1.0  0.12266000000000002  0.88404  0.01537  1.0000
  C   C18       1.0  0.30933  0.9407899999999999  0.1145  1.0000
  C   C19       1.0  0.17256  0.5695299999999999  0.94132  1.0000
  C   C20       1.0  0.28990999999999995  0.6410099999999997  0.8932499999999999  1.0000
  C   C21       1.0  0.46974999999999995  0.7976199999999998  0.78107  1.0000
  C   C22       1.0  0.47164000000000006  0.58715  0.65611  1.0000
  C   C23       1.0  0.54428  0.32024  0.31008  1.0000
  C   C24       1.0  0.52857  0.53424  0.39098  1.0000
  C   C25       1.0  0.8373600000000001  0.14979000000000003  0.9339  1.0000
  C   C26       1.0  0.7001100000000001  0.10409000000000004  0.97241  1.0000
  C   C27       1.0  0.71966  0.41460999999999987  0.98222  1.0000
  C   C28       1.0  0.5764  0.2421199999999998  0.8162699999999999  1.0000
  C   C29       1.0  0.2954200000000001  0.9461099999999999  0.62465  1.0000
  C   C30       1.0  0.21770000000000006  0.12047999999999999  0.68222  1.0000
  C   C31       1.0  0.8345900000000003  0.11876  0.65598  1.0000
  C   C32       1.0  0.9350600000000001  0.9694199999999997  0.6031  1.0000
  N   N1        1.0  0.13471  0.30582  0.11467  1.0000
  N   N2        1.0  0.06996  0.27846000000000004  0.99862  1.0000
  N   N3        1.0  0.24741  0.28919  0.03126  1.0000
  N   N4        1.0  0.3424900000000002  0.27318999999999993  0.00989  1.0000
  N   N5        1.0  0.46775999999999995  0.1684899999999999  0.9486399999999999  1.0000
  N   N6        1.0  0.51333  0.31527999999999995  0.027369999999999995  1.0000
  N   N7        1.0  0.317  0.63011  0.19301999999999997  1.0000
  N   N8        1.0  0.24044000000000001  0.65424  0.24436  1.0000
  N   N9        1.0  0.3595200000000001  0.8567  0.33893  1.0000
  N   N10       1.0  0.41232000000000013  0.99919  0.41757999999999995  1.0000
  N   N11       1.0  0.4324400000000001  0.22910999999999995  0.53561  1.0000
  N   N12       1.0  0.5387100000000002  0.19708  0.56866  1.0000
  N   N13       1.0  0.9505400000000002  0.90404  0.10291999999999998  1.0000
  N   N14       1.0  0.8927200000000002  0.7802399999999997  0.9858499999999999  1.0000
  N   N15       1.0  0.79361  0.8202299999999998  0.08976  1.0000
  N   N16       1.0  0.7224  0.7964899999999999  0.13182  1.0000
  N   N17       1.0  0.57456  0.75923  0.15726  1.0000
  N   N18       1.0  0.6700800000000002  0.75062  0.2402  1.0000
  N   N19       1.0  0.85454  0.5534  0.30438  1.0000
  N   N20       1.0  0.9341700000000002  0.61802  0.29374  1.0000
  N   N21       1.0  0.9474900000000003  0.3898299999999999  0.22382  1.0000
  N   N22       1.0  0.20268000000000005  0.35572  0.55671  1.0000
  N   N23       1.0  0.10360000000000001  0.24771999999999997  0.35583  1.0000
  N   N24       1.0  0.03877999999999999  0.20688999999999996  0.39565999999999996  1.0000
  N   N25       1.0  0.15619000000000002  0.02283999999999998  0.09701999999999998  1.0000
  N   N26       1.0  0.27341000000000004  0.05942999999999999  0.15867  1.0000
  N   N27       1.0  0.21736000000000003  0.8276699999999999  0.02404  1.0000
  N   N28       1.0  0.22236  0.68714  0.95402  1.0000
  N   N29       1.0  0.20613  0.45768999999999976  0.8747999999999999  1.0000
  N   N30       1.0  0.28093  0.50373  0.84657  1.0000
  N   N31       1.0  0.4538100000000001  0.58499  0.74279  1.0000
  N   N32       1.0  0.4524100000000001  0.72373  0.82553  1.0000
  N   N33       1.0  0.4821900000000001  0.7182599999999999  0.67598  1.0000
  N   N34       1.0  0.4771900000000001  0.40646  0.35541  1.0000
  N   N35       1.0  0.62013  0.52617  0.36764  1.0000
  N   N36       1.0  0.63118  0.38611  0.31488  1.0000
  N   N37       1.0  0.8685800000000001  0.07544  0.98346  1.0000
  N   N38       1.0  0.7807900000000002  0.04464  0.00601  1.0000
  N   N39       1.0  0.7318900000000003  0.17033999999999982  0.92544  1.0000
  N   N40       1.0  0.6813700000000003  0.26804  0.90448  1.0000
  N   N41       1.0  0.64414  0.47477999999999987  0.94122  1.0000
  N   N42       1.0  0.55378  0.36589999999999995  0.8380399999999999  1.0000
  N   N43       1.0  0.3036100000000001  0.16090999999999991  0.66784  1.0000
  N   N44       1.0  0.35451  0.046159999999999944  0.62919  1.0000
  N   N45       1.0  0.2086  0.9862999999999997  0.65618  1.0000
  N   N46       1.0  0.94444  0.11040999999999998  0.67828  1.0000
  N   N47       1.0  0.8263000000000003  0.8963  0.53922  1.0000
  N   N48       1.0  0.7601500000000002  0.9932299999999998  0.57326  1.0000
