data_image0
_chemical_formula_structural       Eu4H26C48N6O24
_chemical_formula_sum              "Eu4 H26 C48 N6 O24"
_cell_length_a       10.56593
_cell_length_b       11.57017
_cell_length_c       14.7771
_cell_angle_alpha    111.92639
_cell_angle_beta     106.30277
_cell_angle_gamma    96.92963

_space_group_name_H-M_alt    "P 1"
_space_group_IT_number       1

loop_
  _space_group_symop_operation_xyz
  'x, y, z'

loop_
  _atom_site_type_symbol
  _atom_site_label
  _atom_site_symmetry_multiplicity
  _atom_site_fract_x
  _atom_site_fract_y
  _atom_site_fract_z
  _atom_site_occupancy
  Eu  Eu1       1.0  0.79251  0.14727000000000004  0.8854  1.0000
  Eu  Eu2       1.0  0.69807  0.98877  0.58247  1.0000
  Eu  Eu3       1.0  0.20764999999999995  0.8544999999999999  0.11409  1.0000
  Eu  Eu4       1.0  0.30387  0.012999999999999996  0.41694  1.0000
  H   H1        1.0  0.8542  0.64227  0.99887  1.0000
  H   H2        1.0  0.81886  0.4729499999999998  0.9337199999999999  1.0000
  H   H3        1.0  0.23563000000000003  0.8376  0.5039  1.0000
  H   H4        1.0  0.07155  0.85045  0.48902000000000007  1.0000
  H   H5        1.0  0.4247  0.4437399999999999  0.06401  1.0000
  H   H6        1.0  0.52517  0.346  0.00738  1.0000
  H   H7        1.0  0.65894  0.37326  0.57617  1.0000
  H   H8        1.0  0.79782  0.76986  0.91  1.0000
  H   H9        1.0  0.48237  0.15516  0.85522  1.0000
  H   H10       1.0  0.29589000000000004  0.20433999999999997  0.92467  1.0000
  H   H11       1.0  0.0031800000000000352  0.96811  0.61713  1.0000
  H   H12       1.0  0.9730700000000002  0.51502  0.2422  1.0000
  H   H13       1.0  0.52628  0.61974  0.23557  1.0000
  H   H14       1.0  0.12847  0.35356999999999994  0.00059  1.0000
  H   H15       1.0  0.16134999999999997  0.52716  0.06883  1.0000
  H   H16       1.0  0.76149  0.16573000000000007  0.4950300000000001  1.0000
  H   H17       1.0  0.9270800000000001  0.15799  0.51047  1.0000
  H   H18       1.0  0.58061  0.5524800000000001  0.9393400000000001  1.0000
  H   H19       1.0  0.4770400000000001  0.64798  0.9963100000000001  1.0000
  H   H20       1.0  0.35372  0.6299  0.42343  1.0000
  H   H21       1.0  0.19589  0.22943  0.08994  1.0000
  H   H22       1.0  0.51997  0.84325  0.145  1.0000
  H   H23       1.0  0.70835  0.797  0.07628  1.0000
  H   H24       1.0  0.99866  0.04096  0.38311  1.0000
  H   H25       1.0  0.031209999999999984  0.48229999999999995  0.7608  1.0000
  H   H26       1.0  0.47957000000000005  0.37987  0.76555  1.0000
  C   C1        1.0  0.7567499999999999  0.32236  0.74088  1.0000
  C   C2        1.0  0.73781  0.44983  0.74433  1.0000
  C   C3        1.0  0.69108  0.46037000000000006  0.6486400000000001  1.0000
  C   C4        1.0  0.69297  0.58102  0.65387  1.0000
  C   C5        1.0  0.72676  0.69431  0.74313  1.0000
  C   C6        1.0  0.76646  0.68312  0.8372100000000001  1.0000
  C   C7        1.0  0.7699  0.56241  0.83981  1.0000
  C   C8        1.0  0.72501  0.8231499999999999  0.74122  1.0000
  C   C9        1.0  0.46579000000000004  0.014910000000000088  0.66237  1.0000
  C   C10       1.0  0.34934  0.033209999999999976  0.69862  1.0000
  C   C11       1.0  0.37664000000000003  0.11453999999999993  0.80387  1.0000
  C   C12       1.0  0.27352  0.14387000000000003  0.84265  1.0000
  C   C13       1.0  0.13754  0.09252999999999999  0.77395  1.0000
  C   C14       1.0  0.10821  0.010989999999999977  0.66962  1.0000
  C   C15       1.0  0.21159000000000008  0.97732  0.6299100000000001  1.0000
  C   C16       1.0  0.02281000000000001  0.12092999999999994  0.81121  1.0000
  C   C17       1.0  0.72721  0.77442  0.41583000000000003  1.0000
  C   C18       1.0  0.73922  0.66916  0.32399  1.0000
  C   C19       1.0  0.86136  0.6393299999999998  0.3204  1.0000
  C   C20       1.0  0.87622  0.53921  0.24074  1.0000
  C   C21       1.0  0.75869  0.46221  0.15251  1.0000
  C   C22       1.0  0.63099  0.49405  0.14933  1.0000
  C   C23       1.0  0.62323  0.59633  0.23576  1.0000
  C   C24       1.0  0.7711300000000001  0.34831  0.06744  1.0000
  C   C25       1.0  0.24188  0.67949  0.25924  1.0000
  C   C26       1.0  0.26038  0.55189  0.25667  1.0000
  C   C27       1.0  0.31728  0.54251  0.35073  1.0000
  C   C28       1.0  0.32541999999999993  0.4226399999999999  0.34687  1.0000
  C   C29       1.0  0.28175  0.30746  0.25677  1.0000
  C   C30       1.0  0.23000000000000004  0.31610999999999995  0.16290999999999997  1.0000
  C   C31       1.0  0.21984  0.4367  0.16043  1.0000
  C   C32       1.0  0.28473000000000004  0.17826999999999998  0.25831  1.0000
  C   C33       1.0  0.53479  0.9851899999999999  0.33628  1.0000
  C   C34       1.0  0.6519499999999999  0.9689599999999999  0.30078  1.0000
  C   C35       1.0  0.62556  0.8863999999999999  0.196  1.0000
  C   C36       1.0  0.72942  0.8588099999999999  0.15782  1.0000
  C   C37       1.0  0.86515  0.91303  0.22666  1.0000
  C   C38       1.0  0.8938200000000001  0.99608  0.33052000000000004  1.0000
  C   C39       1.0  0.78939  0.027869999999999975  0.36964  1.0000
  C   C40       1.0  0.9794699999999998  0.88429  0.18902  1.0000
  C   C41       1.0  0.27769  0.22658999999999999  0.58424  1.0000
  C   C42       1.0  0.2664500000000001  0.3308099999999999  0.67718  1.0000
  C   C43       1.0  0.14421  0.3610999999999999  0.68096  1.0000
  C   C44       1.0  0.1286900000000001  0.45951000000000003  0.7621100000000001  1.0000
  C   C45       1.0  0.24562  0.53578  0.85002  1.0000
  C   C46       1.0  0.3741  0.50423  0.85266  1.0000
  C   C47       1.0  0.38227000000000005  0.4024699999999999  0.7653  1.0000
  C   C48       1.0  0.2327400000000001  0.6492399999999999  0.9357000000000001  1.0000
  N   N1        1.0  0.7976400000000001  0.55773  0.93513  1.0000
  N   N2        1.0  0.17335  0.89543  0.52458  1.0000
  N   N3        1.0  0.51674  0.42845  0.06223  1.0000
  N   N4        1.0  0.17424  0.4394199999999999  0.06651  1.0000
  N   N5        1.0  0.8260800000000001  0.11055999999999996  0.47454  1.0000
  N   N6        1.0  0.48743000000000014  0.56895  0.9389500000000001  1.0000
  O   O1        1.0  0.79353  0.31448999999999994  0.8288700000000001  1.0000
  O   O2        1.0  0.73858  0.2309299999999999  0.65402  1.0000
  O   O3        1.0  0.69266  0.8256999999999999  0.65291  1.0000
  O   O4        1.0  0.7563300000000001  0.9201500000000001  0.8293300000000001  1.0000
  O   O5        1.0  0.5877199999999999  0.06291000000000001  0.7286799999999999  1.0000
  O   O6        1.0  0.44458000000000003  0.95398  0.56478  1.0000
  O   O7        1.0  0.90088  0.07663000000000002  0.74484  1.0000
  O   O8        1.0  0.04524  0.18611999999999995  0.90844  1.0000
  O   O9        1.0  0.60886  0.78554  0.41552999999999995  1.0000
  O   O10       1.0  0.83681  0.8503999999999999  0.48989  1.0000
  O   O11       1.0  0.88822  0.33104  0.06911  1.0000
  O   O12       1.0  0.6610600000000001  0.26903  0.99294  1.0000
  O   O13       1.0  0.20435  0.6855499999999998  0.17077  1.0000
  O   O14       1.0  0.26265  0.77109  0.34622  1.0000
  O   O15       1.0  0.31885  0.17612999999999998  0.34658  1.0000
  O   O16       1.0  0.25043000000000004  0.08215000000000001  0.16941  1.0000
  O   O17       1.0  0.4131  0.93632  0.26947  1.0000
  O   O18       1.0  0.55527  0.045500000000000006  0.43382  1.0000
  O   O19       1.0  0.10178000000000001  0.92933  0.25541  1.0000
  O   O20       1.0  0.95646  0.81796  0.09209  1.0000
  O   O21       1.0  0.39547000000000004  0.21297  0.58544  1.0000
  O   O22       1.0  0.16781999999999997  0.15455999999999995  0.5087  1.0000
  O   O23       1.0  0.11572000000000005  0.66786  0.9317100000000001  1.0000
  O   O24       1.0  0.3426  0.72569  0.01188  1.0000
