data_image0
_chemical_formula_structural       Sm4H28C60O24
_chemical_formula_sum              "Sm4 H28 C60 O24"
_cell_length_a       13.53794
_cell_length_b       13.868599999999999
_cell_length_c       14.779750000000002
_cell_angle_alpha    94.97073999999999
_cell_angle_beta     90.04106999999999
_cell_angle_gamma    118.87468

_space_group_name_H-M_alt    "P 1"
_space_group_IT_number       1

loop_
  _space_group_symop_operation_xyz
  'x, y, z'

loop_
  _atom_site_type_symbol
  _atom_site_label
  _atom_site_symmetry_multiplicity
  _atom_site_fract_x
  _atom_site_fract_y
  _atom_site_fract_z
  _atom_site_occupancy
  Sm  Sm1       1.0  0.88301  0.34824  0.97908  1.0000
  Sm  Sm2       1.0  0.53443  0.65441  0.51944  1.0000
  Sm  Sm3       1.0  0.11775  0.65181  0.02027  1.0000
  Sm  Sm4       1.0  0.46594000000000013  0.3482  0.48071  1.0000
  H   H1        1.0  0.33965  0.99635  0.88295  1.0000
  H   H2        1.0  0.37404  0.17509999999999998  0.8285  1.0000
  H   H3        1.0  0.03701  0.10282  0.89527  1.0000
  H   H4        1.0  0.0038500000000000014  0.92399  0.94765  1.0000
  H   H5        1.0  0.33321  0.26182  0.72322  1.0000
  H   H6        1.0  0.3177  0.56365  0.78677  1.0000
  H   H7        1.0  0.13074000000000005  0.28591  0.9406  1.0000
  H   H8        1.0  0.3403900000000001  0.9992699999999999  0.61839  1.0000
  H   H9        1.0  0.19659999999999997  0.82179  0.6716300000000001  1.0000
  H   H10       1.0  0.9355300000000002  0.9004900000000001  0.6029800000000002  1.0000
  H   H11       1.0  0.08093000000000002  0.07844  0.55219  1.0000
  H   H12       1.0  0.07102000000000003  0.7378  0.7757700000000002  1.0000
  H   H13       1.0  0.7562000000000002  0.4380299999999999  0.71387  1.0000
  H   H14       1.0  0.8456300000000002  0.71516  0.55749  1.0000
  H   H15       1.0  0.6604200000000002  0.003960000000000004  0.11696000000000002  1.0000
  H   H16       1.0  0.6260900000000003  0.82517  0.17136  1.0000
  H   H17       1.0  0.9632900000000002  0.89761  0.10457  1.0000
  H   H18       1.0  0.9963800000000003  0.0765  0.0522  1.0000
  H   H19       1.0  0.6670400000000001  0.7396100000000001  0.2766  1.0000
  H   H20       1.0  0.68214  0.43727  0.21364  1.0000
  H   H21       1.0  0.8693000000000003  0.7141700000000001  0.05927000000000002  1.0000
  H   H22       1.0  0.6594400000000002  0.0001399999999999978  0.38162  1.0000
  H   H23       1.0  0.80297  0.17783  0.32848  1.0000
  H   H24       1.0  0.06479000000000001  0.09982  0.39696  1.0000
  H   H25       1.0  0.9197700000000002  0.92185  0.44802000000000003  1.0000
  H   H26       1.0  0.9285900000000002  0.26213  0.22402000000000005  1.0000
  H   H27       1.0  0.24376000000000006  0.56147  0.2861  1.0000
  H   H28       1.0  0.154  0.28393  0.44205  1.0000
  C   C1        1.0  0.15578000000000003  0.8521100000000001  0.96358  1.0000
  C   C2        1.0  0.17087  0.95095  0.92113  1.0000
  C   C3        1.0  0.27403  0.020260000000000007  0.8842800000000001  1.0000
  C   C4        1.0  0.29218  0.11934  0.85361  1.0000
  C   C5        1.0  0.20833000000000004  0.15167  0.8596400000000002  1.0000
  C   C6        1.0  0.10319  0.07924  0.89229  1.0000
  C   C7        1.0  0.08488000000000001  0.97989  0.92221  1.0000
  C   C8        1.0  0.23173  0.26152  0.83578  1.0000
  C   C9        1.0  0.3019100000000001  0.30931  0.7647400000000002  1.0000
  C   C10       1.0  0.33164  0.41713000000000006  0.74572  1.0000
  C   C11       1.0  0.29249000000000014  0.47870000000000007  0.79892  1.0000
  C   C12       1.0  0.21890000000000007  0.42997  0.86801  1.0000
  C   C13       1.0  0.18703  0.32148  0.88562  1.0000
  C   C14       1.0  0.17892  0.49683  0.92485  1.0000
  C   C15       1.0  0.40505  0.4622200000000001  0.6678000000000002  1.0000
  C   C16       1.0  0.3030100000000001  0.1465  0.53631  1.0000
  C   C17       1.0  0.21928999999999998  0.047949999999999986  0.57876  1.0000
  C   C18       1.0  0.25172  0.97714  0.61583  1.0000
  C   C19       1.0  0.17099999999999993  0.8782199999999999  0.64591  1.0000
  C   C20       1.0  0.05581000000000006  0.84789  0.63875  1.0000
  C   C21       1.0  0.024320000000000005  0.92182  0.6061800000000003  1.0000
  C   C22       1.0  0.10533000000000002  0.02125000000000001  0.57723  1.0000
  C   C23       1.0  0.96999  0.73847  0.66232  1.0000
  C   C24       1.0  0.9928700000000005  0.69101  0.7337  1.0000
  C   C25       1.0  0.9155000000000002  0.58373  0.75335  1.0000
  C   C26       1.0  0.8150600000000001  0.52244  0.7003500000000003  1.0000
  C   C27       1.0  0.78983  0.57069  0.63069  1.0000
  C   C28       1.0  0.8659600000000001  0.6788  0.61241  1.0000
  C   C29       1.0  0.68253  0.50428  0.57484  1.0000
  C   C30       1.0  0.9443800000000003  0.5400100000000001  0.8322900000000002  1.0000
  C   C31       1.0  0.8440300000000001  0.14802  0.03651  1.0000
  C   C32       1.0  0.8292200000000002  0.04923  0.07886  1.0000
  C   C33       1.0  0.7259800000000001  0.97997  0.11559000000000001  1.0000
  C   C34       1.0  0.70793  0.88097  0.1462  1.0000
  C   C35       1.0  0.7919900000000002  0.84889  0.13999000000000003  1.0000
  C   C36       1.0  0.8971600000000002  0.92126  0.10745  1.0000
  C   C37       1.0  0.9153800000000001  0.02055  0.07761  1.0000
  C   C38       1.0  0.7687100000000002  0.73928  0.16397  1.0000
  C   C39       1.0  0.6985800000000001  0.69209  0.23516  1.0000
  C   C40       1.0  0.66886  0.58433  0.2541  1.0000
  C   C41       1.0  0.7077399999999999  0.5222299999999999  0.20106  1.0000
  C   C42       1.0  0.78118  0.57031  0.13184  1.0000
  C   C43       1.0  0.81313  0.67887  0.11431  1.0000
  C   C44       1.0  0.82094  0.50308  0.07508  1.0000
  C   C45       1.0  0.5954300000000001  0.53854  0.3318  1.0000
  C   C46       1.0  0.6980800000000001  0.8537499999999999  0.46373  1.0000
  C   C47       1.0  0.7814500000000003  0.9519300000000002  0.42115  1.0000
  C   C48       1.0  0.7481800000000002  0.022349999999999988  0.38419  1.0000
  C   C49       1.0  0.8286400000000002  0.12137999999999999  0.35416  1.0000
  C   C50       1.0  0.9439000000000002  0.15188  0.36125  1.0000
  C   C51       1.0  0.9759700000000002  0.07831  0.3937100000000001  1.0000
  C   C52       1.0  0.89537  0.97893  0.42281000000000013  1.0000
  C   C53       1.0  0.029649999999999992  0.26105  0.33739  1.0000
  C   C54       1.0  0.00672999999999999  0.30867  0.26614  1.0000
  C   C55       1.0  0.08409  0.41587  0.24645  1.0000
  C   C56       1.0  0.1847600000000001  0.47692000000000007  0.29918  1.0000
  C   C57       1.0  0.21005000000000004  0.42829  0.36844000000000005  1.0000
  C   C58       1.0  0.13386000000000003  0.32033  0.387  1.0000
  C   C59       1.0  0.31658  0.49418  0.42491  1.0000
  C   C60       1.0  0.055139999999999995  0.45995  0.16781000000000004  1.0000
  O   O1        1.0  0.23383999999999996  0.8241099999999999  0.9597600000000002  1.0000
  O   O2        1.0  0.06558000000000007  0.7947300000000002  0.00587  1.0000
  O   O3        1.0  0.07893  0.44856000000000007  0.9558500000000001  1.0000
  O   O4        1.0  0.24380000000000004  0.60037  0.9416600000000002  1.0000
  O   O5        1.0  0.43300000000000005  0.5593099999999998  0.64581  1.0000
  O   O6        1.0  0.43552  0.39740999999999993  0.62636  1.0000
  O   O7        1.0  0.4083  0.17230999999999996  0.53861  1.0000
  O   O8        1.0  0.27032000000000006  0.20509  0.49541  1.0000
  O   O9        1.0  0.63067  0.55297  0.54467  1.0000
  O   O10       1.0  0.6434300000000002  0.4002899999999999  0.5582600000000002  1.0000
  O   O11       1.0  0.8776500000000003  0.44211  0.85345  1.0000
  O   O12       1.0  0.03773000000000002  0.60674  0.87505  1.0000
  O   O13       1.0  0.7659200000000003  0.17565  0.04019  1.0000
  O   O14       1.0  0.93439  0.20535  0.99423  1.0000
  O   O15       1.0  0.9210300000000002  0.55152  0.04415  1.0000
  O   O16       1.0  0.7562500000000002  0.3995099999999999  0.05817  1.0000
  O   O17       1.0  0.56583  0.4403  0.35044  1.0000
  O   O18       1.0  0.5668500000000002  0.60414  0.3755000000000001  1.0000
  O   O19       1.0  0.5931800000000002  0.8285399999999999  0.46074  1.0000
  O   O20       1.0  0.7296100000000001  0.7944100000000001  0.50516  1.0000
  O   O21       1.0  0.36769000000000013  0.44418  0.45445  1.0000
  O   O22       1.0  0.35513  0.59757  0.44338  1.0000
  O   O23       1.0  0.12235999999999998  0.55769  0.14667  1.0000
  O   O24       1.0  0.9615300000000002  0.39366  0.12516  1.0000
