data_image0
_chemical_formula_structural       Cu10H34C48N40
_chemical_formula_sum              "Cu10 H34 C48 N40"
_cell_length_a       10.74873
_cell_length_b       12.149770000000002
_cell_length_c       15.27862
_cell_angle_alpha    97.02204
_cell_angle_beta     99.25462
_cell_angle_gamma    105.62899

_symmetry_space_group_name_H-M    'P 1'
_symmetry_Int_Tables_number       1

loop_
  _symmetry_equiv_pos_as_xyz
  'x,y,z'

loop_
  _atom_site_type_symbol
  _atom_site_label
  _atom_site_symmetry_multiplicity
  _atom_site_fract_x
  _atom_site_fract_y
  _atom_site_fract_z
  _atom_site_occupancy
  Cu  Cu1       1.0  0.85055  0.72368  0.12832  1.0000
  Cu  Cu2       1.0  0.57691  0.49698  0.12067  1.0000
  Cu  Cu3       1.0  0.9989400000000002  0.32658  0.0435  1.0000
  Cu  Cu4       1.0  0.28202  0.57256  0.03922  1.0000
  Cu  Cu5       1.0  0.61206  0.59036  0.50113  1.0000
  Cu  Cu6       1.0  0.14945  0.27633  0.87168  1.0000
  Cu  Cu7       1.0  0.42309  0.5030199999999999  0.87933  1.0000
  Cu  Cu8       1.0  0.0010700000000000104  0.67343  0.9565  1.0000
  Cu  Cu9       1.0  0.71798  0.42744  0.96078  1.0000
  Cu  Cu10      1.0  0.38794  0.40964  0.49887000000000004  1.0000
  H   H1        1.0  0.60079  0.98654  0.23794  1.0000
  H   H2        1.0  0.61852  0.29477  0.13902  1.0000
  H   H3        1.0  0.72915  0.15519  0.19545  1.0000
  H   H4        1.0  0.37357  0.94519  0.24266000000000004  1.0000
  H   H5        1.0  0.25157  0.07956  0.18828  1.0000
  H   H6        1.0  0.25418999999999997  0.7651299999999999  0.39316  1.0000
  H   H7        1.0  0.42637  0.7323  0.50755  1.0000
  H   H8        1.0  0.54718  0.53783  0.31062  1.0000
  H   H9        1.0  0.3800200000000001  0.56312  0.19145  1.0000
  H   H10       1.0  0.08763  0.30177  0.20208  1.0000
  H   H11       1.0  0.27001000000000003  0.29639  0.31903  1.0000
  H   H12       1.0  0.17839999999999995  0.52654  0.50714  1.0000
  H   H13       1.0  0.9943500000000001  0.54407  0.39439  1.0000
  H   H14       1.0  0.57229  0.98959  0.9791200000000002  1.0000
  H   H15       1.0  0.90525  0.9202399999999998  0.13721  1.0000
  H   H16       1.0  0.04452  0.10811  0.11162  1.0000
  H   H17       1.0  0.7218000000000001  0.17712000000000003  0.9661800000000001  1.0000
  H   H18       1.0  0.39921  0.013460000000000005  0.76206  1.0000
  H   H19       1.0  0.38148  0.7052299999999999  0.8609800000000002  1.0000
  H   H20       1.0  0.27085000000000004  0.84481  0.8045500000000001  1.0000
  H   H21       1.0  0.62643  0.05480999999999999  0.75734  1.0000
  H   H22       1.0  0.74843  0.92045  0.81172  1.0000
  H   H23       1.0  0.7458100000000001  0.23487  0.6068500000000001  1.0000
  H   H24       1.0  0.57364  0.2677  0.49246  1.0000
  H   H25       1.0  0.45283000000000023  0.46218  0.6893900000000002  1.0000
  H   H26       1.0  0.6199800000000002  0.43688000000000005  0.8085600000000001  1.0000
  H   H27       1.0  0.9123800000000001  0.69824  0.7979300000000003  1.0000
  H   H28       1.0  0.72999  0.70362  0.68097  1.0000
  H   H29       1.0  0.8216000000000001  0.47346  0.4928600000000001  1.0000
  H   H30       1.0  0.005649999999999953  0.4559299999999999  0.60561  1.0000
  H   H31       1.0  0.42772  0.010419999999999999  0.02088  1.0000
  H   H32       1.0  0.09475  0.07976  0.86279  1.0000
  H   H33       1.0  0.9554800000000001  0.89189  0.88838  1.0000
  H   H34       1.0  0.2782  0.8228899999999999  0.03382  1.0000
  C   C1        1.0  0.35437  0.27718  0.12574  1.0000
  C   C2        1.0  0.42515  0.20271  0.16126  1.0000
  C   C3        1.0  0.56278  0.22127999999999995  0.16401  1.0000
  C   C4        1.0  0.62538  0.14498  0.19407  1.0000
  C   C5        1.0  0.42172  0.02459  0.22058  1.0000
  C   C6        1.0  0.35708  0.09988999999999999  0.19083  1.0000
  C   C7        1.0  0.19589  0.67575  0.21305  1.0000
  C   C8        1.0  0.30045999999999995  0.66589  0.28095  1.0000
  C   C9        1.0  0.31758000000000003  0.7146999999999999  0.37278  1.0000
  C   C10       1.0  0.4129399999999999  0.6965599999999998  0.43666  1.0000
  C   C11       1.0  0.4805599999999999  0.5872999999999999  0.3268  1.0000
  C   C12       1.0  0.3874  0.60243  0.26031  1.0000
  C   C13       1.0  0.9232300000000001  0.43859999999999993  0.21737000000000006  1.0000
  C   C14       1.0  0.026460000000000008  0.42709  0.28635  1.0000
  C   C15       1.0  0.10568000000000001  0.35494  0.2679  1.0000
  C   C16       1.0  0.20799  0.35103  0.33339  1.0000
  C   C17       1.0  0.15646  0.47961  0.43847  1.0000
  C   C18       1.0  0.05285  0.48795999999999995  0.37557  1.0000
  C   C19       1.0  0.63781  0.82861  0.07279000000000001  1.0000
  C   C20       1.0  0.7232  0.9387899999999999  0.06192000000000001  1.0000
  C   C21       1.0  0.67499  0.01373  0.01248  1.0000
  C   C22       1.0  0.76003  0.11846  0.003510000000000001  1.0000
  C   C23       1.0  0.93845  0.07945  0.08594  1.0000
  C   C24       1.0  0.85987  0.97452  0.09884  1.0000
  C   C25       1.0  0.64564  0.72282  0.87427  1.0000
  C   C26       1.0  0.57485  0.7973  0.83875  1.0000
  C   C27       1.0  0.43722000000000005  0.77872  0.8359900000000002  1.0000
  C   C28       1.0  0.37462000000000006  0.85502  0.8059300000000003  1.0000
  C   C29       1.0  0.5782799999999999  0.9754099999999998  0.7794300000000002  1.0000
  C   C30       1.0  0.64293  0.9001099999999999  0.80917  1.0000
  C   C31       1.0  0.80411  0.32425000000000004  0.7869500000000003  1.0000
  C   C32       1.0  0.69954  0.33411  0.71905  1.0000
  C   C33       1.0  0.68243  0.2853  0.62722  1.0000
  C   C34       1.0  0.58706  0.30345  0.56334  1.0000
  C   C35       1.0  0.51944  0.41271  0.6732  1.0000
  C   C36       1.0  0.6126  0.39756999999999987  0.7397  1.0000
  C   C37       1.0  0.07677  0.5614  0.78263  1.0000
  C   C38       1.0  0.97354  0.5729199999999998  0.71366  1.0000
  C   C39       1.0  0.89433  0.64507  0.7321  1.0000
  C   C40       1.0  0.79201  0.64897  0.66661  1.0000
  C   C41       1.0  0.8435400000000001  0.52039  0.56153  1.0000
  C   C42       1.0  0.94715  0.51205  0.62444  1.0000
  C   C43       1.0  0.36219  0.17139  0.92721  1.0000
  C   C44       1.0  0.2768100000000001  0.061210000000000035  0.9380800000000002  1.0000
  C   C45       1.0  0.32501  0.98628  0.98752  1.0000
  C   C46       1.0  0.2399700000000001  0.88154  0.9965  1.0000
  C   C47       1.0  0.06154999999999999  0.9205599999999998  0.9140600000000002  1.0000
  C   C48       1.0  0.14013000000000006  0.02548000000000003  0.9011600000000001  1.0000
  N   N1        1.0  0.68206  0.7426699999999998  0.1033  1.0000
  N   N2        1.0  0.5731600000000001  0.65354  0.10047  1.0000
  N   N3        1.0  0.46763  0.6858599999999999  0.06929  1.0000
  N   N4        1.0  0.50452  0.7943299999999999  0.05251  1.0000
  N   N5        1.0  0.89089  0.15326  0.03994  1.0000
  N   N6        1.0  0.40358  0.38527  0.10491  1.0000
  N   N7        1.0  0.29531  0.41793  0.0718  1.0000
  N   N8        1.0  0.18776  0.33302999999999994  0.07332  1.0000
  N   N9        1.0  0.22057  0.24528  0.10597  1.0000
  N   N10       1.0  0.55624  0.0478  0.22373  1.0000
  N   N11       1.0  0.067  0.66093  0.08533  1.0000
  N   N12       1.0  0.019449999999999978  0.70708  0.15201  1.0000
  N   N13       1.0  0.09740999999999993  0.7184199999999997  0.23224  1.0000
  N   N14       1.0  0.17860999999999996  0.64038  0.12212  1.0000
  N   N15       1.0  0.49437999999999993  0.63153  0.41615  1.0000
  N   N16       1.0  0.9130300000000001  0.41091  0.12644  1.0000
  N   N17       1.0  0.80552  0.4378699999999999  0.0887  1.0000
  N   N18       1.0  0.75305  0.47959999999999997  0.15483000000000005  1.0000
  N   N19       1.0  0.82421  0.48109  0.23553000000000004  1.0000
  N   N20       1.0  0.23681  0.4130399999999999  0.41921  1.0000
  N   N21       1.0  0.31794  0.25733  0.8967  1.0000
  N   N22       1.0  0.42685000000000006  0.34645999999999993  0.8995300000000003  1.0000
  N   N23       1.0  0.5323699999999999  0.3141399999999999  0.93071  1.0000
  N   N24       1.0  0.4954800000000001  0.20567  0.9475  1.0000
  N   N25       1.0  0.10912  0.84674  0.9600600000000002  1.0000
  N   N26       1.0  0.59642  0.61473  0.8951000000000002  1.0000
  N   N27       1.0  0.7047  0.58207  0.9282  1.0000
  N   N28       1.0  0.8122400000000001  0.66697  0.9266800000000001  1.0000
  N   N29       1.0  0.77943  0.75472  0.8940300000000002  1.0000
  N   N30       1.0  0.4437599999999999  0.9522  0.77627  1.0000
  N   N31       1.0  0.933  0.33907  0.91468  1.0000
  N   N32       1.0  0.98056  0.29291999999999996  0.8479900000000002  1.0000
  N   N33       1.0  0.90259  0.28158  0.76776  1.0000
  N   N34       1.0  0.82139  0.35962  0.87788  1.0000
  N   N35       1.0  0.50563  0.36846999999999996  0.58386  1.0000
  N   N36       1.0  0.08698000000000004  0.58909  0.8735700000000002  1.0000
  N   N37       1.0  0.19448  0.56214  0.9113  1.0000
  N   N38       1.0  0.24695  0.5204  0.84518  1.0000
  N   N39       1.0  0.1758000000000001  0.51892  0.7644700000000002  1.0000
  N   N40       1.0  0.76319  0.58696  0.5807900000000001  1.0000
