data_image0
_chemical_formula_structural       Cu4H64C64S8Br4
_chemical_formula_sum              "Cu4 H64 C64 S8 Br4"
_cell_length_a       6.96629
_cell_length_b       12.19177
_cell_length_c       20.828549999999996
_cell_angle_alpha    90.00178999999999
_cell_angle_beta     90.00403999999999
_cell_angle_gamma    89.99552000000001

_symmetry_space_group_name_H-M    'P 1'
_symmetry_Int_Tables_number       1

loop_
  _symmetry_equiv_pos_as_xyz
  'x,y,z'

loop_
  _atom_site_type_symbol
  _atom_site_label
  _atom_site_symmetry_multiplicity
  _atom_site_fract_x
  _atom_site_fract_y
  _atom_site_fract_z
  _atom_site_occupancy
  Cu  Cu1       1.0  0.25668  0.3373099999999999  0.25  1.0000
  Cu  Cu2       1.0  0.24363  0.8366399999999999  0.75001  1.0000
  Cu  Cu3       1.0  0.7433200000000001  0.66268  0.75  1.0000
  Cu  Cu4       1.0  0.75637  0.16335  0.24998999999999996  1.0000
  H   H1        1.0  0.46986  0.24135999999999996  0.51328  1.0000
  H   H2        1.0  0.62392  0.3201  0.60977  1.0000
  H   H3        1.0  0.8604200000000001  0.57874  0.49458  1.0000
  H   H4        1.0  0.71522  0.49713  0.39747  1.0000
  H   H5        1.0  0.35772  0.26567  0.40567  1.0000
  H   H6        1.0  0.56678  0.27274999999999994  0.35782  1.0000
  H   H7        1.0  0.10978  0.53936  0.34693  1.0000
  H   H8        1.0  0.07506  0.42006  0.39363  1.0000
  H   H9        1.0  0.03011  0.7413599999999999  0.48667  1.0000
  H   H10       1.0  0.8761300000000001  0.82015  0.39019  1.0000
  H   H11       1.0  0.6396  0.07878  0.5054  1.0000
  H   H12       1.0  0.78472  0.9971  0.6025  1.0000
  H   H13       1.0  0.14217  0.76557  0.59428  1.0000
  H   H14       1.0  0.9331  0.7726399999999998  0.64212  1.0000
  H   H15       1.0  0.39005  0.03925  0.65312  1.0000
  H   H16       1.0  0.42488  0.9199699999999997  0.6064  1.0000
  H   H17       1.0  0.53014  0.7586399999999998  0.01329  1.0000
  H   H18       1.0  0.37607  0.67991  0.10977  1.0000
  H   H19       1.0  0.13956  0.42125  0.99456  1.0000
  H   H20       1.0  0.28476  0.50287  0.8974700000000001  1.0000
  H   H21       1.0  0.64228  0.73432  0.90569  1.0000
  H   H22       1.0  0.43322  0.7272499999999997  0.8578399999999999  1.0000
  H   H23       1.0  0.8902  0.46063  0.84694  1.0000
  H   H24       1.0  0.92493  0.57993  0.89365  1.0000
  H   H25       1.0  0.96987  0.25863  0.98668  1.0000
  H   H26       1.0  0.12386  0.17983  0.89019  1.0000
  H   H27       1.0  0.36042  0.9212099999999999  0.00541  1.0000
  H   H28       1.0  0.21529  0.00289  0.10249999999999998  1.0000
  H   H29       1.0  0.85782  0.23441  0.09427  1.0000
  H   H30       1.0  0.06691  0.22735999999999998  0.14212  1.0000
  H   H31       1.0  0.60996  0.96075  0.15311  1.0000
  H   H32       1.0  0.5751200000000001  0.08002  0.10639  1.0000
  H   H33       1.0  0.53014  0.75863  0.48672  1.0000
  H   H34       1.0  0.37607  0.67989  0.39023  1.0000
  H   H35       1.0  0.13957  0.42125  0.50542  1.0000
  H   H36       1.0  0.28478  0.50287  0.60253  1.0000
  H   H37       1.0  0.64227  0.73432  0.59433  1.0000
  H   H38       1.0  0.43321  0.7272399999999998  0.64218  1.0000
  H   H39       1.0  0.89022  0.46063  0.65307  1.0000
  H   H40       1.0  0.92493  0.57994  0.60637  1.0000
  H   H41       1.0  0.96989  0.25864  0.51333  1.0000
  H   H42       1.0  0.12386  0.17984  0.60981  1.0000
  H   H43       1.0  0.3604  0.9212099999999999  0.4946  1.0000
  H   H44       1.0  0.21528  0.0028999999999999994  0.3975000000000001  1.0000
  H   H45       1.0  0.85782  0.23442  0.40571999999999997  1.0000
  H   H46       1.0  0.0669  0.22735999999999998  0.35788  1.0000
  H   H47       1.0  0.60995  0.96075  0.34688  1.0000
  H   H48       1.0  0.5751100000000001  0.08002  0.39360000000000006  1.0000
  H   H49       1.0  0.46986  0.24135999999999996  0.98671  1.0000
  H   H50       1.0  0.62393  0.32009  0.89023  1.0000
  H   H51       1.0  0.86044  0.57874  0.00544  1.0000
  H   H52       1.0  0.71524  0.49713  0.10253  1.0000
  H   H53       1.0  0.35772  0.26567  0.09431  1.0000
  H   H54       1.0  0.56678  0.27274  0.14216  1.0000
  H   H55       1.0  0.10979000000000001  0.53936  0.15306  1.0000
  H   H56       1.0  0.07506  0.42006  0.10635  1.0000
  H   H57       1.0  0.03012  0.7413699999999999  0.013320000000000002  1.0000
  H   H58       1.0  0.87614  0.82016  0.10980999999999999  1.0000
  H   H59       1.0  0.63958  0.07878  0.9945899999999999  1.0000
  H   H60       1.0  0.78471  0.99711  0.8974899999999999  1.0000
  H   H61       1.0  0.14217  0.7655799999999999  0.9057300000000001  1.0000
  H   H62       1.0  0.93309  0.77263  0.8578799999999999  1.0000
  H   H63       1.0  0.39003  0.03924  0.8468899999999999  1.0000
  H   H64       1.0  0.42488  0.9199699999999997  0.89361  1.0000
  C   C1        1.0  0.56191  0.3131  0.50849  1.0000
  C   C2        1.0  0.64818  0.35785  0.56307  1.0000
  C   C3        1.0  0.75394  0.45541  0.55893  1.0000
  C   C4        1.0  0.77962  0.5029899999999999  0.49839999999999995  1.0000
  C   C5        1.0  0.69848  0.45687  0.4437  1.0000
  C   C6        1.0  0.58248  0.36355  0.4482  1.0000
  C   C7        1.0  0.47459  0.32017  0.39074  1.0000
  C   C8        1.0  0.17802  0.48506  0.38231  1.0000
  C   C9        1.0  0.93805  0.8130999999999999  0.49145999999999995  1.0000
  C   C10       1.0  0.85184  0.8578899999999998  0.43688  1.0000
  C   C11       1.0  0.74612  0.95548  0.44102  1.0000
  C   C12       1.0  0.7204  0.00302  0.50157  1.0000
  C   C13       1.0  0.80147  0.95685  0.55628  1.0000
  C   C14       1.0  0.91745  0.8635099999999999  0.55176  1.0000
  C   C15       1.0  0.02532  0.82007  0.60923  1.0000
  C   C16       1.0  0.32186000000000003  0.9849499999999998  0.61772  1.0000
  C   C17       1.0  0.4381  0.68689  0.0085  1.0000
  C   C18       1.0  0.35182  0.6421499999999999  0.06307  1.0000
  C   C19       1.0  0.24607  0.54458  0.05893  1.0000
  C   C20       1.0  0.22038  0.49699999999999994  0.99839  1.0000
  C   C21       1.0  0.30152000000000007  0.54312  0.94369  1.0000
  C   C22       1.0  0.41753000000000007  0.63644  0.9482099999999999  1.0000
  C   C23       1.0  0.52541  0.6798299999999999  0.89075  1.0000
  C   C24       1.0  0.8219700000000001  0.51493  0.88233  1.0000
  C   C25       1.0  0.06194  0.18688999999999997  0.9914699999999999  1.0000
  C   C26       1.0  0.14815000000000003  0.1421  0.9368899999999999  1.0000
  C   C27       1.0  0.25388  0.04452  0.94103  1.0000
  C   C28       1.0  0.27961  0.99698  0.00157  1.0000
  C   C29       1.0  0.19853  0.043139999999999984  0.05628  1.0000
  C   C30       1.0  0.08255  0.13648  0.05177  1.0000
  C   C31       1.0  0.97468  0.17992  0.10922999999999998  1.0000
  C   C32       1.0  0.67814  0.015049999999999997  0.11772000000000002  1.0000
  C   C33       1.0  0.43808  0.68689  0.49151  1.0000
  C   C34       1.0  0.35181  0.64214  0.43693  1.0000
  C   C35       1.0  0.24606  0.54458  0.44107  1.0000
  C   C36       1.0  0.22038  0.49699999999999994  0.5016  1.0000
  C   C37       1.0  0.30152000000000007  0.54313  0.5563  1.0000
  C   C38       1.0  0.41752000000000006  0.63645  0.55179  1.0000
  C   C39       1.0  0.52541  0.6798299999999999  0.60926  1.0000
  C   C40       1.0  0.82198  0.51493  0.61768  1.0000
  C   C41       1.0  0.06194  0.18688999999999997  0.50854  1.0000
  C   C42       1.0  0.14815000000000003  0.1421  0.56312  1.0000
  C   C43       1.0  0.25387  0.04452  0.55898  1.0000
  C   C44       1.0  0.2796  0.99698  0.49843  1.0000
  C   C45       1.0  0.19852  0.043139999999999984  0.44372000000000006  1.0000
  C   C46       1.0  0.08254000000000002  0.13649  0.44824  1.0000
  C   C47       1.0  0.97467  0.17992  0.39077  1.0000
  C   C48       1.0  0.67813  0.015049999999999997  0.38228  1.0000
  C   C49       1.0  0.5619  0.3131  0.9915  1.0000
  C   C50       1.0  0.64817  0.35784  0.93693  1.0000
  C   C51       1.0  0.75392  0.45541  0.94107  1.0000
  C   C52       1.0  0.77962  0.5029899999999999  0.00161  1.0000
  C   C53       1.0  0.69848  0.45687  0.05631  1.0000
  C   C54       1.0  0.58247  0.36355  0.05179  1.0000
  C   C55       1.0  0.47458  0.32016  0.10925  1.0000
  C   C56       1.0  0.17802  0.48506  0.11767  1.0000
  C   C57       1.0  0.93806  0.8131099999999999  0.00853  1.0000
  C   C58       1.0  0.85185  0.8578899999999998  0.06311  1.0000
  C   C59       1.0  0.74612  0.95548  0.058969999999999995  1.0000
  C   C60       1.0  0.72039  0.00302  0.9984299999999999  1.0000
  C   C61       1.0  0.80147  0.95686  0.94372  1.0000
  C   C62       1.0  0.91745  0.8635199999999998  0.94823  1.0000
  C   C63       1.0  0.02532  0.82008  0.89077  1.0000
  C   C64       1.0  0.32186000000000003  0.9849499999999998  0.88228  1.0000
  S   S1        1.0  0.37922  0.42548  0.33643  1.0000
  S   S2        1.0  0.12077  0.92524  0.66362  1.0000
  S   S3        1.0  0.62078  0.57453  0.83643  1.0000
  S   S4        1.0  0.87925  0.07475  0.16362  1.0000
  S   S5        1.0  0.62078  0.57452  0.66357  1.0000
  S   S6        1.0  0.87923  0.07475  0.33638  1.0000
  S   S7        1.0  0.37922  0.42547  0.16357  1.0000
  S   S8        1.0  0.12074  0.92525  0.83638  1.0000
  Br  Br1       1.0  0.88014  0.3566299999999999  0.25  1.0000
  Br  Br2       1.0  0.6196500000000001  0.8563299999999999  0.75  1.0000
  Br  Br3       1.0  0.11986  0.64336  0.75  1.0000
  Br  Br4       1.0  0.38035  0.14366  0.25  1.0000
