data_image0
_chemical_formula_structural       Y4Ag4H32C56N8O32
_chemical_formula_sum              "Y4 Ag4 H32 C56 N8 O32"
_cell_length_a       9.52748
_cell_length_b       12.071859999999997
_cell_length_c       16.6875
_cell_angle_alpha    96.44743
_cell_angle_beta     90.01052999999999
_cell_angle_gamma    113.23409

_symmetry_space_group_name_H-M    'P 1'
_symmetry_Int_Tables_number       1

loop_
  _symmetry_equiv_pos_as_xyz
  'x,y,z'

loop_
  _atom_site_type_symbol
  _atom_site_label
  _atom_site_symmetry_multiplicity
  _atom_site_fract_x
  _atom_site_fract_y
  _atom_site_fract_z
  _atom_site_occupancy
  Y   Y1        1.0  0.30225  0.009170000000000003  0.43287  1.0000
  Y   Y2        1.0  0.7068  0.008959999999999985  0.93312  1.0000
  Y   Y3        1.0  0.6977599999999999  0.9908300000000001  0.56712  1.0000
  Y   Y4        1.0  0.29319999999999996  0.9910399999999999  0.06688  1.0000
  Ag  Ag1       1.0  0.71854  0.68156  0.41742  1.0000
  Ag  Ag2       1.0  0.03676000000000001  0.31821  0.08274  1.0000
  Ag  Ag3       1.0  0.28147  0.3184399999999999  0.58257  1.0000
  Ag  Ag4       1.0  0.96325  0.68179  0.91725  1.0000
  H   H1        1.0  0.09307  0.19934  0.72308  1.0000
  H   H2        1.0  0.87867  0.91209  0.16442  1.0000
  H   H3        1.0  0.76214  0.71054  0.05189  1.0000
  H   H4        1.0  0.12133000000000001  0.08791  0.83558  1.0000
  H   H5        1.0  0.59495  0.18988  0.7802400000000003  1.0000
  H   H6        1.0  0.59503  0.18955  0.28047  1.0000
  H   H7        1.0  0.12992  0.644  0.37882  1.0000
  H   H8        1.0  0.23787  0.28946  0.9481100000000001  1.0000
  H   H9        1.0  0.24835999999999997  0.69584  0.82584  1.0000
  H   H10       1.0  0.96683  0.08761999999999998  0.33568  1.0000
  H   H11       1.0  0.40506  0.81012  0.21976000000000007  1.0000
  H   H12       1.0  0.9726300000000001  0.41594  0.36393  1.0000
  H   H13       1.0  0.10634000000000003  0.19928000000000004  0.22337  1.0000
  H   H14       1.0  0.48617  0.35581000000000007  0.12075  1.0000
  H   H15       1.0  0.83977  0.40979  0.95143  1.0000
  H   H16       1.0  0.57009  0.4096099999999999  0.45176  1.0000
  H   H17       1.0  0.02737000000000003  0.58406  0.63607  1.0000
  H   H18       1.0  0.75164  0.30416  0.17416  1.0000
  H   H19       1.0  0.55701  0.5839  0.13595000000000004  1.0000
  H   H20       1.0  0.8700900000000001  0.356  0.62117  1.0000
  H   H21       1.0  0.55257  0.30453  0.67394  1.0000
  H   H22       1.0  0.51383  0.64419  0.87924  1.0000
  H   H23       1.0  0.44744  0.69547  0.32606  1.0000
  H   H24       1.0  0.8936699999999999  0.8007199999999999  0.77662  1.0000
  H   H25       1.0  0.05182999999999995  0.2894999999999999  0.44804  1.0000
  H   H26       1.0  0.443  0.41609999999999997  0.86405  1.0000
  H   H27       1.0  0.03318000000000001  0.91238  0.66432  1.0000
  H   H28       1.0  0.40498  0.81045  0.71953  1.0000
  H   H29       1.0  0.94818  0.7105  0.55196  1.0000
  H   H30       1.0  0.16024  0.59021  0.04857  1.0000
  H   H31       1.0  0.9069400000000001  0.80066  0.27692  1.0000
  H   H32       1.0  0.42992  0.59039  0.54824  1.0000
  C   C1        1.0  0.77543  0.44618  0.99249  1.0000
  C   C2        1.0  0.61139  0.23421  0.52425  1.0000
  C   C3        1.0  0.51695  0.80844  0.22992  1.0000
  C   C4        1.0  0.62313  0.23428999999999997  0.023320000000000007  1.0000
  C   C5        1.0  0.08471999999999988  0.8662899999999998  0.69946  1.0000
  C   C6        1.0  0.0744  0.45832  0.40415  1.0000
  C   C7        1.0  0.034530000000000005  0.06951000000000002  0.51053  1.0000
  C   C8        1.0  0.20477999999999996  0.7455599999999999  0.7894100000000002  1.0000
  C   C9        1.0  0.7812  0.8659899999999999  0.19964  1.0000
  C   C10       1.0  0.79523  0.25444  0.21058  1.0000
  C   C11       1.0  0.61634  0.54159  0.09564000000000003  1.0000
  C   C12       1.0  0.96548  0.93049  0.48947  1.0000
  C   C13       1.0  0.6197499999999998  0.94692  0.12223  1.0000
  C   C14       1.0  0.3599  0.12789  0.81541  1.0000
  C   C15       1.0  0.9656  0.93055  0.9890900000000001  1.0000
  C   C16       1.0  0.5405999999999999  0.7453199999999999  0.28962  1.0000
  C   C17       1.0  0.57799  0.41673  0.08791000000000003  1.0000
  C   C18       1.0  0.38026  0.05308000000000001  0.87777  1.0000
  C   C19       1.0  0.16086999999999996  0.58315  0.41173  1.0000
  C   C20       1.0  0.11765  0.3868  0.45048000000000005  1.0000
  C   C21       1.0  0.33965  0.63171  0.96421  1.0000
  C   C22       1.0  0.29143  0.80875  0.72973  1.0000
  C   C23       1.0  0.8391399999999999  0.41684999999999994  0.58826  1.0000
  C   C24       1.0  0.32765000000000005  0.9472300000000001  0.62223  1.0000
  C   C25       1.0  0.38366999999999996  0.45842  0.90436  1.0000
  C   C26       1.0  0.20289999999999997  0.19689999999999996  0.73834  1.0000
  C   C27       1.0  0.70816  0.36823999999999996  0.53625  1.0000
  C   C28       1.0  0.70858  0.19125  0.27026  1.0000
  C   C29       1.0  0.92561  0.54168  0.59584  1.0000
  C   C30       1.0  0.67083  0.44596  0.49283  1.0000
  C   C31       1.0  0.66036  0.36829  0.03579  1.0000
  C   C32       1.0  0.29185  0.63176  0.46375  1.0000
  C   C33       1.0  0.32918  0.55404  0.50716  1.0000
  C   C34       1.0  0.8823599999999999  0.6131999999999999  0.54952  1.0000
  C   C35       1.0  0.21881  0.13401  0.80036  1.0000
  C   C36       1.0  0.29196  0.07040000000000003  0.25496000000000013  1.0000
  C   C37       1.0  0.77967  0.07008999999999997  0.75525  1.0000
  C   C38       1.0  0.7309699999999999  0.61326  0.04934  1.0000
  C   C39       1.0  0.37687  0.76571  0.9766800000000001  1.0000
  C   C40       1.0  0.2203400000000001  0.92991  0.24475  1.0000
  C   C41       1.0  0.22458  0.55382  0.0075000000000000015  1.0000
  C   C42       1.0  0.7080499999999997  0.9295999999999999  0.74504  1.0000
  C   C43       1.0  0.99404  0.19678  0.23858  1.0000
  C   C44       1.0  0.23201000000000005  0.8725499999999999  0.68448  1.0000
  C   C45       1.0  0.38860999999999996  0.7657899999999999  0.47574  1.0000
  C   C46       1.0  0.42201  0.58327  0.9120900000000002  1.0000
  C   C47       1.0  0.91529  0.13371  0.30054  1.0000
  C   C48       1.0  0.67236  0.05276999999999999  0.37777  1.0000
  C   C49       1.0  0.005960000000000002  0.80322  0.76141  1.0000
  C   C50       1.0  0.45941  0.25468  0.71037  1.0000
  C   C51       1.0  0.26903999999999995  0.3867399999999999  0.9506600000000002  1.0000
  C   C52       1.0  0.79711  0.8031  0.26166  1.0000
  C   C53       1.0  0.64011  0.87211  0.18459  1.0000
  C   C54       1.0  0.03441  0.06945  0.01091  1.0000
  C   C55       1.0  0.768  0.12745  0.31551  1.0000
  C   C56       1.0  0.48306  0.19156  0.77008  1.0000
  N   N1        1.0  0.8089299999999999  0.56642  0.9979200000000001  1.0000
  N   N2        1.0  0.3213  0.25585  0.6931  1.0000
  N   N3        1.0  0.9345400000000001  0.25572  0.19332  1.0000
  N   N4        1.0  0.6787  0.74415  0.3069  1.0000
  N   N5        1.0  0.75743  0.56621  0.4981900000000001  1.0000
  N   N6        1.0  0.06546999999999997  0.74428  0.80667  1.0000
  N   N7        1.0  0.19108000000000003  0.4335800000000001  0.00208  1.0000
  N   N8        1.0  0.24258000000000002  0.43379  0.50181  1.0000
  O   O1        1.0  0.03376999999999987  0.8727199999999999  0.02011  1.0000
  O   O2        1.0  0.2756  0.79894  0.00729  1.0000
  O   O3        1.0  0.3043  0.12363  0.32626  1.0000
  O   O4        1.0  0.96246  0.11666000000000001  0.5565500000000001  1.0000
  O   O5        1.0  0.2625  0.989  0.57469  1.0000
  O   O6        1.0  0.6672199999999999  0.87882  0.80858  1.0000
  O   O7        1.0  0.67345  0.16666999999999998  0.54637  1.0000
  O   O8        1.0  0.46664  0.96137  0.62311  1.0000
  O   O9        1.0  0.8476199999999999  0.88357  0.94201  1.0000
  O   O10       1.0  0.52252  0.79917  0.5072400000000002  1.0000
  O   O11       1.0  0.7274999999999999  0.9886399999999999  0.07507  1.0000
  O   O12       1.0  0.16075  0.12747  0.47982000000000014  1.0000
  O   O13       1.0  0.72441  0.20106  0.99271  1.0000
  O   O14       1.0  0.6957099999999999  0.8763699999999999  0.67374  1.0000
  O   O15       1.0  0.20822999999999992  0.8788599999999999  0.3082800000000001  1.0000
  O   O16       1.0  0.27251  0.011360000000000033  0.9249300000000003  1.0000
  O   O17       1.0  0.7375  0.010999999999999994  0.4253  1.0000
  O   O18       1.0  0.49496000000000007  0.96134  0.12288000000000002  1.0000
  O   O19       1.0  0.53336  0.03863  0.37689  1.0000
  O   O20       1.0  0.17944999999999992  0.87701  0.17334  1.0000
  O   O21       1.0  0.3327799999999999  0.12118  0.19142  1.0000
  O   O22       1.0  0.03754999999999992  0.8833399999999999  0.4434500000000001  1.0000
  O   O23       1.0  0.32655999999999996  0.8333299999999999  0.45362  1.0000
  O   O24       1.0  0.82056  0.12299000000000004  0.8266500000000002  1.0000
  O   O25       1.0  0.15239  0.11643  0.05799  1.0000
  O   O26       1.0  0.96624  0.12728  0.9798800000000001  1.0000
  O   O27       1.0  0.7917700000000001  0.12114000000000004  0.6917200000000002  1.0000
  O   O28       1.0  0.50754  0.83366  0.95613  1.0000
  O   O29       1.0  0.50504  0.03866000000000003  0.8771200000000002  1.0000
  O   O30       1.0  0.83926  0.8725299999999999  0.5201800000000001  1.0000
  O   O31       1.0  0.4924700000000001  0.16634  0.04387  1.0000
  O   O32       1.0  0.47748000000000007  0.20083  0.49275  1.0000
