data_image0
_chemical_formula_structural       Eu8H24C56N8O32
_chemical_formula_sum              "Eu8 H24 C56 N8 O32"
_cell_length_a       17.33222
_cell_length_b       16.62624
_cell_length_c       16.63274
_cell_angle_alpha    74.47574
_cell_angle_beta     58.853790000000004
_cell_angle_gamma    58.84992999999999

_space_group_name_H-M_alt    "P 1"
_space_group_IT_number       1

loop_
  _space_group_symop_operation_xyz
  'x, y, z'

loop_
  _atom_site_type_symbol
  _atom_site_label
  _atom_site_symmetry_multiplicity
  _atom_site_fract_x
  _atom_site_fract_y
  _atom_site_fract_z
  _atom_site_occupancy
  Eu  Eu1       1.0  0.49445  0.4966500000000001  0.77901  1.0000
  Eu  Eu2       1.0  0.77181  0.0012000000000000003  0.7184900000000002  1.0000
  Eu  Eu3       1.0  0.48964999999999986  0.7809300000000002  0.003540000000000001  1.0000
  Eu  Eu4       1.0  0.2727699999999999  0.7206900000000003  0.49764000000000014  1.0000
  Eu  Eu5       1.0  0.5055500000000002  0.50336  0.22099  1.0000
  Eu  Eu6       1.0  0.22818999999999998  0.9988100000000001  0.28152  1.0000
  Eu  Eu7       1.0  0.51035  0.21907000000000004  0.99646  1.0000
  Eu  Eu8       1.0  0.7272299999999998  0.27931  0.50237  1.0000
  H   H1        1.0  0.7057199999999999  0.6832400000000002  0.72902  1.0000
  H   H2        1.0  0.8490999999999997  0.6207100000000002  0.56729  1.0000
  H   H3        1.0  0.8591199999999998  0.4957100000000001  0.49691000000000013  1.0000
  H   H4        1.0  0.11553999999999992  0.8181600000000001  0.77326  1.0000
  H   H5        1.0  0.03377999999999981  0.88167  0.9351600000000002  1.0000
  H   H6        1.0  0.84957  0.006190000000000002  0.003540000000000001  1.0000
  H   H7        1.0  0.8865500000000002  0.72852  0.81801  1.0000
  H   H8        1.0  0.96699  0.56618  0.8801400000000003  1.0000
  H   H9        1.0  0.85202  0.49686  0.00547  1.0000
  H   H10       1.0  0.4357499999999999  0.7713100000000003  0.68247  1.0000
  H   H11       1.0  0.4176799999999997  0.9333500000000002  0.62044  1.0000
  H   H12       1.0  0.35718999999999995  0.0037700000000000008  0.4959  1.0000
  H   H13       1.0  0.29428  0.31677  0.27098  1.0000
  H   H14       1.0  0.15090999999999996  0.3793000000000001  0.4327100000000001  1.0000
  H   H15       1.0  0.14087999999999995  0.50429  0.50309  1.0000
  H   H16       1.0  0.88446  0.18185000000000007  0.22674000000000005  1.0000
  H   H17       1.0  0.9662299999999999  0.11833000000000002  0.06484  1.0000
  H   H18       1.0  0.15042999999999992  0.9938200000000003  0.99646  1.0000
  H   H19       1.0  0.11344999999999998  0.27148000000000005  0.18199  1.0000
  H   H20       1.0  0.03301000000000001  0.43383  0.11986  1.0000
  H   H21       1.0  0.14797999999999986  0.50315  0.9945300000000002  1.0000
  H   H22       1.0  0.56425  0.22869000000000006  0.31753  1.0000
  H   H23       1.0  0.58232  0.06666000000000002  0.37956  1.0000
  H   H24       1.0  0.6428099999999998  0.9962400000000002  0.5041  1.0000
  C   C1        1.0  0.55417  0.62798  0.8384  1.0000
  C   C2        1.0  0.64411  0.59391  0.74221  1.0000
  C   C3        1.0  0.7146299999999999  0.62917  0.6952400000000002  1.0000
  C   C4        1.0  0.7935399999999998  0.5941000000000002  0.6059000000000002  1.0000
  C   C5        1.0  0.7999300000000001  0.5252  0.56633  1.0000
  C   C6        1.0  0.7263100000000001  0.49373  0.61822  1.0000
  C   C7        1.0  0.7256999999999998  0.4209100000000001  0.58093  1.0000
  C   C8        1.0  0.020259999999999844  0.8715300000000002  0.6619800000000001  1.0000
  C   C9        1.0  0.9794500000000003  0.9067100000000002  0.75808  1.0000
  C   C10       1.0  0.03714000000000002  0.8721800000000002  0.8062  1.0000
  C   C11       1.0  0.9910999999999998  0.9077500000000001  0.89564  1.0000
  C   C12       1.0  0.8896899999999998  0.9763700000000002  0.9341000000000003  1.0000
  C   C13       1.0  0.8375199999999998  0.007080000000000002  0.8811500000000001  1.0000
  C   C14       1.0  0.7273799999999999  0.07919000000000002  0.9176700000000002  1.0000
  C   C15       1.0  0.6803099999999999  0.8394100000000002  0.87353  1.0000
  C   C16       1.0  0.7358299999999997  0.7429200000000002  0.9076800000000003  1.0000
  C   C17       1.0  0.8414099999999999  0.6951000000000003  0.87213  1.0000
  C   C18       1.0  0.8849899999999997  0.6054300000000002  0.907  1.0000
  C   C19       1.0  0.8224700000000001  0.56644  0.97608  1.0000
  C   C20       1.0  0.7175599999999999  0.61915  0.00787  1.0000
  C   C21       1.0  0.6441199999999998  0.5825600000000002  0.08110000000000003  1.0000
  C   C22       1.0  0.3929999999999998  0.6616400000000002  0.62743  1.0000
  C   C23       1.0  0.3871299999999994  0.7579300000000002  0.5933500000000002  1.0000
  C   C24       1.0  0.4109399999999999  0.8050500000000002  0.62854  1.0000
  C   C25       1.0  0.40061999999999975  0.8946100000000002  0.5937400000000003  1.0000
  C   C26       1.0  0.36729999999999996  0.93419  0.52516  1.0000
  C   C27       1.0  0.34498000000000006  0.8822700000000001  0.49394  1.0000
  C   C28       1.0  0.30564999999999987  0.9201200000000002  0.42234000000000005  1.0000
  C   C29       1.0  0.4458299999999999  0.37202000000000013  0.1616  1.0000
  C   C30       1.0  0.3558899999999998  0.4061  0.25779  1.0000
  C   C31       1.0  0.28536999999999985  0.37084  0.30477  1.0000
  C   C32       1.0  0.20646999999999976  0.4059000000000001  0.39410000000000006  1.0000
  C   C33       1.0  0.20007  0.47481000000000007  0.43367  1.0000
  C   C34       1.0  0.2736899999999999  0.50628  0.38179000000000013  1.0000
  C   C35       1.0  0.27429999999999977  0.5791000000000002  0.41907  1.0000
  C   C36       1.0  0.97974  0.12848  0.33802  1.0000
  C   C37       1.0  0.02054999999999996  0.0933  0.24192000000000005  1.0000
  C   C38       1.0  0.9628599999999999  0.12782000000000002  0.1938  1.0000
  C   C39       1.0  0.00889999999999999  0.09226000000000002  0.10436  1.0000
  C   C40       1.0  0.11031000000000003  0.02363000000000001  0.06591  1.0000
  C   C41       1.0  0.16247999999999987  0.9929200000000002  0.11885  1.0000
  C   C42       1.0  0.27262  0.92082  0.08233  1.0000
  C   C43       1.0  0.3196899999999999  0.1606  0.12648  1.0000
  C   C44       1.0  0.26416999999999996  0.25709  0.09232000000000003  1.0000
  C   C45       1.0  0.15859000000000006  0.30491000000000007  0.12787  1.0000
  C   C46       1.0  0.11501999999999996  0.3945800000000001  0.09301  1.0000
  C   C47       1.0  0.1775299999999999  0.4335600000000001  0.02393  1.0000
  C   C48       1.0  0.2824399999999999  0.38086  0.99214  1.0000
  C   C49       1.0  0.35588  0.41744  0.9189  1.0000
  C   C50       1.0  0.6069999999999997  0.3383700000000001  0.37257  1.0000
  C   C51       1.0  0.61287  0.24208000000000002  0.4066500000000001  1.0000
  C   C52       1.0  0.5890599999999998  0.19495000000000007  0.37146  1.0000
  C   C53       1.0  0.59938  0.10539000000000001  0.40626000000000007  1.0000
  C   C54       1.0  0.6327  0.06581000000000002  0.47484  1.0000
  C   C55       1.0  0.65503  0.11773000000000003  0.50607  1.0000
  C   C56       1.0  0.69435  0.07988000000000003  0.57766  1.0000
  N   N1        1.0  0.6506899999999998  0.5275000000000001  0.70399  1.0000
  N   N2        1.0  0.8819799999999998  0.9728400000000003  0.79527  1.0000
  N   N3        1.0  0.6760299999999997  0.7051500000000003  0.9741100000000001  1.0000
  N   N4        1.0  0.35507999999999995  0.79625  0.52741  1.0000
  N   N5        1.0  0.34930999999999995  0.4725100000000001  0.29601  1.0000
  N   N6        1.0  0.11801999999999997  0.027160000000000004  0.20473000000000002  1.0000
  N   N7        1.0  0.3239699999999999  0.29485  0.02589  1.0000
  N   N8        1.0  0.64492  0.20376000000000005  0.4725900000000001  1.0000
  O   O1        1.0  0.49101  0.59621  0.87026  1.0000
  O   O2        1.0  0.5500699999999997  0.6861600000000002  0.8786700000000002  1.0000
  O   O3        1.0  0.65196  0.3988400000000001  0.63314  1.0000
  O   O4        1.0  0.7959499999999997  0.3852500000000001  0.50154  1.0000
  O   O5        1.0  0.9576599999999998  0.9014700000000002  0.62988  1.0000
  O   O6        1.0  0.11413999999999988  0.8143300000000002  0.6220000000000002  1.0000
  O   O7        1.0  0.6843800000000001  0.10098  0.86485  1.0000
  O   O8        1.0  0.68246  0.11451000000000003  0.99749  1.0000
  O   O9        1.0  0.5854499999999999  0.8723100000000003  0.90542  1.0000
  O   O10       1.0  0.7346599999999999  0.8788400000000001  0.81484  1.0000
  O   O11       1.0  0.5485899999999999  0.6347800000000002  0.10271  1.0000
  O   O12       1.0  0.67863  0.50356  0.11753  1.0000
  O   O13       1.0  0.36022999999999983  0.63018  0.59669  1.0000
  O   O14       1.0  0.4302399999999999  0.6208400000000001  0.68446  1.0000
  O   O15       1.0  0.28353999999999996  0.8679900000000003  0.40046  1.0000
  O   O16       1.0  0.29569999999999996  0.00014  0.38766000000000006  1.0000
  O   O17       1.0  0.50899  0.4038000000000001  0.12974  1.0000
  O   O18       1.0  0.44993000000000005  0.3138500000000001  0.12133  1.0000
  O   O19       1.0  0.34804  0.60116  0.36686  1.0000
  O   O20       1.0  0.2040499999999999  0.6147500000000002  0.49846  1.0000
  O   O21       1.0  0.042339999999999996  0.09853  0.37012  1.0000
  O   O22       1.0  0.8858599999999996  0.18568  0.37800000000000006  1.0000
  O   O23       1.0  0.31561999999999996  0.89903  0.13515  1.0000
  O   O24       1.0  0.31754999999999994  0.8855  0.00251  1.0000
  O   O25       1.0  0.4145499999999999  0.12769000000000003  0.09459000000000001  1.0000
  O   O26       1.0  0.26534  0.12117  0.18516000000000002  1.0000
  O   O27       1.0  0.45141999999999993  0.36523  0.8973000000000002  1.0000
  O   O28       1.0  0.3213699999999999  0.4964400000000001  0.88247  1.0000
  O   O29       1.0  0.6397699999999998  0.36983  0.40331  1.0000
  O   O30       1.0  0.56976  0.3791700000000001  0.31554  1.0000
  O   O31       1.0  0.7164599999999995  0.13202000000000003  0.59955  1.0000
  O   O32       1.0  0.7043099999999998  0.99987  0.6123400000000002  1.0000
