data_image0
_chemical_formula_structural       Sm4H18C48N6O24
_chemical_formula_sum              "Sm4 H18 C48 N6 O24"
_cell_length_a       10.94641
_cell_length_b       11.481799999999998
_cell_length_c       16.33772
_cell_angle_alpha    75.84095
_cell_angle_beta     82.83876
_cell_angle_gamma    76.32354

_space_group_name_H-M_alt    "P 1"
_space_group_IT_number       1

loop_
  _space_group_symop_operation_xyz
  'x, y, z'

loop_
  _atom_site_type_symbol
  _atom_site_label
  _atom_site_symmetry_multiplicity
  _atom_site_fract_x
  _atom_site_fract_y
  _atom_site_fract_z
  _atom_site_occupancy
  Sm  Sm1       1.0  0.5810099999999999  0.8448100000000001  0.35666  1.0000
  Sm  Sm2       1.0  0.8020399999999999  0.99133  0.14061000000000007  1.0000
  Sm  Sm3       1.0  0.4202499999999999  0.15578000000000003  0.6439  1.0000
  Sm  Sm4       1.0  0.19852999999999998  0.008439999999999993  0.8581700000000001  1.0000
  H   H1        1.0  0.6515  0.9585900000000002  0.94098  1.0000
  H   H2        1.0  0.21892999999999999  0.8388600000000002  0.57319  1.0000
  H   H3        1.0  0.15471999999999989  0.8434400000000001  0.31680000000000014  1.0000
  H   H4        1.0  0.84533  0.8503  0.50786  1.0000
  H   H5        1.0  0.87956  0.2755  0.10416  1.0000
  H   H6        1.0  0.6543299999999997  0.47004000000000007  0.28442  1.0000
  H   H7        1.0  0.63032  0.88844  0.69553  1.0000
  H   H8        1.0  0.8833399999999998  0.65453  0.08405  1.0000
  H   H9        1.0  0.9897799999999999  0.87696  0.78041  1.0000
  H   H10       1.0  0.34927  0.0411  0.05882  1.0000
  H   H11       1.0  0.78134  0.16046  0.42725000000000013  1.0000
  H   H12       1.0  0.8460800000000002  0.15708999999999992  0.6833200000000003  1.0000
  H   H13       1.0  0.15484999999999993  0.15024000000000004  0.49164  1.0000
  H   H14       1.0  0.12182000000000001  0.72248  0.89574  1.0000
  H   H15       1.0  0.3464900000000001  0.52906  0.71506  1.0000
  H   H16       1.0  0.36870999999999987  0.11205  0.30396  1.0000
  H   H17       1.0  0.11682999999999985  0.34410000000000013  0.91525  1.0000
  H   H18       1.0  0.009559999999999994  0.12241000000000007  0.21858  1.0000
  C   C1        1.0  0.71732  0.24327000000000004  0.24288000000000007  1.0000
  C   C2        1.0  0.76038  0.35986000000000007  0.19884  1.0000
  C   C3        1.0  0.90623  0.92723  0.9352400000000002  1.0000
  C   C4        1.0  0.48407  0.95495  0.83224  1.0000
  C   C5        1.0  0.62453  0.9260900000000001  0.82044  1.0000
  C   C6        1.0  0.6970699999999999  0.9352  0.88227  1.0000
  C   C7        1.0  0.82887  0.9172899999999999  0.8683000000000002  1.0000
  C   C8        1.0  0.3342200000000001  0.84003  0.4145500000000001  1.0000
  C   C9        1.0  0.19973  0.83978  0.44234  1.0000
  C   C10       1.0  0.15468000000000004  0.84098  0.52653  1.0000
  C   C11       1.0  0.11819999999999999  0.84257  0.38194  1.0000
  C   C12       1.0  0.76394  0.57466  0.18781  1.0000
  C   C13       1.0  0.72424  0.69  0.22019  1.0000
  C   C14       1.0  0.94494  0.84504  0.48908  1.0000
  C   C15       1.0  0.84581  0.35879000000000005  0.1278  1.0000
  C   C16       1.0  0.72003  0.46785000000000004  0.2289  1.0000
  C   C17       1.0  0.98963  0.84789  0.4050200000000001  1.0000
  C   C18       1.0  0.8158599999999999  0.87849  0.7309900000000003  1.0000
  C   C19       1.0  0.89642  0.86537  0.34106  1.0000
  C   C20       1.0  0.026539999999999966  0.84154  0.5498300000000003  1.0000
  C   C21       1.0  0.6841600000000001  0.89723  0.74458  1.0000
  C   C22       1.0  0.89033  0.46445000000000003  0.08721  1.0000
  C   C23       1.0  0.84825  0.57321  0.11651  1.0000
  C   C24       1.0  0.8881299999999999  0.8895699999999999  0.7927  1.0000
  C   C25       1.0  0.28483999999999987  0.7552900000000001  0.75804  1.0000
  C   C26       1.0  0.24068999999999988  0.6388000000000003  0.80093  1.0000
  C   C27       1.0  0.09446999999999997  0.07367  0.06281  1.0000
  C   C28       1.0  0.51613  0.04512999999999999  0.1689  1.0000
  C   C29       1.0  0.37545  0.07396  0.17962  1.0000
  C   C30       1.0  0.30342  0.06486  0.11736000000000003  1.0000
  C   C31       1.0  0.17136  0.08262000000000001  0.13074  1.0000
  C   C32       1.0  0.6659699999999997  0.15992  0.58536  1.0000
  C   C33       1.0  0.8005399999999998  0.16089999999999993  0.5576500000000002  1.0000
  C   C34       1.0  0.84554  0.15931999999999993  0.47360000000000013  1.0000
  C   C35       1.0  0.8823699999999999  0.15806000000000006  0.61806  1.0000
  C   C36       1.0  0.23629000000000003  0.42458000000000007  0.8119800000000001  1.0000
  C   C37       1.0  0.27559  0.3101499999999999  0.77908  1.0000
  C   C38       1.0  0.05541999999999996  0.15494999999999995  0.5106300000000003  1.0000
  C   C39       1.0  0.15510000000000002  0.63951  0.87191  1.0000
  C   C40       1.0  0.2807200000000001  0.5311199999999999  0.77063  1.0000
  C   C41       1.0  0.011109999999999983  0.15245000000000003  0.59473  1.0000
  C   C42       1.0  0.18315  0.12164000000000001  0.2682  1.0000
  C   C43       1.0  0.10525999999999998  0.13541  0.6581000000000002  1.0000
  C   C44       1.0  0.9735499999999999  0.15834  0.45015  1.0000
  C   C45       1.0  0.31483000000000005  0.10335999999999997  0.25494  1.0000
  C   C46       1.0  0.11013999999999993  0.53418  0.91233  1.0000
  C   C47       1.0  0.15190999999999988  0.42556  0.88309  1.0000
  C   C48       1.0  0.11129  0.11014999999999998  0.20633  1.0000
  N   N1        1.0  0.979  0.45213  0.01808  1.0000
  N   N2        1.0  0.9831399999999999  0.8491800000000002  0.63415  1.0000
  N   N3        1.0  0.86528  0.85637  0.6508200000000002  1.0000
  N   N4        1.0  0.021439999999999963  0.5460900000000001  0.98151  1.0000
  N   N5        1.0  0.016359999999999982  0.15069000000000005  0.36558  1.0000
  N   N6        1.0  0.13348  0.14355000000000007  0.34843  1.0000
  O   O1        1.0  0.7514099999999999  0.15498999999999996  0.20171  1.0000
  O   O2        1.0  0.84809  0.94243  0.00542  1.0000
  O   O3        1.0  0.024579999999999956  0.91607  0.9174400000000003  1.0000
  O   O4        1.0  0.42412  0.0041100000000000225  0.76341  1.0000
  O   O5        1.0  0.4246499999999999  0.93536  0.90363  1.0000
  O   O6        1.0  0.40187  0.8795700000000001  0.4567  1.0000
  O   O7        1.0  0.38080999999999987  0.8022  0.34704  1.0000
  O   O8        1.0  0.92833  0.89738  0.26285  1.0000
  O   O9        1.0  0.6519799999999999  0.6865  0.28919  1.0000
  O   O10       1.0  0.76412  0.78468  0.17967  1.0000
  O   O11       1.0  0.65669  0.23346  0.31269  1.0000
  O   O12       1.0  0.78575  0.84847  0.37143  1.0000
  O   O13       1.0  0.25608  0.8402600000000001  0.80208  1.0000
  O   O14       1.0  0.15479999999999997  0.05690999999999992  0.9932100000000003  1.0000
  O   O15       1.0  0.97592  0.08681  0.07849  1.0000
  O   O16       1.0  0.5758800000000001  0.99773  0.23790000000000006  1.0000
  O   O17       1.0  0.57609  0.06399000000000002  0.09784  1.0000
  O   O18       1.0  0.5975899999999997  0.12083  0.54348  1.0000
  O   O19       1.0  0.6202400000000002  0.19662  0.65332  1.0000
  O   O20       1.0  0.07322000000000002  0.10397  0.73646  1.0000
  O   O21       1.0  0.34904999999999997  0.3153  0.71039  1.0000
  O   O22       1.0  0.23575000000000013  0.21484999999999999  0.81794  1.0000
  O   O23       1.0  0.3404500000000001  0.7676299999999999  0.6865  1.0000
  O   O24       1.0  0.21596999999999997  0.1516  0.62775  1.0000
