data_image0
_chemical_formula_structural       Zn12P8H16C16O52
_chemical_formula_sum              "Zn12 P8 H16 C16 O52"
_cell_length_a       4.82813
_cell_length_b       13.141959999999997
_cell_length_c       22.741510000000005
_cell_angle_alpha    89.96933
_cell_angle_beta     90.15185999999999
_cell_angle_gamma    97.74352000000002

_space_group_name_H-M_alt    "P 1"
_space_group_IT_number       1

loop_
  _space_group_symop_operation_xyz
  'x, y, z'

loop_
  _atom_site_type_symbol
  _atom_site_label
  _atom_site_symmetry_multiplicity
  _atom_site_fract_x
  _atom_site_fract_y
  _atom_site_fract_z
  _atom_site_occupancy
  Zn  Zn1       1.0  0.32624999999999993  0.82459  0.36784  1.0000
  Zn  Zn2       1.0  0.39629000000000003  0.03782  0.43285000000000007  1.0000
  Zn  Zn3       1.0  0.10347  0.15347  0.30819  1.0000
  Zn  Zn4       1.0  0.16355  0.67529  0.86785  1.0000
  Zn  Zn5       1.0  0.10403999999999998  0.46219  0.9328499999999998  1.0000
  Zn  Zn6       1.0  0.39619  0.34661  0.80802  1.0000
  Zn  Zn7       1.0  0.67374  0.17541  0.63217  1.0000
  Zn  Zn8       1.0  0.6037  0.96217  0.56715  1.0000
  Zn  Zn9       1.0  0.8965199999999999  0.8465200000000002  0.69181  1.0000
  Zn  Zn10      1.0  0.83644  0.32471  0.13215  1.0000
  Zn  Zn11      1.0  0.89595  0.53781  0.06715  1.0000
  Zn  Zn12      1.0  0.6038  0.65338  0.19198  1.0000
  P   P1        1.0  0.5797599999999999  0.027750000000000004  0.29534  1.0000
  P   P2        1.0  0.81702  0.85235  0.45425  1.0000
  P   P3        1.0  0.91926  0.47242  0.79529  1.0000
  P   P4        1.0  0.67822  0.6475  0.95449  1.0000
  P   P5        1.0  0.4202300000000001  0.9722500000000001  0.70466  1.0000
  P   P6        1.0  0.18297  0.14765  0.54575  1.0000
  P   P7        1.0  0.08073000000000001  0.52758  0.20471  1.0000
  P   P8        1.0  0.32177  0.35249  0.04551  1.0000
  H   H1        1.0  0.16426000000000004  0.9435000000000001  0.24414999999999998  1.0000
  H   H2        1.0  0.45803999999999995  0.9756  0.19596  1.0000
  H   H3        1.0  0.99907  0.71136  0.4990899999999999  1.0000
  H   H4        1.0  0.67711  0.73971  0.53204  1.0000
  H   H5        1.0  0.33369  0.55782  0.74453  1.0000
  H   H6        1.0  0.04203  0.52388  0.69598  1.0000
  H   H7        1.0  0.5004  0.78897  0.99934  1.0000
  H   H8        1.0  0.82214  0.75968  0.0322  1.0000
  H   H9        1.0  0.8357300000000001  0.0565  0.75585  1.0000
  H   H10       1.0  0.54195  0.0244  0.80404  1.0000
  H   H11       1.0  0.000919999999999995  0.28864  0.50091  1.0000
  H   H12       1.0  0.32288  0.26028  0.46796  1.0000
  H   H13       1.0  0.6663  0.44218  0.25548  1.0000
  H   H14       1.0  0.95797  0.47611  0.30403  1.0000
  H   H15       1.0  0.49959  0.21103  0.00066  1.0000
  H   H16       1.0  0.17785  0.24032  0.9677999999999999  1.0000
  C   C1        1.0  0.39106  0.94395  0.23888  1.0000
  C   C2        1.0  0.8850599999999998  0.77156  0.51635  1.0000
  C   C3        1.0  0.05743999999999999  0.82938  0.56419  1.0000
  C   C4        1.0  0.45472  0.83552  0.24201  1.0000
  C   C5        1.0  0.10663  0.55631  0.7389  1.0000
  C   C6        1.0  0.61323  0.72836  0.0166  1.0000
  C   C7        1.0  0.44125000000000003  0.67069  0.06434  1.0000
  C   C8        1.0  0.040040000000000124  0.6644800000000001  0.74126  1.0000
  C   C9        1.0  0.60893  0.05605  0.76112  1.0000
  C   C10       1.0  0.11492999999999999  0.22844000000000006  0.48365  1.0000
  C   C11       1.0  0.9425699999999999  0.17062  0.43581  1.0000
  C   C12       1.0  0.54527  0.16448  0.75799  1.0000
  C   C13       1.0  0.8933600000000002  0.4436800000000001  0.2611  1.0000
  C   C14       1.0  0.38675  0.27164  0.98341  1.0000
  C   C15       1.0  0.55878  0.3293  0.93566  1.0000
  C   C16       1.0  0.9599500000000001  0.33552  0.25874  1.0000
  O   O1        1.0  0.51216  0.9738900000000003  0.35536  1.0000
  O   O2        1.0  0.88757  0.0291  0.27683  1.0000
  O   O3        1.0  0.501  0.13744  0.29765  1.0000
  O   O4        1.0  0.09441000000000005  0.8945700000000001  0.42303  1.0000
  O   O5        1.0  0.6816  0.94365  0.47957  1.0000
  O   O6        1.0  0.6269599999999999  0.77823  0.41419  1.0000
  O   O7        1.0  0.31296  0.82354  0.56536  1.0000
  O   O8        1.0  0.9312699999999999  0.88456  0.6012  1.0000
  O   O9        1.0  0.58529  0.80188  0.19897999999999996  1.0000
  O   O10       1.0  0.37466  0.77756  0.28586  1.0000
  O   O11       1.0  0.9160699999999999  0.64151  0.34221  1.0000
  O   O12       1.0  0.83925  0.7117600000000001  0.30992  1.0000
  O   O13       1.0  0.08223000000000004  0.67185  0.38693999999999995  1.0000
  O   O14       1.0  0.9868399999999999  0.52598  0.85546  1.0000
  O   O15       1.0  0.61122  0.47109  0.77672  1.0000
  O   O16       1.0  0.9983899999999999  0.36283000000000004  0.79777  1.0000
  O   O17       1.0  0.40138  0.60517  0.92305  1.0000
  O   O18       1.0  0.81725  0.55675  0.9796299999999999  1.0000
  O   O19       1.0  0.86348  0.722  0.9140000000000001  1.0000
  O   O20       1.0  0.18569999999999998  0.67648  0.0654  1.0000
  O   O21       1.0  0.56842  0.61553  0.10133  1.0000
  O   O22       1.0  0.9162099999999999  0.6978600000000001  0.69695  1.0000
  O   O23       1.0  0.11218  0.72233  0.78566  1.0000
  O   O24       1.0  0.57135  0.85924  0.8454  1.0000
  O   O25       1.0  0.6505399999999999  0.78983  0.813  1.0000
  O   O26       1.0  0.4032400000000001  0.8278600000000003  0.8895  1.0000
  O   O27       1.0  0.48783  0.02611  0.64464  1.0000
  O   O28       1.0  0.11242000000000002  0.97089  0.7231699999999999  1.0000
  O   O29       1.0  0.49899000000000004  0.8625500000000001  0.70235  1.0000
  O   O30       1.0  0.90558  0.10542  0.57697  1.0000
  O   O31       1.0  0.31839  0.05634  0.52043  1.0000
  O   O32       1.0  0.37303  0.22176000000000007  0.58581  1.0000
  O   O33       1.0  0.68702  0.17646  0.43464  1.0000
  O   O34       1.0  0.06872  0.11544  0.39879999999999993  1.0000
  O   O35       1.0  0.41469  0.19811  0.80103  1.0000
  O   O36       1.0  0.62533  0.22243  0.71415  1.0000
  O   O37       1.0  0.08392000000000002  0.3584800000000001  0.6578  1.0000
  O   O38       1.0  0.16074  0.28824  0.69008  1.0000
  O   O39       1.0  0.91776  0.32814  0.61306  1.0000
  O   O40       1.0  0.01315  0.47402  0.14454  1.0000
  O   O41       1.0  0.38876  0.52891  0.22328  1.0000
  O   O42       1.0  0.0015999999999999953  0.6371600000000001  0.20223  1.0000
  O   O43       1.0  0.59861  0.39482  0.07696  1.0000
  O   O44       1.0  0.18274  0.44325  0.02037  1.0000
  O   O45       1.0  0.1365  0.27799  0.086  1.0000
  O   O46       1.0  0.81425  0.32351  0.9346  1.0000
  O   O47       1.0  0.43157  0.38446  0.89867  1.0000
  O   O48       1.0  0.08378  0.30214  0.30305  1.0000
  O   O49       1.0  0.88781  0.27766  0.21434000000000003  1.0000
  O   O50       1.0  0.42864  0.14076  0.15461  1.0000
  O   O51       1.0  0.34945  0.21016  0.18701  1.0000
  O   O52       1.0  0.59676  0.17214  0.1105  1.0000
