data_image0
_chemical_formula_structural       Zn4H80C120N4O16
_chemical_formula_sum              "Zn4 H80 C120 N4 O16"
_cell_length_a       15.17707
_cell_length_b       15.75506
_cell_length_c       16.04534
_cell_angle_alpha    87.72977999999999
_cell_angle_beta     85.14846
_cell_angle_gamma    61.296429999999994

_symmetry_space_group_name_H-M    'P 1'
_symmetry_Int_Tables_number       1

loop_
  _symmetry_equiv_pos_as_xyz
  'x,y,z'

loop_
  _atom_site_type_symbol
  _atom_site_label
  _atom_site_symmetry_multiplicity
  _atom_site_fract_x
  _atom_site_fract_y
  _atom_site_fract_z
  _atom_site_occupancy
  Zn  Zn1       1.0  0.4426700000000002  0.9914999999999998  0.43658  1.0000
  Zn  Zn2       1.0  0.56591  0.9920099999999997  0.0627  1.0000
  Zn  Zn3       1.0  0.55733  0.0085  0.56343  1.0000
  Zn  Zn4       1.0  0.4341  0.00799  0.9373099999999998  1.0000
  H   H1        1.0  0.33348000000000005  0.2804199999999999  0.6787899999999998  1.0000
  H   H2        1.0  0.18835  0.43558  0.72744  1.0000
  H   H3        1.0  0.016500000000000105  0.41682999999999987  0.53493  1.0000
  H   H4        1.0  0.16381  0.26009  0.48749  1.0000
  H   H5        1.0  0.9349000000000001  0.54826  0.6298  1.0000
  H   H6        1.0  0.06910000000000004  0.5700699999999999  0.75117  1.0000
  H   H7        1.0  0.99401  0.67938  0.85802  1.0000
  H   H8        1.0  0.8436400000000001  0.81212  0.93391  1.0000
  H   H9        1.0  0.66133  0.8277899999999998  0.7370499999999998  1.0000
  H   H10       1.0  0.8090699999999998  0.69523  0.6614  1.0000
  H   H11       1.0  0.22825999999999996  0.06255  0.4387899999999999  1.0000
  H   H12       1.0  0.10164000000000001  0.06608  0.3471499999999999  1.0000
  H   H13       1.0  0.34808000000000006  0.9053899999999999  0.1637  1.0000
  H   H14       1.0  0.4636200000000001  0.9083299999999997  0.26262  1.0000
  H   H15       1.0  0.06505000000000002  0.010939999999999998  0.22391  1.0000
  H   H16       1.0  0.22511000000000006  0.96547  0.07733  1.0000
  H   H17       1.0  0.9932800000000005  0.84664  0.84893  1.0000
  H   H18       1.0  0.16102  0.70401  0.8445999999999998  1.0000
  H   H19       1.0  0.2871  0.6908  0.94157  1.0000
  H   H20       1.0  0.24406000000000003  0.82206  0.041829999999999985  1.0000
  H   H21       1.0  0.3865799999999998  0.28008  0.82093  1.0000
  H   H22       1.0  0.37583000000000005  0.4357299999999999  0.77281  1.0000
  H   H23       1.0  0.56666  0.4178499999999999  0.96468  1.0000
  H   H24       1.0  0.57685  0.26059  0.01159  1.0000
  H   H25       1.0  0.5165900000000001  0.54914  0.87008  1.0000
  H   H26       1.0  0.3606  0.56999  0.74926  1.0000
  H   H27       1.0  0.32617000000000024  0.6786999999999997  0.64217  1.0000
  H   H28       1.0  0.34272000000000025  0.8118999999999998  0.56603  1.0000
  H   H29       1.0  0.50984  0.82896  0.76197  1.0000
  H   H30       1.0  0.49554999999999993  0.69621  0.83793  1.0000
  H   H31       1.0  0.7093300000000001  0.06295  0.06148  1.0000
  H   H32       1.0  0.83249  0.06625999999999999  0.15313  1.0000
  H   H33       1.0  0.7463400000000002  0.9051399999999997  0.33582  1.0000
  H   H34       1.0  0.6279999999999999  0.90822  0.23676999999999995  1.0000
  H   H35       1.0  0.9241299999999999  0.01071  0.27622  1.0000
  H   H36       1.0  0.80933  0.96544  0.42252  1.0000
  H   H37       1.0  0.1597500000000001  0.8468799999999997  0.65069  1.0000
  H   H38       1.0  0.13440000000000005  0.70414  0.65506  1.0000
  H   H39       1.0  0.021730000000000013  0.6904799999999999  0.55808  1.0000
  H   H40       1.0  0.9338900000000002  0.8213999999999998  0.45785  1.0000
  H   H41       1.0  0.6665300000000001  0.7195799999999999  0.32121  1.0000
  H   H42       1.0  0.8116600000000002  0.5644199999999999  0.27256  1.0000
  H   H43       1.0  0.9835  0.58317  0.46507  1.0000
  H   H44       1.0  0.8362  0.73991  0.51251  1.0000
  H   H45       1.0  0.06511000000000002  0.4517399999999999  0.37021  1.0000
  H   H46       1.0  0.9309000000000001  0.42993  0.24884  1.0000
  H   H47       1.0  0.006000000000000035  0.32061999999999996  0.14198  1.0000
  H   H48       1.0  0.15637  0.18788  0.06609  1.0000
  H   H49       1.0  0.33868  0.17221  0.26295  1.0000
  H   H50       1.0  0.19093000000000002  0.30476999999999993  0.3386  1.0000
  H   H51       1.0  0.7717500000000003  0.9374499999999998  0.56121  1.0000
  H   H52       1.0  0.8983600000000002  0.9339199999999998  0.65285  1.0000
  H   H53       1.0  0.65193  0.09461  0.8363  1.0000
  H   H54       1.0  0.53638  0.09166999999999997  0.73738  1.0000
  H   H55       1.0  0.93496  0.98906  0.77609  1.0000
  H   H56       1.0  0.7749  0.03452999999999999  0.92267  1.0000
  H   H57       1.0  0.006729999999999999  0.15336  0.15107  1.0000
  H   H58       1.0  0.83899  0.29599  0.15541  1.0000
  H   H59       1.0  0.71291  0.3092  0.05843  1.0000
  H   H60       1.0  0.75595  0.17794  0.95817  1.0000
  H   H61       1.0  0.61343  0.71992  0.17907  1.0000
  H   H62       1.0  0.6241800000000003  0.56427  0.22719  1.0000
  H   H63       1.0  0.4333500000000001  0.5821499999999998  0.03532  1.0000
  H   H64       1.0  0.42314999999999997  0.73941  0.98841  1.0000
  H   H65       1.0  0.48342000000000007  0.4508599999999999  0.12993  1.0000
  H   H66       1.0  0.6394000000000001  0.4300099999999999  0.25075  1.0000
  H   H67       1.0  0.6738300000000002  0.32129999999999986  0.35783  1.0000
  H   H68       1.0  0.6572900000000002  0.1881  0.43397  1.0000
  H   H69       1.0  0.4901700000000001  0.17103999999999994  0.23804  1.0000
  H   H70       1.0  0.5044600000000001  0.3037899999999999  0.16208  1.0000
  H   H71       1.0  0.29068000000000005  0.9370499999999999  0.93852  1.0000
  H   H72       1.0  0.16752  0.93374  0.84687  1.0000
  H   H73       1.0  0.25367  0.09485999999999997  0.66418  1.0000
  H   H74       1.0  0.3720100000000002  0.09177999999999997  0.76324  1.0000
  H   H75       1.0  0.07588000000000009  0.9892899999999998  0.72379  1.0000
  H   H76       1.0  0.19068  0.034559999999999994  0.57749  1.0000
  H   H77       1.0  0.84026  0.15312  0.34931  1.0000
  H   H78       1.0  0.86561  0.2958599999999999  0.34495  1.0000
  H   H79       1.0  0.97827  0.3095199999999999  0.44191999999999987  1.0000
  H   H80       1.0  0.06612  0.1786  0.54216  1.0000
  C   C1        1.0  0.34563000000000005  0.16567  0.55229  1.0000
  C   C2        1.0  0.2578500000000001  0.26045999999999997  0.58015  1.0000
  C   C3        1.0  0.26373000000000013  0.3113399999999999  0.64761  1.0000
  C   C4        1.0  0.18231000000000008  0.3988299999999999  0.67394  1.0000
  C   C5        1.0  0.09141000000000006  0.43936999999999987  0.6337099999999998  1.0000
  C   C6        1.0  0.08620000000000004  0.3873399999999999  0.5662799999999998  1.0000
  C   C7        1.0  0.16798000000000005  0.29967  0.53976  1.0000
  C   C8        1.0  0.0034400000000000407  0.5301699999999999  0.66017  1.0000
  C   C9        1.0  0.0003600000000000682  0.58966  0.7205099999999998  1.0000
  C   C10       1.0  0.9124099999999999  0.67506  0.7555  1.0000
  C   C11       1.0  0.9212400000000001  0.7120999999999997  0.8312199999999997  1.0000
  C   C12       1.0  0.83781  0.78581  0.87409  1.0000
  C   C13       1.0  0.74296  0.8259299999999998  0.84183  1.0000
  C   C14       1.0  0.7341900000000001  0.7941899999999997  0.7637099999999998  1.0000
  C   C15       1.0  0.8177200000000001  0.71985  0.72114  1.0000
  C   C16       1.0  0.65272  0.8969899999999997  0.89398  1.0000
  C   C17       1.0  0.25085  0.02788  0.37775  1.0000
  C   C18       1.0  0.18118  0.02975  0.3263  1.0000
  C   C19       1.0  0.2135700000000001  0.9870099999999998  0.24662  1.0000
  C   C20       1.0  0.31766000000000005  0.9413999999999999  0.2238  1.0000
  C   C21       1.0  0.3829300000000003  0.9421399999999998  0.27891  1.0000
  C   C22       1.0  0.13832  0.99335  0.19241  1.0000
  C   C23       1.0  0.15170000000000017  0.9823699999999997  0.10855  1.0000
  C   C24       1.0  0.07354000000000015  0.9923599999999998  0.0549  1.0000
  C   C25       1.0  0.09575999999999994  0.9162  0.99876  1.0000
  C   C26       1.0  0.022300000000000125  0.9235299999999997  0.94307  1.0000
  C   C27       1.0  0.04890000000000001  0.8435899999999998  0.88893  1.0000
  C   C28       1.0  0.14242999999999997  0.76309  0.88742  1.0000
  C   C29       1.0  0.21410000000000007  0.7556499999999999  0.9425399999999998  1.0000
  C   C30       1.0  0.19034000000000012  0.8295199999999998  0.99757  1.0000
  C   C31       1.0  0.49133  0.16468999999999995  0.94628  1.0000
  C   C32       1.0  0.48274000000000006  0.26032  0.91909  1.0000
  C   C33       1.0  0.42532000000000014  0.3112299999999999  0.85212  1.0000
  C   C34       1.0  0.41877999999999993  0.39905  0.82612  1.0000
  C   C35       1.0  0.46911  0.43990999999999997  0.8662  1.0000
  C   C36       1.0  0.52653  0.38811  0.9334  1.0000
  C   C37       1.0  0.53294  0.30011  0.95955  1.0000
  C   C38       1.0  0.4662200000000001  0.53078  0.83977  1.0000
  C   C39       1.0  0.40968000000000004  0.5900099999999998  0.77958  1.0000
  C   C40       1.0  0.4119100000000001  0.6754899999999998  0.74437  1.0000
  C   C41       1.0  0.3659200000000001  0.71208  0.66871  1.0000
  C   C42       1.0  0.37518999999999997  0.78607  0.62572  1.0000
  C   C43       1.0  0.4296600000000001  0.8268199999999998  0.65778  1.0000
  C   C44       1.0  0.47056000000000014  0.7950899999999997  0.73565  1.0000
  C   C45       1.0  0.46185  0.7206  0.77839  1.0000
  C   C46       1.0  0.44886  0.89841  0.60626  1.0000
  C   C47       1.0  0.72143  0.02808  0.12233  1.0000
  C   C48       1.0  0.78923  0.029859999999999998  0.17384  1.0000
  C   C49       1.0  0.7994700000000002  0.9869199999999998  0.25334  1.0000
  C   C50       1.0  0.7408400000000002  0.9412999999999998  0.27588  1.0000
  C   C51       1.0  0.6748900000000003  0.9421199999999997  0.22067  1.0000
  C   C52       1.0  0.8684300000000001  0.9930899999999998  0.3075999999999999  1.0000
  C   C53       1.0  0.86601  0.98218  0.39143  1.0000
  C   C54       1.0  0.9342400000000001  0.9921899999999998  0.44506  1.0000
  C   C55       1.0  0.9879499999999999  0.91602  0.50104  1.0000
  C   C56       1.0  0.0539900000000002  0.9235599999999998  0.5567599999999998  1.0000
  C   C57       1.0  0.10724000000000002  0.8436399999999998  0.61073  1.0000
  C   C58       1.0  0.09408000000000007  0.76309  0.61223  1.0000
  C   C59       1.0  0.029860000000000095  0.7554599999999998  0.55717  1.0000
  C   C60       1.0  0.9799200000000001  0.8292299999999998  0.50217  1.0000
  C   C61       1.0  0.65437  0.83433  0.44771  1.0000
  C   C62       1.0  0.7421600000000003  0.7395399999999998  0.41985  1.0000
  C   C63       1.0  0.7362800000000003  0.6886599999999998  0.35239  1.0000
  C   C64       1.0  0.8177  0.60117  0.32606  1.0000
  C   C65       1.0  0.90859  0.56063  0.3662999999999999  1.0000
  C   C66       1.0  0.91381  0.61266  0.43373  1.0000
  C   C67       1.0  0.8320299999999999  0.70033  0.46024  1.0000
  C   C68       1.0  0.9965700000000004  0.46982999999999997  0.33983  1.0000
  C   C69       1.0  0.99965  0.41033999999999987  0.27949  1.0000
  C   C70       1.0  0.08759000000000008  0.3249399999999999  0.2445  1.0000
  C   C71       1.0  0.07876000000000002  0.28789999999999993  0.16878  1.0000
  C   C72       1.0  0.16219000000000008  0.21418999999999994  0.12590999999999994  1.0000
  C   C73       1.0  0.2570500000000001  0.17407  0.15816999999999995  1.0000
  C   C74       1.0  0.26582000000000006  0.20580999999999994  0.23629  1.0000
  C   C75       1.0  0.18228000000000003  0.28015  0.27886  1.0000
  C   C76       1.0  0.34729  0.10300999999999998  0.10602  1.0000
  C   C77       1.0  0.7491600000000002  0.9721199999999998  0.62225  1.0000
  C   C78       1.0  0.8188300000000001  0.9702499999999997  0.6737  1.0000
  C   C79       1.0  0.7864400000000004  0.012989999999999998  0.75339  1.0000
  C   C80       1.0  0.6823500000000001  0.058599999999999985  0.7762099999999997  1.0000
  C   C81       1.0  0.61708  0.05786  0.72109  1.0000
  C   C82       1.0  0.86169  0.0066500000000000005  0.80759  1.0000
  C   C83       1.0  0.8483  0.01763  0.89145  1.0000
  C   C84       1.0  0.9264700000000002  0.007639999999999998  0.9450999999999998  1.0000
  C   C85       1.0  0.90425  0.0838  0.00124  1.0000
  C   C86       1.0  0.9777  0.07647  0.05694  1.0000
  C   C87       1.0  0.95111  0.15641  0.11106999999999997  1.0000
  C   C88       1.0  0.85758  0.23690999999999998  0.11258999999999997  1.0000
  C   C89       1.0  0.78591  0.24434999999999996  0.05747  1.0000
  C   C90       1.0  0.80966  0.17048  0.00243  1.0000
  C   C91       1.0  0.5086700000000001  0.83531  0.05372  1.0000
  C   C92       1.0  0.5172600000000002  0.7396799999999998  0.08092  1.0000
  C   C93       1.0  0.57468  0.6887699999999999  0.14788  1.0000
  C   C94       1.0  0.5812300000000001  0.60095  0.17388  1.0000
  C   C95       1.0  0.5308999999999999  0.56009  0.1338  1.0000
  C   C96       1.0  0.47348  0.61189  0.0666  1.0000
  C   C97       1.0  0.4670600000000003  0.6998899999999998  0.04045  1.0000
  C   C98       1.0  0.53379  0.4692199999999999  0.16023  1.0000
  C   C99       1.0  0.59032  0.40998999999999997  0.22042  1.0000
  C   C100      1.0  0.5881000000000001  0.3245099999999999  0.2556299999999999  1.0000
  C   C101      1.0  0.6340799999999996  0.28791999999999995  0.33129  1.0000
  C   C102      1.0  0.6248199999999999  0.21392999999999995  0.37428  1.0000
  C   C103      1.0  0.57035  0.17318  0.34223  1.0000
  C   C104      1.0  0.52944  0.20490999999999995  0.26435  1.0000
  C   C105      1.0  0.53816  0.2794  0.22162  1.0000
  C   C106      1.0  0.55115  0.10158999999999997  0.39374  1.0000
  C   C107      1.0  0.27858000000000005  0.9719199999999998  0.8776699999999997  1.0000
  C   C108      1.0  0.2107800000000002  0.9701399999999998  0.82616  1.0000
  C   C109      1.0  0.20054000000000002  0.013079999999999996  0.74666  1.0000
  C   C110      1.0  0.25917  0.05869999999999999  0.72413  1.0000
  C   C111      1.0  0.32511  0.05787999999999999  0.77933  1.0000
  C   C112      1.0  0.13158000000000003  0.0069099999999999995  0.6924099999999997  1.0000
  C   C113      1.0  0.134  0.01782  0.60857  1.0000
  C   C114      1.0  0.06577  0.00781  0.55494  1.0000
  C   C115      1.0  0.012060000000000026  0.08397999999999997  0.49896  1.0000
  C   C116      1.0  0.9460200000000002  0.07644  0.44324  1.0000
  C   C117      1.0  0.8927700000000001  0.15636  0.38928  1.0000
  C   C118      1.0  0.9059300000000001  0.23690999999999998  0.38778  1.0000
  C   C119      1.0  0.9701500000000003  0.24453999999999995  0.44283  1.0000
  C   C120      1.0  0.020089999999999993  0.17077  0.49784  1.0000
  N   N1        1.0  0.3504300000000002  0.98483  0.35487  1.0000
  N   N2        1.0  0.66474  0.9850199999999998  0.14488999999999994  1.0000
  N   N3        1.0  0.64957  0.015169999999999996  0.64513  1.0000
  N   N4        1.0  0.33527  0.014979999999999997  0.85511  1.0000
  O   O1        1.0  0.33361  0.12321  0.4918299999999999  1.0000
  O   O2        1.0  0.42499  0.13456  0.59204  1.0000
  O   O3        1.0  0.66928  0.9220499999999999  0.96322  1.0000
  O   O4        1.0  0.5664000000000002  0.9251499999999998  0.86669  1.0000
  O   O5        1.0  0.54875  0.12105999999999997  0.0047399999999999986  1.0000
  O   O6        1.0  0.44173  0.13383  0.90803  1.0000
  O   O7        1.0  0.40629000000000004  0.9250699999999997  0.53753  1.0000
  O   O8        1.0  0.5079600000000001  0.9253999999999998  0.63366  1.0000
  O   O9        1.0  0.66639  0.8767899999999997  0.50817  1.0000
  O   O10       1.0  0.5750200000000002  0.8654399999999998  0.40796  1.0000
  O   O11       1.0  0.33073  0.07794999999999998  0.03678999999999999  1.0000
  O   O12       1.0  0.43361  0.07484999999999997  0.13332  1.0000
  O   O13       1.0  0.45126000000000005  0.8789399999999999  0.99526  1.0000
  O   O14       1.0  0.55827  0.8661699999999998  0.09197  1.0000
  O   O15       1.0  0.59372  0.07493  0.46247  1.0000
  O   O16       1.0  0.4920400000000001  0.07459  0.36635  1.0000
