data_image0
_chemical_formula_structural       Ho4H50C78N6O28
_chemical_formula_sum              "Ho4 H50 C78 N6 O28"
_cell_length_a       12.81226
_cell_length_b       13.97402
_cell_length_c       14.52275
_cell_angle_alpha    66.10832
_cell_angle_beta     66.94932
_cell_angle_gamma    77.09544

_space_group_name_H-M_alt    "P 1"
_space_group_IT_number       1

loop_
  _space_group_symop_operation_xyz
  'x, y, z'

loop_
  _atom_site_type_symbol
  _atom_site_label
  _atom_site_symmetry_multiplicity
  _atom_site_fract_x
  _atom_site_fract_y
  _atom_site_fract_z
  _atom_site_occupancy
  Ho  Ho1       1.0  0.57718  0.10725  0.99342  1.0000
  Ho  Ho2       1.0  0.5689599999999998  0.1895  0.32162  1.0000
  Ho  Ho3       1.0  0.4257099999999999  0.8877600000000002  0.007629999999999999  1.0000
  Ho  Ho4       1.0  0.43071999999999994  0.8124800000000002  0.67572  1.0000
  H   H1        1.0  0.63791  0.3328800000000002  0.89072  1.0000
  H   H2        1.0  0.5754499999999999  0.28829000000000005  0.8382699999999998  1.0000
  H   H3        1.0  0.59965  0.25486000000000003  0.44599999999999995  1.0000
  H   H4        1.0  0.47165999999999997  0.21399999999999997  0.50335  1.0000
  H   H5        1.0  0.41257  0.47023  0.16538999999999995  1.0000
  H   H6        1.0  0.22064999999999993  0.6428000000000001  0.97055  1.0000
  H   H7        1.0  0.32577999999999996  0.3203100000000001  0.00204  1.0000
  H   H8        1.0  0.11942999999999994  0.35043  0.02268  1.0000
  H   H9        1.0  0.0031099999999999674  0.35031  0.92177  1.0000
  H   H10       1.0  0.012850000000000021  0.49287  0.74665  1.0000
  H   H11       1.0  0.1455799999999999  0.63215  0.6739  1.0000
  H   H12       1.0  0.65954  0.92635  0.74671  1.0000
  H   H13       1.0  0.76981  0.8154900000000002  0.6372  1.0000
  H   H14       1.0  0.9597499999999997  0.7321500000000001  0.64906  1.0000
  H   H15       1.0  0.03610000000000003  0.7583999999999999  0.76757  1.0000
  H   H16       1.0  0.7904999999999999  0.8673900000000002  0.03082  1.0000
  H   H17       1.0  0.07985999999999994  0.8705200000000002  0.08918  1.0000
  H   H18       1.0  0.11597999999999989  0.8691700000000003  0.7839499999999999  1.0000
  H   H19       1.0  0.1566  0.98185  0.55044  1.0000
  H   H20       1.0  0.95109  0.03685000000000006  0.6096199999999999  1.0000
  H   H21       1.0  0.88471  0.18181999999999998  0.68293  1.0000
  H   H22       1.0  0.02255000000000002  0.26679000000000025  0.7002199999999997  1.0000
  H   H23       1.0  0.19977999999999996  0.38406000000000007  0.57053  1.0000
  H   H24       1.0  0.42035  0.35107000000000005  0.72781  1.0000
  H   H25       1.0  0.30099  0.07474  0.75505  1.0000
  H   H26       1.0  0.36116999999999994  0.6636900000000001  0.11136  1.0000
  H   H27       1.0  0.42113  0.7094800000000002  0.16525  1.0000
  H   H28       1.0  0.4011499999999999  0.7452200000000001  0.55391  1.0000
  H   H29       1.0  0.53003  0.78566  0.49867  1.0000
  H   H30       1.0  0.5876599999999997  0.5298400000000002  0.83524  1.0000
  H   H31       1.0  0.7800299999999998  0.3568  0.0297  1.0000
  H   H32       1.0  0.67429  0.67969  0.99826  1.0000
  H   H33       1.0  0.8803700000000004  0.64902  0.97783  1.0000
  H   H34       1.0  0.9967199999999997  0.6492100000000002  0.07859  1.0000
  H   H35       1.0  0.98659  0.50673  0.25338  1.0000
  H   H36       1.0  0.85442  0.36785  0.32637  1.0000
  H   H37       1.0  0.34063  0.07365  0.2532  1.0000
  H   H38       1.0  0.2302  0.18433000000000002  0.36230999999999997  1.0000
  H   H39       1.0  0.04031999999999999  0.26780000000000004  0.35076  1.0000
  H   H40       1.0  0.9646199999999997  0.24116000000000012  0.23226  1.0000
  H   H41       1.0  0.20928000000000013  0.13270000000000004  0.9691099999999998  1.0000
  H   H42       1.0  0.9189199999999998  0.12949000000000005  0.9124099999999998  1.0000
  H   H43       1.0  0.8836999999999998  0.13068000000000005  0.21664999999999995  1.0000
  H   H44       1.0  0.8438099999999997  0.018000000000000026  0.44904999999999995  1.0000
  H   H45       1.0  0.049079999999999936  0.9628500000000003  0.3903899999999999  1.0000
  H   H46       1.0  0.11592000000000002  0.81812  0.31702  1.0000
  H   H47       1.0  0.9779599999999999  0.73314  0.29979  1.0000
  H   H48       1.0  0.8001199999999998  0.61605  0.42944  1.0000
  H   H49       1.0  0.5795499999999999  0.6490600000000002  0.27209  1.0000
  H   H50       1.0  0.6987799999999998  0.92509  0.24504  1.0000
  C   C1        1.0  0.43485  0.28392999999999996  0.13932  1.0000
  C   C2        1.0  0.37293  0.38369000000000003  0.09095  1.0000
  C   C3        1.0  0.37019999999999986  0.4732300000000001  0.11219999999999997  1.0000
  C   C4        1.0  0.26602999999999993  0.5690900000000001  0.00218  1.0000
  C   C5        1.0  0.26439999999999997  0.48418  0.97434  1.0000
  C   C6        1.0  0.3209599999999998  0.38982  0.02005  1.0000
  C   C7        1.0  0.19993999999999995  0.49012000000000006  0.9062499999999999  1.0000
  C   C8        1.0  0.12594000000000005  0.41156  0.94546  1.0000
  C   C9        1.0  0.059220000000000085  0.4122900000000001  0.8889999999999998  1.0000
  C   C10       1.0  0.06422000000000004  0.49182  0.79131  1.0000
  C   C11       1.0  0.13732  0.5700000000000002  0.7506699999999997  1.0000
  C   C12       1.0  0.20505000000000004  0.5700800000000003  0.8064999999999999  1.0000
  C   C13       1.0  0.28568000000000005  0.65318  0.7528599999999999  1.0000
  C   C14       1.0  0.7153499999999997  0.97477  0.87476  1.0000
  C   C15       1.0  0.7867500000000001  0.90548  0.8159499999999997  1.0000
  C   C16       1.0  0.74286  0.8895000000000001  0.7494799999999999  1.0000
  C   C17       1.0  0.8046300000000003  0.82791  0.6882599999999998  1.0000
  C   C18       1.0  0.91079  0.7813200000000001  0.6953699999999999  1.0000
  C   C19       1.0  0.9540199999999996  0.79643  0.7622499999999999  1.0000
  C   C20       1.0  0.89349  0.8590300000000003  0.8242799999999999  1.0000
  C   C21       1.0  0.94399  0.86888  0.89563  1.0000
  C   C22       1.0  0.88213  0.87011  0.9993399999999999  1.0000
  C   C23       1.0  0.041399999999999965  0.8696300000000002  0.03484  1.0000
  C   C24       1.0  0.11174000000000008  0.8678500000000001  0.93332  1.0000
  C   C25       1.0  0.06218  0.8689000000000001  0.8631599999999999  1.0000
  C   C26       1.0  0.23827999999999977  0.86643  0.90196  1.0000
  C   C27       1.0  0.32692  0.06432000000000006  0.53821  1.0000
  C   C28       1.0  0.20523  0.09575000000000003  0.58789  1.0000
  C   C29       1.0  0.12619000000000002  0.04507000000000003  0.5822099999999999  1.0000
  C   C30       1.0  0.011069999999999993  0.07695  0.6145  1.0000
  C   C31       1.0  0.97432  0.15834000000000004  0.6547799999999999  1.0000
  C   C32       1.0  0.05182000000000004  0.20669  0.66412  1.0000
  C   C33       1.0  0.16834  0.17655000000000004  0.63106  1.0000
  C   C34       1.0  0.24381  0.22289  0.65453  1.0000
  C   C35       1.0  0.2482599999999999  0.3316700000000001  0.6209  1.0000
  C   C36       1.0  0.36985  0.31429999999999997  0.70807  1.0000
  C   C37       1.0  0.37083999999999995  0.20480000000000004  0.74745  1.0000
  C   C38       1.0  0.30558000000000013  0.1590500000000001  0.7209299999999997  1.0000
  C   C39       1.0  0.4357300000000001  0.13646000000000005  0.8200399999999998  1.0000
  C   C40       1.0  0.5651000000000002  0.71588  0.8607599999999999  1.0000
  C   C41       1.0  0.62689  0.6162400000000003  0.9096299999999998  1.0000
  C   C42       1.0  0.6299899999999999  0.5266200000000002  0.88842  1.0000
  C   C43       1.0  0.7343199999999998  0.43055  0.9982099999999999  1.0000
  C   C44       1.0  0.73562  0.51562  0.025949999999999997  1.0000
  C   C45       1.0  0.6789699999999999  0.61009  0.9804299999999999  1.0000
  C   C46       1.0  0.7997499999999997  0.5093600000000003  0.09417  1.0000
  C   C47       1.0  0.87359  0.588  0.05504  1.0000
  C   C48       1.0  0.9404699999999998  0.58734  0.11125  1.0000
  C   C49       1.0  0.93509  0.50779  0.20888  1.0000
  C   C50       1.0  0.8621499999999997  0.4295200000000001  0.24948  1.0000
  C   C51       1.0  0.7946299999999997  0.42896999999999996  0.19364  1.0000
  C   C52       1.0  0.7140899999999999  0.34609000000000006  0.24786  1.0000
  C   C53       1.0  0.28715  0.0241  0.12398999999999999  1.0000
  C   C54       1.0  0.21459000000000003  0.094  0.18288  1.0000
  C   C55       1.0  0.25744999999999996  0.11019999999999999  0.25  1.0000
  C   C56       1.0  0.19550999999999993  0.17184000000000002  0.31128  1.0000
  C   C57       1.0  0.08936999999999999  0.21853000000000003  0.30444  1.0000
  C   C58       1.0  0.04671  0.20317  0.23746  1.0000
  C   C59       1.0  0.10749999999999997  0.14065999999999998  0.17524  1.0000
  C   C60       1.0  0.05621999999999999  0.13098  0.10469  1.0000
  C   C61       1.0  0.11764  0.12996  0.00092  1.0000
  C   C62       1.0  0.9582500000000002  0.13019000000000008  0.96612  1.0000
  C   C63       1.0  0.8888  0.13192  0.06745  1.0000
  C   C64       1.0  0.9380899999999998  0.13088  0.13768  1.0000
  C   C65       1.0  0.76349  0.13464000000000007  0.09773  1.0000
  C   C66       1.0  0.67176  0.9363700000000003  0.46114  1.0000
  C   C67       1.0  0.7944699999999999  0.9048100000000002  0.4114099999999999  1.0000
  C   C68       1.0  0.8739199999999999  0.95486  0.41733999999999993  1.0000
  C   C69       1.0  0.9891399999999997  0.92287  0.3853399999999999  1.0000
  C   C70       1.0  0.02617000000000001  0.84154  0.34505  1.0000
  C   C71       1.0  0.9485399999999999  0.79344  0.33559  1.0000
  C   C72       1.0  0.83195  0.8238100000000003  0.36826  1.0000
  C   C73       1.0  0.75657  0.7772700000000002  0.34495  1.0000
  C   C74       1.0  0.75183  0.6685200000000002  0.37891  1.0000
  C   C75       1.0  0.63009  0.6856800000000002  0.2919  1.0000
  C   C76       1.0  0.6289299999999998  0.79499  0.253  1.0000
  C   C77       1.0  0.6944299999999998  0.8408500000000001  0.27903  1.0000
  C   C78       1.0  0.56441  0.86302  0.18077  1.0000
  N   N1        1.0  0.31896  0.56594  0.0673  1.0000
  N   N2        1.0  0.9276699999999999  0.87122  0.06789  1.0000
  N   N3        1.0  0.30913999999999997  0.3777900000000001  0.64625  1.0000
  N   N4        1.0  0.6813900000000002  0.43394  0.9330599999999999  1.0000
  N   N5        1.0  0.07166000000000004  0.1288100000000001  0.9327399999999999  1.0000
  N   N6        1.0  0.6909399999999999  0.62241  0.35355  1.0000
  O   O1        1.0  0.47133  0.21876  0.09076  1.0000
  O   O2        1.0  0.44669  0.26983000000000007  0.22779  1.0000
  O   O3        1.0  0.37597  0.6395100000000002  0.7754099999999998  1.0000
  O   O4        1.0  0.26598000000000005  0.74042  0.68158  1.0000
  O   O5        1.0  0.6126199999999999  0.9504700000000005  0.9369  1.0000
  O   O6        1.0  0.7505800000000001  0.05659000000000012  0.8659999999999998  1.0000
  O   O7        1.0  0.30098  0.86974  0.80616  1.0000
  O   O8        1.0  0.2751700000000002  0.86187  0.9725999999999999  1.0000
  O   O9        1.0  0.39132999999999996  0.13778999999999997  0.4659  1.0000
  O   O10       1.0  0.3591099999999999  0.96618  0.56453  1.0000
  O   O11       1.0  0.42845999999999995  0.03741000000000007  0.8532699999999999  1.0000
  O   O12       1.0  0.49276  0.1796  0.84654  1.0000
  O   O13       1.0  0.6392800000000001  0.27648999999999996  0.86562  1.0000
  O   O14       1.0  0.5174699999999999  0.2747700000000002  0.4659399999999999  1.0000
  O   O15       1.0  0.52809  0.78097  0.9099299999999999  1.0000
  O   O16       1.0  0.55388  0.7308400000000002  0.7721399999999999  1.0000
  O   O17       1.0  0.62391  0.35950999999999994  0.22478  1.0000
  O   O18       1.0  0.7330499999999999  0.2594900000000001  0.31987  1.0000
  O   O19       1.0  0.39013  0.04823000000000001  0.06245  1.0000
  O   O20       1.0  0.25253  0.94187  0.13332999999999998  1.0000
  O   O21       1.0  0.7012199999999998  0.13168000000000002  0.19342999999999996  1.0000
  O   O22       1.0  0.7263200000000001  0.13998  0.026929999999999992  1.0000
  O   O23       1.0  0.6080699999999998  0.8624500000000003  0.53369  1.0000
  O   O24       1.0  0.6380099999999999  0.03381000000000004  0.4354  1.0000
  O   O25       1.0  0.57123  0.962  0.14856  1.0000
  O   O26       1.0  0.5085799999999999  0.8204700000000003  0.1526  1.0000
  O   O27       1.0  0.35862999999999995  0.7203500000000003  0.1367  1.0000
  O   O28       1.0  0.4834999999999999  0.7258800000000002  0.53064  1.0000
