data_image0
_chemical_formula_structural       Mn3Ga9P12H78C24N18O48
_chemical_formula_sum              "Mn3 Ga9 P12 H78 C24 N18 O48"
_cell_length_a       13.48365
_cell_length_b       14.10221
_cell_length_c       14.090809999999998
_cell_angle_alpha    110.35248
_cell_angle_beta     108.58822999999998
_cell_angle_gamma    108.68508999999999

_symmetry_space_group_name_H-M    'P 1'
_symmetry_Int_Tables_number       1

loop_
  _symmetry_equiv_pos_as_xyz
  'x,y,z'

loop_
  _atom_site_type_symbol
  _atom_site_label
  _atom_site_symmetry_multiplicity
  _atom_site_fract_x
  _atom_site_fract_y
  _atom_site_fract_z
  _atom_site_occupancy
  Mn  Mn1       1.0  0.47152  0.60987  0.46793999999999997  1.0000
  Mn  Mn2       1.0  0.0029399999999999847  0.53086  0.1414  1.0000
  Mn  Mn3       1.0  0.86203  0.85827  0.39008  1.0000
  Ga  Ga1       1.0  0.2686800000000001  0.4569  0.58001  1.0000
  Ga  Ga2       1.0  0.52918  0.37606  0.53791  1.0000
  Ga  Ga3       1.0  0.6856700000000002  0.4196399999999999  0.87651  1.0000
  Ga  Ga4       1.0  0.99014  0.4621299999999999  0.83808  1.0000
  Ga  Ga5       1.0  0.8099000000000002  0.12343  0.54298  1.0000
  Ga  Ga6       1.0  0.15087  0.16263999999999992  0.62418  1.0000
  Ga  Ga7       1.0  0.7281  0.54382  0.41968000000000005  1.0000
  Ga  Ga8       1.0  0.30859000000000003  0.58007  0.12383  1.0000
  Ga  Ga9       1.0  0.18477  0.87596  0.4569  1.0000
  P   P1        1.0  0.55778  0.6160499999999998  0.67391  1.0000
  P   P2        1.0  0.5866  0.6596699999999999  0.31401  1.0000
  P   P3        1.0  0.8818  0.32575  0.94134  1.0000
  P   P4        1.0  0.27227  0.68541  0.34571  1.0000
  P   P5        1.0  0.94039  0.057749999999999975  0.38393  1.0000
  P   P6        1.0  0.92713  0.65431  0.34047  1.0000
  P   P7        1.0  0.44774  0.37647  0.33011  1.0000
  P   P8        1.0  0.40670000000000006  0.3373  0.68709  1.0000
  P   P9        1.0  0.11770999999999991  0.6692099999999997  0.04681  1.0000
  P   P10       1.0  0.7195900000000002  0.3123799999999999  0.65005  1.0000
  P   P11       1.0  0.07144999999999992  0.95373  0.62297  1.0000
  P   P12       1.0  0.06948999999999998  0.35067  0.66211  1.0000
  H   H1        1.0  0.28833  0.59907  0.76582  1.0000
  H   H2        1.0  0.41864  0.6562599999999998  0.7638600000000001  1.0000
  H   H3        1.0  0.23589  0.55661  0.45396000000000003  1.0000
  H   H4        1.0  0.2631400000000001  0.2998  0.40895  1.0000
  H   H5        1.0  0.14623  0.24397999999999995  0.42907  1.0000
  H   H6        1.0  0.3502099999999999  0.7280699999999998  0.65148  1.0000
  H   H7        1.0  0.27269  0.7468099999999998  0.7322  1.0000
  H   H8        1.0  0.13071000000000005  0.64515  0.51714  1.0000
  H   H9        1.0  0.09591000000000005  0.55282  0.57572  1.0000
  H   H10       1.0  0.014719999999999992  0.3679  0.40458  1.0000
  H   H11       1.0  0.031389999999999973  0.42498  0.31122  1.0000
  H   H12       1.0  0.044179999999999976  0.23901999999999995  0.25965  1.0000
  H   H13       1.0  0.17642000000000002  0.358  0.29417  1.0000
  H   H14       1.0  0.5209  0.2336399999999999  0.83402  1.0000
  H   H15       1.0  0.65371  0.23677000000000004  0.89278  1.0000
  H   H16       1.0  0.78157  0.54593  0.10307  1.0000
  H   H17       1.0  0.8536300000000002  0.5895599999999999  0.89135  1.0000
  H   H18       1.0  0.7176700000000003  0.57127  0.81531  1.0000
  H   H19       1.0  0.69819  0.3492399999999999  0.07734  1.0000
  H   H20       1.0  0.5399  0.26845  0.01593  1.0000
  H   H21       1.0  0.6133  0.4833  0.12932  1.0000
  H   H22       1.0  0.5195500000000001  0.42466000000000004  0.9784300000000001  1.0000
  H   H23       1.0  0.6106099999999999  0.59629  0.9645400000000001  1.0000
  H   H24       1.0  0.72112  0.68957  0.11501000000000001  1.0000
  H   H25       1.0  0.7856  0.74031  0.98023  1.0000
  H   H26       1.0  0.8828100000000001  0.70547  0.06436  1.0000
  H   H27       1.0  0.6878200000000001  0.16622000000000003  0.4000000000000001  1.0000
  H   H28       1.0  0.76144  0.10717000000000002  0.34386  1.0000
  H   H29       1.0  0.6784000000000001  0.89711  0.44255  1.0000
  H   H30       1.0  0.96269  0.10953000000000009  0.6985200000000001  1.0000
  H   H31       1.0  0.90232  0.18514999999999998  0.75589  1.0000
  H   H32       1.0  0.62064  0.9229  0.27136  1.0000
  H   H33       1.0  0.5240899999999998  0.9844299999999999  0.25256  1.0000
  H   H34       1.0  0.48376  0.87084  0.35379  1.0000
  H   H35       1.0  0.54152  0.021780000000000018  0.44645  1.0000
  H   H36       1.0  0.64636  0.03573  0.63181  1.0000
  H   H37       1.0  0.60595  0.88526  0.5744  1.0000
  H   H38       1.0  0.8055  0.02015000000000006  0.7600500000000001  1.0000
  H   H39       1.0  0.81862  0.93628  0.64084  1.0000
  H   H40       1.0  0.71744  0.40608999999999995  0.23757  1.0000
  H   H41       1.0  0.58409  0.3439  0.23509  1.0000
  H   H42       1.0  0.76648  0.44885  0.54897  1.0000
  H   H43       1.0  0.74026  0.7058  0.59279  1.0000
  H   H44       1.0  0.85659  0.7600199999999999  0.57081  1.0000
  H   H45       1.0  0.65062  0.2739400000000001  0.34785  1.0000
  H   H46       1.0  0.7311  0.25622  0.2701  1.0000
  H   H47       1.0  0.87023  0.35775  0.48509  1.0000
  H   H48       1.0  0.9058900000000001  0.45034999999999986  0.42715000000000003  1.0000
  H   H49       1.0  0.9847400000000001  0.6347399999999997  0.59308  1.0000
  H   H50       1.0  0.9723000000000002  0.58108  0.68965  1.0000
  H   H51       1.0  0.9579500000000002  0.76529  0.74021  1.0000
  H   H52       1.0  0.8259500000000001  0.6468  0.70633  1.0000
  H   H53       1.0  0.48009  0.7619899999999998  0.16875  1.0000
  H   H54       1.0  0.3494499999999998  0.7646399999999998  0.10899  1.0000
  H   H55       1.0  0.21728999999999993  0.4504999999999999  0.8995  1.0000
  H   H56       1.0  0.14661999999999997  0.40650999999999987  0.11249  1.0000
  H   H57       1.0  0.28488  0.42868  0.18878000000000003  1.0000
  H   H58       1.0  0.3029299999999999  0.6514599999999999  0.92587  1.0000
  H   H59       1.0  0.46136  0.7295299999999998  0.9860900000000001  1.0000
  H   H60       1.0  0.38544  0.51469  0.87259  1.0000
  H   H61       1.0  0.4788500000000001  0.57284  0.023440000000000003  1.0000
  H   H62       1.0  0.39117  0.40681  0.04174  1.0000
  H   H63       1.0  0.2824600000000001  0.31013  0.89116  1.0000
  H   H64       1.0  0.2168  0.25932999999999995  0.02437  1.0000
  H   H65       1.0  0.11880000000000011  0.29299000000000003  0.9396700000000001  1.0000
  H   H66       1.0  0.31184999999999985  0.8319799999999998  0.59537  1.0000
  H   H67       1.0  0.24131  0.89213  0.65766  1.0000
  H   H68       1.0  0.31805  0.10002999999999997  0.55176  1.0000
  H   H69       1.0  0.034369999999999866  0.8856899999999998  0.29453  1.0000
  H   H70       1.0  0.09701999999999993  0.8099999999999998  0.24097  1.0000
  H   H71       1.0  0.37760000000000005  0.07463999999999996  0.72672  1.0000
  H   H72       1.0  0.47625999999999996  0.015339999999999951  0.7452899999999999  1.0000
  H   H73       1.0  0.5136500000000002  0.12788000000000002  0.64333  1.0000
  H   H74       1.0  0.4563400000000001  0.9770999999999997  0.55075  1.0000
  H   H75       1.0  0.3498499999999999  0.9577299999999997  0.36576  1.0000
  H   H76       1.0  0.3918500000000001  0.10815999999999995  0.41946999999999995  1.0000
  H   H77       1.0  0.19246  0.97429  0.23533  1.0000
  H   H78       1.0  0.17921  0.05886  0.35395  1.0000
  C   C1        1.0  0.28226  0.68262  0.66969  1.0000
  C   C2        1.0  0.16266000000000003  0.59902  0.5572  1.0000
  C   C3        1.0  0.07613999999999996  0.4064799999999999  0.37696  1.0000
  C   C4        1.0  0.12076999999999997  0.3237299999999999  0.32884  1.0000
  C   C5        1.0  0.61184  0.33083  0.013850000000000001  1.0000
  C   C6        1.0  0.60494  0.4432499999999999  0.04295  1.0000
  C   C7        1.0  0.69959  0.6235599999999999  0.03061  1.0000
  C   C8        1.0  0.79242  0.67106  0.99561  1.0000
  C   C9        1.0  0.5980700000000001  0.9863700000000001  0.31681  1.0000
  C   C10       1.0  0.56206  0.9572  0.40019  1.0000
  C   C11       1.0  0.66904  0.96965  0.59281  1.0000
  C   C12       1.0  0.79693  0.004810000000000043  0.67534  1.0000
  C   C13       1.0  0.72003  0.32005  0.33138  1.0000
  C   C14       1.0  0.8385100000000001  0.40382  0.44488  1.0000
  C   C15       1.0  0.92528  0.5975  0.62302  1.0000
  C   C16       1.0  0.8811  0.6806499999999999  0.67105  1.0000
  C   C17       1.0  0.38888  0.66822  0.98858  1.0000
  C   C18       1.0  0.3937900000000001  0.5549  0.9589000000000001  1.0000
  C   C19       1.0  0.30184999999999995  0.3766999999999999  0.97421  1.0000
  C   C20       1.0  0.20925  0.32842  0.009  1.0000
  C   C21       1.0  0.4010300000000001  0.012069999999999994  0.68104  1.0000
  C   C22       1.0  0.43565  0.041460000000000004  0.59719  1.0000
  C   C23       1.0  0.32811  0.025190000000000018  0.40314000000000005  1.0000
  C   C24       1.0  0.20052999999999996  0.9898599999999999  0.31998  1.0000
  N   N1        1.0  0.32576  0.61658  0.71723  1.0000
  N   N2        1.0  0.18161999999999995  0.51316  0.4798  1.0000
  N   N3        1.0  0.19663  0.31245  0.4234  1.0000
  N   N4        1.0  0.6071599999999998  0.28295999999999993  0.8998500000000001  1.0000
  N   N5        1.0  0.70129  0.52054  0.03423  1.0000
  N   N6        1.0  0.77276  0.57619  0.88939  1.0000
  N   N7        1.0  0.70781  0.10026  0.38309  1.0000
  N   N8        1.0  0.66717  0.96596  0.48609  1.0000
  N   N9        1.0  0.88365  0.11114999999999994  0.68685  1.0000
  N   N10       1.0  0.67714  0.38561999999999996  0.28315  1.0000
  N   N11       1.0  0.81951  0.48995  0.52171  1.0000
  N   N12       1.0  0.8051900000000001  0.69165  0.57651  1.0000
  N   N13       1.0  0.39422  0.71656  0.1025  1.0000
  N   N14       1.0  0.29761000000000004  0.47789  0.96795  1.0000
  N   N15       1.0  0.22788  0.42293  0.11465  1.0000
  N   N16       1.0  0.29230999999999996  0.8981399999999998  0.6157  1.0000
  N   N17       1.0  0.33027000000000006  0.031849999999999996  0.51085  1.0000
  N   N18       1.0  0.11372000000000002  0.8841599999999998  0.30895  1.0000
  O   O1        1.0  0.42282000000000014  0.5404  0.56632  1.0000
  O   O2        1.0  0.6113900000000001  0.69608  0.62818  1.0000
  O   O3        1.0  0.60973  0.52877  0.66621  1.0000
  O   O4        1.0  0.56895  0.6766500000000001  0.7904800000000001  1.0000
  O   O5        1.0  0.56389  0.6938199999999999  0.42211  1.0000
  O   O6        1.0  0.6735199999999999  0.7774099999999996  0.3337  1.0000
  O   O7        1.0  0.47069999999999995  0.5945699999999999  0.19931  1.0000
  O   O8        1.0  0.6441  0.58065  0.31148  1.0000
  O   O9        1.0  0.8554500000000002  0.4336099999999999  0.974  1.0000
  O   O10       1.0  0.98116  0.37072  0.06708  1.0000
  O   O11       1.0  0.94168  0.3336100000000001  0.8618000000000001  1.0000
  O   O12       1.0  0.77577  0.20927999999999997  0.88497  1.0000
  O   O13       1.0  0.14095  0.57762  0.27191  1.0000
  O   O14       1.0  0.33977999999999997  0.6650999999999998  0.44309  1.0000
  O   O15       1.0  0.27263  0.8005999999999999  0.39697  1.0000
  O   O16       1.0  0.3315299999999999  0.6876799999999997  0.26843  1.0000
  O   O17       1.0  0.88131  0.02539000000000001  0.45945  1.0000
  O   O18       1.0  0.9148599999999999  0.9323199999999999  0.3039  1.0000
  O   O19       1.0  0.07985999999999997  0.13793999999999998  0.47148000000000007  1.0000
  O   O20       1.0  0.8904  0.11338999999999995  0.32346  1.0000
  O   O21       1.0  0.8706300000000001  0.7285  0.30667  1.0000
  O   O22       1.0  0.89557  0.55601  0.22251  1.0000
  O   O23       1.0  0.87628  0.60471  0.40542999999999996  1.0000
  O   O24       1.0  0.06401  0.7307999999999999  0.41956  1.0000
  O   O25       1.0  0.58191  0.46143  0.43445  1.0000
  O   O26       1.0  0.39949  0.30375  0.38618  1.0000
  O   O27       1.0  0.3852800000000001  0.45473  0.32858  1.0000
  O   O28       1.0  0.43364000000000014  0.30539  0.21438  1.0000
  O   O29       1.0  0.42491999999999996  0.29223  0.57976  1.0000
  O   O30       1.0  0.31732  0.22429000000000002  0.67752  1.0000
  O   O31       1.0  0.52176  0.40228  0.80249  1.0000
  O   O32       1.0  0.34968  0.4160999999999999  0.68521  1.0000
  O   O33       1.0  0.14726  0.5649399999999999  0.02648  1.0000
  O   O34       1.0  0.013390000000000063  0.6137300000000001  0.9180000000000001  1.0000
  O   O35       1.0  0.056539999999999944  0.6700699999999998  0.12649  1.0000
  O   O36       1.0  0.21953  0.7851599999999997  0.09210000000000002  1.0000
  O   O37       1.0  0.84496  0.4199999999999999  0.71146  1.0000
  O   O38       1.0  0.6398  0.32064999999999994  0.54549  1.0000
  O   O39       1.0  0.71963  0.19738  0.60011  1.0000
  O   O40       1.0  0.66461  0.3154  0.73107  1.0000
  O   O41       1.0  0.1201000000000001  0.97252  0.5379  1.0000
  O   O42       1.0  0.09556999999999996  0.08250999999999992  0.6958  1.0000
  O   O43       1.0  0.9303400000000001  0.87377  0.5447  1.0000
  O   O44       1.0  0.12878999999999993  0.9098999999999998  0.69461  1.0000
  O   O45       1.0  0.13297000000000006  0.28933  0.70903  1.0000
  O   O46       1.0  0.09358000000000002  0.45532  0.77453  1.0000
  O   O47       1.0  0.11999999999999998  0.3996199999999999  0.5967  1.0000
  O   O48       1.0  0.9334100000000001  0.26893  0.58365  1.0000
