data_image0
_chemical_formula_structural       Cu12H40C68O40
_chemical_formula_sum              "Cu12 H40 C68 O40"
_cell_length_a       8.08867
_cell_length_b       18.23336
_cell_length_c       18.66153
_cell_angle_alpha    90.01161
_cell_angle_beta     89.98481
_cell_angle_gamma    89.96946999999999

_space_group_name_H-M_alt    "P 1"
_space_group_IT_number       1

loop_
  _space_group_symop_operation_xyz
  'x, y, z'

loop_
  _atom_site_type_symbol
  _atom_site_label
  _atom_site_symmetry_multiplicity
  _atom_site_fract_x
  _atom_site_fract_y
  _atom_site_fract_z
  _atom_site_occupancy
  Cu  Cu1       1.0  0.77887  0.93724  0.4272300000000001  1.0000
  Cu  Cu2       1.0  0.77788  0.56309  0.07304000000000001  1.0000
  Cu  Cu3       1.0  0.71942  0.06315  0.92868  1.0000
  Cu  Cu4       1.0  0.71967  0.43677  0.57252  1.0000
  Cu  Cu5       1.0  0.22073999999999994  0.06281  0.5726300000000001  1.0000
  Cu  Cu6       1.0  0.21956  0.4366  0.9262100000000001  1.0000
  Cu  Cu7       1.0  0.28085  0.93677  0.07181000000000001  1.0000
  Cu  Cu8       1.0  0.2799399999999999  0.56344  0.42738000000000004  1.0000
  Cu  Cu9       1.0  0.0008700000000000001  0.50005  0.5003800000000002  1.0000
  Cu  Cu10      1.0  0.0017899999999999997  0.9996299999999999  0.99913  1.0000
  Cu  Cu11      1.0  0.49973999999999996  0.49946  0.9993000000000001  1.0000
  Cu  Cu12      1.0  0.5000599999999997  0.9999900000000002  0.50005  1.0000
  H   H1        1.0  0.80045  0.71357  0.50999  1.0000
  H   H2        1.0  0.53697  0.62084  0.68839  1.0000
  H   H3        1.0  0.55599  0.85547  0.66004  1.0000
  H   H4        1.0  0.3517399999999999  0.70145  0.7571900000000001  1.0000
  H   H5        1.0  0.9822199999999998  0.47334  0.62792  1.0000
  H   H6        1.0  0.79806  0.78718  0.99045  1.0000
  H   H7        1.0  0.5353699999999998  0.87883  0.8112900000000002  1.0000
  H   H8        1.0  0.5581  0.64427  0.84013  1.0000
  H   H9        1.0  0.34927  0.79667  0.7430200000000001  1.0000
  H   H10       1.0  0.98009  0.02699  0.87183  1.0000
  H   H11       1.0  0.70036  0.28623  0.01065  1.0000
  H   H12       1.0  0.9664599999999998  0.37881  0.18847000000000003  1.0000
  H   H13       1.0  0.9414199999999998  0.14409  0.16132  1.0000
  H   H14       1.0  0.1484  0.2984  0.2579  1.0000
  H   H15       1.0  0.51854  0.52175  0.12662  1.0000
  H   H16       1.0  0.69933  0.21332  0.49104  1.0000
  H   H17       1.0  0.96827  0.12189  0.31342  1.0000
  H   H18       1.0  0.9371199999999997  0.3565  0.34029  1.0000
  H   H19       1.0  0.14994  0.20309  0.24465  1.0000
  H   H20       1.0  0.52003  0.9789  0.37207  1.0000
  H   H21       1.0  0.19998  0.28646  0.4900300000000001  1.0000
  H   H22       1.0  0.46295999999999987  0.37944  0.31160000000000004  1.0000
  H   H23       1.0  0.44403  0.14476  0.33962  1.0000
  H   H24       1.0  0.6469799999999998  0.29922  0.24221  1.0000
  H   H25       1.0  0.01757  0.52663  0.3728  1.0000
  H   H26       1.0  0.19919  0.21255  0.00927  1.0000
  H   H27       1.0  0.46425  0.12198999999999999  0.1883  1.0000
  H   H28       1.0  0.4394299999999999  0.35637  0.15882  1.0000
  H   H29       1.0  0.64963  0.20396  0.25592  1.0000
  H   H30       1.0  0.01889  0.9745100000000001  0.1267  1.0000
  H   H31       1.0  0.30004  0.71348  0.9896000000000001  1.0000
  H   H32       1.0  0.034510000000000006  0.62109  0.81151  1.0000
  H   H33       1.0  0.05917  0.85574  0.83891  1.0000
  H   H34       1.0  0.85129  0.70225  0.74238  1.0000
  H   H35       1.0  0.48312  0.47365  0.8721700000000001  1.0000
  H   H36       1.0  0.29992  0.78659  0.50918  1.0000
  H   H37       1.0  0.03332  0.8785900000000001  0.68719  1.0000
  H   H38       1.0  0.061959999999999994  0.64392  0.66031  1.0000
  H   H39       1.0  0.85109  0.79752  0.7561900000000001  1.0000
  H   H40       1.0  0.48033  0.0212  0.6279500000000002  1.0000
  C   C1        1.0  0.68095  0.79129  0.5804700000000002  1.0000
  C   C2        1.0  0.72649  0.72096  0.55804  1.0000
  C   C3        1.0  0.67669  0.66  0.59822  1.0000
  C   C4        1.0  0.57823  0.66925  0.6593800000000001  1.0000
  C   C5        1.0  0.53422  0.73945  0.68288  1.0000
  C   C6        1.0  0.5884199999999998  0.8001  0.6434  1.0000
  C   C7        1.0  0.72462  0.85707  0.53696  1.0000
  C   C8        1.0  0.73405  0.58577  0.57656  1.0000
  C   C9        1.0  0.68192  0.70885  0.9194300000000001  1.0000
  C   C10       1.0  0.7253199999999997  0.77935  0.9421200000000001  1.0000
  C   C11       1.0  0.67463  0.84017  0.9018600000000001  1.0000
  C   C12       1.0  0.5768  0.83059  0.8405500000000002  1.0000
  C   C13       1.0  0.534  0.76022  0.81713  1.0000
  C   C14       1.0  0.58944  0.6998  0.8566  1.0000
  C   C15       1.0  0.72754  0.64284  0.9623  1.0000
  C   C16       1.0  0.7314099999999998  0.9144799999999998  0.9235800000000001  1.0000
  C   C17       1.0  0.81746  0.20847  0.08168000000000002  1.0000
  C   C18       1.0  0.7741199999999998  0.27891  0.05874000000000001  1.0000
  C   C19       1.0  0.82558  0.33997  0.09844  1.0000
  C   C20       1.0  0.9239099999999998  0.33052  0.15962  1.0000
  C   C21       1.0  0.96623  0.26026  0.18356  1.0000
  C   C22       1.0  0.91043  0.19957  0.14449  1.0000
  C   C23       1.0  0.7700399999999997  0.14267  0.03882  1.0000
  C   C24       1.0  0.76887  0.41431  0.0765  1.0000
  C   C25       1.0  0.8144099999999997  0.29169  0.41988000000000003  1.0000
  C   C26       1.0  0.7729  0.2211  0.4429100000000001  1.0000
  C   C27       1.0  0.82632  0.16031  0.40328  1.0000
  C   C28       1.0  0.9243599999999997  0.17007  0.34208  1.0000
  C   C29       1.0  0.96496  0.24047  0.31811000000000006  1.0000
  C   C30       1.0  0.9073699999999998  0.30091  0.3571  1.0000
  C   C31       1.0  0.76591  0.35722  0.46288000000000007  1.0000
  C   C32       1.0  0.77201  0.08578  0.4253900000000001  1.0000
  C   C33       1.0  0.31962  0.20884  0.41946  1.0000
  C   C34       1.0  0.27392  0.27914  0.44197000000000003  1.0000
  C   C35       1.0  0.3234399999999999  0.34017  0.40181  1.0000
  C   C36       1.0  0.42172  0.33101  0.34058  1.0000
  C   C37       1.0  0.46543  0.26085  0.31683  1.0000
  C   C38       1.0  0.41174  0.20013  0.3563700000000001  1.0000
  C   C39       1.0  0.27574  0.14303  0.46294  1.0000
  C   C40       1.0  0.26545  0.41433  0.42339  1.0000
  C   C41       1.0  0.31564  0.29136  0.07961  1.0000
  C   C42       1.0  0.27255  0.22068  0.05738000000000001  1.0000
  C   C43       1.0  0.32409  0.16009  0.09784  1.0000
  C   C44       1.0  0.42198  0.17006  0.15902  1.0000
  C   C45       1.0  0.46429  0.24057  0.18222  1.0000
  C   C46       1.0  0.4083999999999999  0.30078  0.14245000000000002  1.0000
  C   C47       1.0  0.26911  0.35691  0.0361  1.0000
  C   C48       1.0  0.26819  0.08556  0.07635  1.0000
  C   C49       1.0  0.18295999999999996  0.79139  0.91868  1.0000
  C   C50       1.0  0.22621  0.72092  0.9415400000000002  1.0000
  C   C51       1.0  0.17489  0.65992  0.9017200000000001  1.0000
  C   C52       1.0  0.07673  0.66936  0.8405  1.0000
  C   C53       1.0  0.03424  0.73967  0.81678  1.0000
  C   C54       1.0  0.0901  0.8003  0.85588  1.0000
  C   C55       1.0  0.23020999999999994  0.8572  0.96152  1.0000
  C   C56       1.0  0.23154999999999995  0.58559  0.9235  1.0000
  C   C57       1.0  0.18428  0.70847  0.58043  1.0000
  C   C58       1.0  0.22642  0.77897  0.55734  1.0000
  C   C59       1.0  0.17369  0.83987  0.59696  1.0000
  C   C60       1.0  0.07621  0.83033  0.65837  1.0000
  C   C61       1.0  0.035229999999999984  0.76  0.68242  1.0000
  C   C62       1.0  0.09195  0.69946  0.64339  1.0000
  C   C63       1.0  0.23085  0.64277  0.53731  1.0000
  C   C64       1.0  0.22793  0.9143199999999999  0.57463  1.0000
  C   C65       1.0  0.43158  0.74946  0.7500500000000001  1.0000
  C   C66       1.0  0.06802  0.25055  0.25105000000000005  1.0000
  C   C67       1.0  0.56716  0.2512  0.24930000000000002  1.0000
  C   C68       1.0  0.93228  0.74986  0.74948  1.0000
  O   O1        1.0  0.7003299999999998  0.92108  0.56034  1.0000
  O   O2        1.0  0.78382  0.84445  0.47286  1.0000
  O   O3        1.0  0.84828  0.58185  0.53048  1.0000
  O   O4        1.0  0.66418  0.53012  0.60787  1.0000
  O   O5        1.0  0.9576299999999998  0.44131000000000004  0.58753  1.0000
  O   O6        1.0  0.70679  0.57892  0.93823  1.0000
  O   O7        1.0  0.7847  0.65544  0.02673  1.0000
  O   O8        1.0  0.8422699999999997  0.9185  0.9711500000000001  1.0000
  O   O9        1.0  0.66492  0.97024  0.89094  1.0000
  O   O10       1.0  0.95707  0.05866999999999999  0.91269  1.0000
  O   O11       1.0  0.79315  0.0786  0.06205000000000001  1.0000
  O   O12       1.0  0.70844  0.15541  0.9750600000000001  1.0000
  O   O13       1.0  0.65817  0.4183  0.02886  1.0000
  O   O14       1.0  0.8352999999999998  0.4699999999999999  0.10928  1.0000
  O   O15       1.0  0.5413099999999997  0.5557  0.08754  1.0000
  O   O16       1.0  0.78507  0.42156  0.43965  1.0000
  O   O17       1.0  0.70804  0.34415  0.52719  1.0000
  O   O18       1.0  0.66076  0.08139  0.4728  1.0000
  O   O19       1.0  0.84099  0.0304  0.39287  1.0000
  O   O20       1.0  0.5423  0.9447299999999998  0.41105  1.0000
  O   O21       1.0  0.29985  0.07904  0.43953000000000003  1.0000
  O   O22       1.0  0.21627999999999994  0.15558  0.52703  1.0000
  O   O23       1.0  0.15089  0.41808  0.46937000000000006  1.0000
  O   O24       1.0  0.3349399999999999  0.47003000000000006  0.3920600000000001  1.0000
  O   O25       1.0  0.04215  0.55869  0.4132200000000001  1.0000
  O   O26       1.0  0.29254  0.42113  0.059  1.0000
  O   O27       1.0  0.20832  0.34413  0.9722700000000001  1.0000
  O   O28       1.0  0.15752999999999995  0.08142  0.02872  1.0000
  O   O29       1.0  0.3349399999999999  0.029949999999999997  0.10913  1.0000
  O   O30       1.0  0.04308  0.94162  0.08686  1.0000
  O   O31       1.0  0.20704999999999996  0.92126  0.9381500000000002  1.0000
  O   O32       1.0  0.29162  0.84452  0.02527  1.0000
  O   O33       1.0  0.34225  0.58143  0.9711  1.0000
  O   O34       1.0  0.16499  0.53005  0.8905700000000001  1.0000
  O   O35       1.0  0.45767  0.44136999999999993  0.9122900000000002  1.0000
  O   O36       1.0  0.20753  0.57862  0.56035  1.0000
  O   O37       1.0  0.2915299999999999  0.65565  0.47342  1.0000
  O   O38       1.0  0.3393199999999999  0.9186200000000001  0.52726  1.0000
  O   O39       1.0  0.15866  0.96972  0.60701  1.0000
  O   O40       1.0  0.45748  0.05527  0.58895  1.0000
