data_image0
_chemical_formula_structural       Cd4H72C104N8O16
_chemical_formula_sum              "Cd4 H72 C104 N8 O16"
_cell_length_a       14.02037
_cell_length_b       16.54334
_cell_length_c       16.28865
_cell_angle_alpha    106.82515
_cell_angle_beta     89.90759
_cell_angle_gamma    115.20668

_symmetry_space_group_name_H-M    'P 1'
_symmetry_Int_Tables_number       1

loop_
  _symmetry_equiv_pos_as_xyz
  'x,y,z'

loop_
  _atom_site_type_symbol
  _atom_site_label
  _atom_site_symmetry_multiplicity
  _atom_site_fract_x
  _atom_site_fract_y
  _atom_site_fract_z
  _atom_site_occupancy
  Cd  Cd1       1.0  0.045269999999999956  0.55503  0.9070300000000002  1.0000
  Cd  Cd2       1.0  0.49021  0.4449000000000002  0.5928600000000003  1.0000
  Cd  Cd3       1.0  0.95474  0.44497000000000014  0.09297000000000002  1.0000
  Cd  Cd4       1.0  0.5097900000000001  0.5551000000000003  0.4071400000000001  1.0000
  H   H1        1.0  0.25712  0.33287  0.4835000000000001  1.0000
  H   H2        1.0  0.36123  0.56626  0.22113000000000005  1.0000
  H   H3        1.0  0.07579000000000004  0.3332200000000001  0.9833900000000002  1.0000
  H   H4        1.0  0.74732  0.66767  0.017530000000000007  1.0000
  H   H5        1.0  0.06666000000000004  0.75841  0.30722  1.0000
  H   H6        1.0  0.3143299999999999  0.9737  0.60393  1.0000
  H   H7        1.0  0.38643  0.23868000000000003  0.44657000000000013  1.0000
  H   H8        1.0  0.7568099999999998  0.31484000000000006  0.43680000000000013  1.0000
  H   H9        1.0  0.30811  0.24147  0.19285000000000005  1.0000
  H   H10       1.0  0.93334  0.24159000000000005  0.6927900000000002  1.0000
  H   H11       1.0  0.68276  0.86396  0.13511000000000006  1.0000
  H   H12       1.0  0.38857  0.28168000000000015  0.8216100000000002  1.0000
  H   H13       1.0  0.44200000000000006  0.6853000000000001  0.06323000000000002  1.0000
  H   H14       1.0  0.73949  0.11928  0.06205000000000001  1.0000
  H   H15       1.0  0.6588  0.97356  0.10414000000000002  1.0000
  H   H16       1.0  0.3172499999999999  0.1360400000000001  0.8649000000000002  1.0000
  H   H17       1.0  0.6387700000000001  0.4337400000000002  0.7788700000000002  1.0000
  H   H18       1.0  0.35933000000000004  0.4556400000000001  0.8222900000000002  1.0000
  H   H19       1.0  0.25268000000000007  0.3323300000000001  0.9824800000000002  1.0000
  H   H20       1.0  0.40936  0.66473  0.54466  1.0000
  H   H21       1.0  0.9037  0.54445  0.6778  1.0000
  H   H22       1.0  0.9206400000000001  0.6679300000000002  0.51759  1.0000
  H   H23       1.0  0.74289  0.66712  0.51651  1.0000
  H   H24       1.0  0.18169000000000007  0.8640500000000002  0.6350600000000002  1.0000
  H   H25       1.0  0.8236599999999997  0.55578  0.18397000000000005  1.0000
  H   H26       1.0  0.17764999999999997  0.55751  0.21133000000000005  1.0000
  H   H27       1.0  0.21239  0.06584  0.1419  1.0000
  H   H28       1.0  0.29708  0.06541000000000007  0.3959600000000001  1.0000
  H   H29       1.0  0.51959  0.4921400000000002  0.8300200000000002  1.0000
  H   H30       1.0  0.6406699999999997  0.5443600000000002  0.17772  1.0000
  H   H31       1.0  0.6202399999999998  0.44277  0.28869  1.0000
  H   H32       1.0  0.9723899999999999  0.492  0.33014000000000004  1.0000
  H   H33       1.0  0.61143  0.71832  0.17839000000000002  1.0000
  H   H34       1.0  0.05911000000000013  0.6359700000000003  0.51404  1.0000
  H   H35       1.0  0.70293  0.93459  0.60404  1.0000
  H   H36       1.0  0.14626000000000003  0.93401  0.35816000000000003  1.0000
  H   H37       1.0  0.26788  0.44419  0.31622  1.0000
  H   H38       1.0  0.07937  0.33207000000000003  0.4824100000000001  1.0000
  H   H39       1.0  0.42302  0.36419000000000007  0.9858800000000002  1.0000
  H   H40       1.0  0.37976000000000004  0.5572200000000002  0.7113200000000002  1.0000
  H   H41       1.0  0.14753999999999998  0.76156  0.05327  1.0000
  H   H42       1.0  0.48041999999999996  0.50786  0.16999  1.0000
  H   H43       1.0  0.68568  0.02630000000000005  0.3960700000000001  1.0000
  H   H44       1.0  0.82235  0.4424900000000001  0.7886700000000002  1.0000
  H   H45       1.0  0.2605100000000002  0.8807200000000003  0.9379500000000002  1.0000
  H   H46       1.0  0.2431900000000001  0.6851600000000002  0.5632000000000003  1.0000
  H   H47       1.0  0.79499  0.4339500000000001  0.27900000000000014  1.0000
  H   H48       1.0  0.85247  0.23843999999999999  0.94673  1.0000
  H   H49       1.0  0.6205  0.8805800000000003  0.4382100000000001  1.0000
  H   H50       1.0  0.7876099999999998  0.93415  0.8581  1.0000
  H   H51       1.0  0.37950000000000006  0.11942000000000008  0.5617900000000002  1.0000
  H   H52       1.0  0.57699  0.6358000000000003  0.01413  1.0000
  H   H53       1.0  0.09629999999999997  0.45555  0.3222  1.0000
  H   H54       1.0  0.2308899999999999  0.93478  0.10382  1.0000
  H   H55       1.0  0.9242100000000002  0.6667800000000003  0.01661  1.0000
  H   H56       1.0  0.10686999999999999  0.71841  0.6783200000000003  1.0000
  H   H57       1.0  0.9409  0.36403  0.4859600000000001  1.0000
  H   H58       1.0  0.20500999999999994  0.56605  0.721  1.0000
  H   H59       1.0  0.558  0.3147  0.93678  1.0000
  H   H60       1.0  0.61357  0.76132  0.55343  1.0000
  H   H61       1.0  0.34120000000000006  0.026440000000000068  0.8958600000000002  1.0000
  H   H62       1.0  0.73212  0.5558100000000001  0.6837800000000003  1.0000
  H   H63       1.0  0.17635  0.44422  0.81603  1.0000
  H   H64       1.0  0.8183099999999998  0.13595  0.36494  1.0000
  H   H65       1.0  0.8931399999999998  0.28159000000000006  0.3216900000000001  1.0000
  H   H66       1.0  0.59064  0.33527000000000007  0.45534000000000013  1.0000
  H   H67       1.0  0.74462  0.3351400000000001  0.9555800000000002  1.0000
  H   H68       1.0  0.85374  0.06599000000000008  0.6418400000000002  1.0000
  H   H69       1.0  0.76911  0.06522000000000007  0.8961800000000002  1.0000
  H   H70       1.0  0.6918999999999998  0.7585300000000003  0.8071600000000002  1.0000
  H   H71       1.0  0.027610000000000016  0.5080000000000001  0.6698700000000002  1.0000
  H   H72       1.0  0.25538  0.66486  0.04443  1.0000
  C   C1        1.0  0.12686999999999996  0.44995  0.60244  1.0000
  C   C2        1.0  0.25825  0.49682  0.3692600000000001  1.0000
  C   C3        1.0  0.36587  0.12167000000000008  0.6279800000000002  1.0000
  C   C4        1.0  0.14837000000000003  0.8964600000000001  0.29176  1.0000
  C   C5        1.0  0.1293300000000001  0.7045900000000002  0.8381700000000002  1.0000
  C   C6        1.0  0.14141  0.38343  0.03477  1.0000
  C   C7        1.0  0.75825  0.61689  0.46518  1.0000
  C   C8        1.0  0.7859799999999998  0.48661  0.33246  1.0000
  C   C9        1.0  0.8451599999999998  0.42661  0.5566  1.0000
  C   C10       1.0  0.71754  0.37958  0.002850000000000001  1.0000
  C   C11       1.0  0.75487  0.36874000000000007  0.4932200000000001  1.0000
  C   C12       1.0  0.34081  0.504  0.87329  1.0000
  C   C13       1.0  0.30995999999999996  0.04352000000000001  0.73761  1.0000
  C   C14       1.0  0.80158  0.4909200000000001  0.8374800000000002  1.0000
  C   C15       1.0  0.33786  0.62028  0.49734  1.0000
  C   C16       1.0  0.76141  0.5031  0.13089  1.0000
  C   C17       1.0  0.6894799999999999  0.4912  0.33749000000000007  1.0000
  C   C18       1.0  0.25197  0.10349000000000003  0.20830000000000007  1.0000
  C   C19       1.0  0.24513999999999997  0.63126  0.5067800000000002  1.0000
  C   C20       1.0  0.73338  0.04334000000000002  0.23768000000000006  1.0000
  C   C21       1.0  0.2444800000000001  0.8784900000000001  0.8718500000000002  1.0000
  C   C22       1.0  0.31052000000000013  0.5088000000000003  0.6625100000000003  1.0000
  C   C23       1.0  0.41863000000000006  0.5735100000000002  0.9434300000000002  1.0000
  C   C24       1.0  0.62839  0.78656  0.22514000000000006  1.0000
  C   C25       1.0  0.69562  0.7984  0.7635900000000002  1.0000
  C   C26       1.0  0.43050999999999995  0.4582100000000001  0.10919000000000002  1.0000
  C   C27       1.0  0.027680000000000052  0.4581900000000001  0.6091000000000002  1.0000
  C   C28       1.0  0.6671799999999999  0.86806  0.20129  1.0000
  C   C29       1.0  0.05435999999999996  0.6434  0.14769000000000004  1.0000
  C   C30       1.0  0.1028699999999999  0.79837  0.2636400000000001  1.0000
  C   C31       1.0  0.20108  0.8681700000000001  0.7012600000000002  1.0000
  C   C32       1.0  0.7522  0.94788  0.7349700000000002  1.0000
  C   C33       1.0  0.85164  0.10354000000000009  0.7082400000000002  1.0000
  C   C34       1.0  0.05853999999999993  0.58665  0.4525500000000001  1.0000
  C   C35       1.0  0.6900499999999998  0.95647  0.26239  1.0000
  C   C36       1.0  0.8216500000000001  0.20895  0.18904  1.0000
  C   C37       1.0  0.2666200000000001  0.9566600000000001  0.7623300000000002  1.0000
  C   C38       1.0  0.70283  0.89687  0.64883  1.0000
  C   C39       1.0  0.28246000000000004  0.6204200000000001  0.9971600000000003  1.0000
  C   C40       1.0  0.19557999999999992  0.94792  0.23498000000000005  1.0000
  C   C41       1.0  0.6510200000000002  0.7987700000000001  0.6203100000000003  1.0000
  C   C42       1.0  0.7989199999999997  0.13183000000000006  0.2987500000000001  1.0000
  C   C43       1.0  0.6768599999999998  0.5498400000000001  0.89747  1.0000
  C   C44       1.0  0.8368599999999998  0.49611000000000005  0.6267100000000002  1.0000
  C   C45       1.0  0.85701  0.61652  0.46522000000000013  1.0000
  C   C46       1.0  0.87314  0.55005  0.3975700000000001  1.0000
  C   C47       1.0  0.58137  0.42649  0.056570000000000016  1.0000
  C   C48       1.0  0.6341300000000001  0.8783300000000002  0.37203000000000014  1.0000
  C   C49       1.0  0.35361  0.25156  0.32252  1.0000
  C   C50       1.0  0.8044199999999998  0.052080000000000015  0.76502  1.0000
  C   C51       1.0  0.8585999999999999  0.6165700000000001  0.9652400000000001  1.0000
  C   C52       1.0  0.8523400000000001  0.20107000000000008  0.8797700000000003  1.0000
  C   C53       1.0  0.6138  0.36858  0.99327  1.0000
  C   C54       1.0  0.6592  0.496  0.12671  1.0000
  C   C55       1.0  0.89714  0.20163000000000006  0.7363600000000002  1.0000
  C   C56       1.0  0.24174999999999994  0.38311  0.53482  1.0000
  C   C57       1.0  0.9414599999999999  0.41335000000000005  0.5474500000000001  1.0000
  C   C58       1.0  0.33281999999999995  0.13194000000000008  0.7987100000000003  1.0000
  C   C59       1.0  0.5751500000000003  0.7045000000000003  0.33839000000000014  1.0000
  C   C60       1.0  0.32848000000000005  0.04043000000000008  0.6519400000000002  1.0000
  C   C61       1.0  0.4248599999999999  0.2955  0.66162  1.0000
  C   C62       1.0  0.14765999999999996  0.79893  0.12023000000000003  1.0000
  C   C63       1.0  0.7594899999999998  0.61624  0.9651800000000003  1.0000
  C   C64       1.0  0.5695  0.5417900000000001  0.8908100000000002  1.0000
  C   C65       1.0  0.2971699999999999  0.10313000000000004  0.3511800000000001  1.0000
  C   C66       1.0  0.9456499999999999  0.3566000000000001  0.8523100000000002  1.0000
  C   C67       1.0  0.19842000000000007  0.5090800000000001  0.16252000000000005  1.0000
  C   C68       1.0  0.7417499999999998  0.50318  0.63075  1.0000
  C   C69       1.0  0.70049  0.48636000000000007  0.8323700000000003  1.0000
  C   C70       1.0  0.80632  0.10299999999999995  0.85127  1.0000
  C   C71       1.0  0.30438  0.20160000000000006  0.23642  1.0000
  C   C72       1.0  0.41030000000000005  0.35673000000000005  0.3524400000000001  1.0000
  C   C73       1.0  0.21402  0.51339  0.6675400000000002  1.0000
  C   C74       1.0  0.5897  0.6432700000000001  0.6475600000000002  1.0000
  C   C75       1.0  0.34898000000000007  0.2012200000000001  0.37969000000000014  1.0000
  C   C76       1.0  0.32313999999999987  0.45016  0.10253000000000002  1.0000
  C   C77       1.0  0.3862  0.63142  0.00674  1.0000
  C   C78       1.0  0.61261  0.7909  0.31106  1.0000
  C   C79       1.0  0.37161  0.21343000000000004  0.7748700000000002  1.0000
  C   C80       1.0  0.6715200000000001  0.9595700000000003  0.34806  1.0000
  C   C81       1.0  0.47181  0.41335  0.047410000000000015  1.0000
  C   C82       1.0  0.17836000000000007  0.7910500000000003  0.81096  1.0000
  C   C83       1.0  0.24051000000000003  0.38376000000000005  0.03482  1.0000
  C   C84       1.0  0.1631399999999999  0.50389  0.3732900000000001  1.0000
  C   C85       1.0  0.15822000000000003  0.78668  0.7250800000000002  1.0000
  C   C86       1.0  0.5281899999999998  0.58665  0.9526000000000002  1.0000
  C   C87       1.0  0.89763  0.25148  0.82247  1.0000
  C   C88       1.0  0.29950999999999994  0.51363  0.16763000000000006  1.0000
  C   C89       1.0  0.7116299999999998  0.04025000000000002  0.15211000000000005  1.0000
  C   C90       1.0  0.7555199999999997  0.12151000000000003  0.12816  1.0000
  C   C91       1.0  0.19367999999999994  0.897  0.14873000000000006  1.0000
  C   C92       1.0  0.7480399999999998  0.8965100000000001  0.7917100000000002  1.0000
  C   C93       1.0  0.28836999999999996  0.9597500000000001  0.8479000000000002  1.0000
  C   C94       1.0  0.6463899999999998  0.74843  0.67748  1.0000
  C   C95       1.0  0.10237000000000018  0.7485200000000003  0.17753000000000005  1.0000
  C   C96       1.0  0.14300000000000004  0.3834800000000001  0.53478  1.0000
  C   C97       1.0  0.97232  0.54181  0.39090000000000014  1.0000
  C   C98       1.0  0.15484999999999988  0.57339  0.4434000000000001  1.0000
  C   C99       1.0  0.8417799999999999  0.21332  0.27493  1.0000
  C   C100      1.0  0.87067  0.29541  0.16183000000000006  1.0000
  C   C101      1.0  0.23859  0.49690000000000006  0.8691100000000003  1.0000
  C   C102      1.0  0.6621499999999998  0.37972  0.5026600000000002  1.0000
  C   C103      1.0  0.2478  0.05212000000000005  0.2650400000000001  1.0000
  C   C104      1.0  0.38738999999999996  0.2091000000000001  0.6889400000000002  1.0000
  N   N1        1.0  0.34504  0.55433  0.42954  1.0000
  N   N2        1.0  0.8799100000000002  0.5550700000000003  0.9026400000000002  1.0000
  N   N3        1.0  0.32464  0.44461  0.59741  1.0000
  N   N4        1.0  0.20932000000000006  0.5544300000000001  0.9293200000000003  1.0000
  N   N5        1.0  0.7906799999999999  0.44557  0.07068  1.0000
  N   N6        1.0  0.12008999999999996  0.44493  0.09736000000000003  1.0000
  N   N7        1.0  0.65497  0.4456700000000001  0.5704600000000002  1.0000
  N   N8        1.0  0.67536  0.55539  0.40259  1.0000
  O   O1        1.0  0.5493600000000001  0.6244700000000001  0.28160000000000013  1.0000
  O   O2        1.0  0.05148000000000005  0.5992000000000002  0.06774  1.0000
  O   O3        1.0  0.54922  0.5990000000000001  0.5674600000000002  1.0000
  O   O4        1.0  0.42916999999999994  0.28480000000000005  0.58085  1.0000
  O   O5        1.0  0.41756999999999994  0.40045  0.29801  1.0000
  O   O6        1.0  0.14546  0.71485  0.91872  1.0000
  O   O7        1.0  0.07391000000000003  0.6248500000000001  0.7813500000000002  1.0000
  O   O8        1.0  0.92609  0.37515  0.21865000000000007  1.0000
  O   O9        1.0  0.8545400000000001  0.28515  0.08128  1.0000
  O   O10       1.0  0.4506499999999999  0.37553  0.71841  1.0000
  O   O11       1.0  0.57083  0.7152  0.4191600000000001  1.0000
  O   O12       1.0  0.5824399999999998  0.59955  0.7019900000000002  1.0000
  O   O13       1.0  0.017430000000000116  0.5996800000000002  0.20210000000000006  1.0000
  O   O14       1.0  0.45078  0.4010000000000001  0.4325400000000001  1.0000
  O   O15       1.0  0.9825700000000002  0.4003200000000002  0.7979100000000001  1.0000
  O   O16       1.0  0.9485200000000003  0.40080000000000005  0.9322600000000002  1.0000
