data_image0
_chemical_formula_structural       Zn4H56C72N8O16
_chemical_formula_sum              "Zn4 H56 C72 N8 O16"
_cell_length_a       12.51031
_cell_length_b       13.14098
_cell_length_c       15.98266
_cell_angle_alpha    90.10243000000001
_cell_angle_beta     90.00455
_cell_angle_gamma    90.14847

_symmetry_space_group_name_H-M    'P 1'
_symmetry_Int_Tables_number       1

loop_
  _symmetry_equiv_pos_as_xyz
  'x,y,z'

loop_
  _atom_site_type_symbol
  _atom_site_label
  _atom_site_symmetry_multiplicity
  _atom_site_fract_x
  _atom_site_fract_y
  _atom_site_fract_z
  _atom_site_occupancy
  Zn  Zn1       1.0  0.8506500000000002  0.25009000000000003  0.2510600000000001  1.0000
  Zn  Zn2       1.0  0.14935  0.7499200000000001  0.7489400000000003  1.0000
  Zn  Zn3       1.0  0.64898  0.74983  0.25097  1.0000
  Zn  Zn4       1.0  0.35102000000000005  0.25017  0.7490300000000002  1.0000
  H   H1        1.0  0.07891  0.34181  0.02365  1.0000
  H   H2        1.0  0.9133200000000001  0.50518  0.07051  1.0000
  H   H3        1.0  0.7763000000000002  0.25514  0.43376  1.0000
  H   H4        1.0  0.64557  0.3522100000000001  0.52004  1.0000
  H   H5        1.0  0.5607100000000002  0.51758  0.29504  1.0000
  H   H6        1.0  0.6909800000000003  0.40958  0.21825000000000006  1.0000
  H   H7        1.0  0.4848  0.57254  0.4247300000000001  1.0000
  H   H8        1.0  0.08002000000000002  0.15829000000000001  0.4779700000000001  1.0000
  H   H9        1.0  0.91362  0.9955  0.4293700000000001  1.0000
  H   H10       1.0  0.7770100000000002  0.24537000000000003  0.06774000000000002  1.0000
  H   H11       1.0  0.6465100000000001  0.14835  0.9806900000000002  1.0000
  H   H12       1.0  0.56031  0.9815800000000002  0.20494000000000007  1.0000
  H   H13       1.0  0.69055  0.08948  0.28238000000000013  1.0000
  H   H14       1.0  0.4847500000000001  0.9270600000000002  0.07505  1.0000
  H   H15       1.0  0.9210900000000002  0.65819  0.9763500000000003  1.0000
  H   H16       1.0  0.08668  0.49482000000000004  0.9295000000000002  1.0000
  H   H17       1.0  0.22370000000000007  0.7448600000000001  0.56624  1.0000
  H   H18       1.0  0.3544300000000001  0.6477900000000002  0.4799600000000001  1.0000
  H   H19       1.0  0.4392900000000001  0.48242  0.70496  1.0000
  H   H20       1.0  0.30902  0.59042  0.78175  1.0000
  H   H21       1.0  0.5152000000000001  0.42746000000000006  0.5752700000000002  1.0000
  H   H22       1.0  0.91998  0.84171  0.52204  1.0000
  H   H23       1.0  0.08638000000000001  0.0045000000000000005  0.5706300000000002  1.0000
  H   H24       1.0  0.22299000000000002  0.7546300000000002  0.9322600000000002  1.0000
  H   H25       1.0  0.3534900000000001  0.8516600000000002  0.019310000000000008  1.0000
  H   H26       1.0  0.43969000000000014  0.01842  0.7950600000000002  1.0000
  H   H27       1.0  0.30945  0.9105200000000002  0.7176200000000003  1.0000
  H   H28       1.0  0.51525  0.07294  0.9249500000000003  1.0000
  H   H29       1.0  0.4219700000000001  0.6587300000000003  0.023600000000000006  1.0000
  H   H30       1.0  0.5869900000000001  0.49472  0.07015000000000003  1.0000
  H   H31       1.0  0.7241800000000003  0.74497  0.4338300000000001  1.0000
  H   H32       1.0  0.8545200000000002  0.6478700000000002  0.5200500000000002  1.0000
  H   H33       1.0  0.9397600000000003  0.4821300000000001  0.29496  1.0000
  H   H34       1.0  0.80984  0.59007  0.21807  1.0000
  H   H35       1.0  0.015500000000000002  0.42741  0.42466  1.0000
  H   H36       1.0  0.4212700000000001  0.84068  0.4770900000000001  1.0000
  H   H37       1.0  0.58685  0.00443  0.42965  1.0000
  H   H38       1.0  0.7235200000000003  0.7545100000000002  0.06749  1.0000
  H   H39       1.0  0.85345  0.85165  0.9805700000000003  1.0000
  H   H40       1.0  0.9401500000000003  0.01864  0.20506000000000005  1.0000
  H   H41       1.0  0.8103700000000003  0.9106500000000001  0.28249  1.0000
  H   H42       1.0  0.015450000000000004  0.07306  0.07515  1.0000
  H   H43       1.0  0.57803  0.34127  0.9764100000000002  1.0000
  H   H44       1.0  0.413  0.50529  0.9298500000000002  1.0000
  H   H45       1.0  0.27582  0.25503  0.5661700000000002  1.0000
  H   H46       1.0  0.14548000000000003  0.35213  0.4799500000000001  1.0000
  H   H47       1.0  0.060240000000000016  0.51787  0.70504  1.0000
  H   H48       1.0  0.19016  0.40993  0.7819300000000002  1.0000
  H   H49       1.0  0.9845000000000002  0.57259  0.57534  1.0000
  H   H50       1.0  0.57873  0.15932000000000002  0.5229100000000002  1.0000
  H   H51       1.0  0.41315000000000013  0.99557  0.57035  1.0000
  H   H52       1.0  0.27648000000000006  0.24549  0.9325100000000002  1.0000
  H   H53       1.0  0.14655  0.14836  0.019430000000000006  1.0000
  H   H54       1.0  0.05985  0.98136  0.79494  1.0000
  H   H55       1.0  0.18963000000000002  0.08935  0.7175100000000002  1.0000
  H   H56       1.0  0.9845500000000003  0.9269400000000002  0.9248500000000002  1.0000
  C   C1        1.0  0.9672800000000001  0.31885  0.12715000000000007  1.0000
  C   C2        1.0  0.01434  0.37861  0.057790000000000015  1.0000
  C   C3        1.0  0.9785700000000002  0.47161  0.03472  1.0000
  C   C4        1.0  0.72532  0.31286  0.40585  1.0000
  C   C5        1.0  0.65296  0.36777  0.4533900000000001  1.0000
  C   C6        1.0  0.5908500000000001  0.44394000000000006  0.4148500000000001  1.0000
  C   C7        1.0  0.60471  0.45873  0.3283  1.0000
  C   C8        1.0  0.6777000000000002  0.39923  0.2850100000000001  1.0000
  C   C9        1.0  0.51537  0.50781  0.4599200000000001  1.0000
  C   C10       1.0  0.96909  0.18178  0.37411  1.0000
  C   C11       1.0  0.01591  0.12157000000000003  0.4429500000000001  1.0000
  C   C12       1.0  0.9791100000000003  0.02859  0.4653500000000001  1.0000
  C   C13       1.0  0.7258400000000003  0.18728000000000003  0.09527000000000002  1.0000
  C   C14       1.0  0.6535300000000002  0.13243  0.047320000000000015  1.0000
  C   C15       1.0  0.59102  0.0559  0.08542  1.0000
  C   C16       1.0  0.60457  0.0407  0.17195000000000005  1.0000
  C   C17       1.0  0.6775700000000002  0.10015000000000002  0.21562000000000006  1.0000
  C   C18       1.0  0.5154000000000001  0.9920500000000002  0.040050000000000016  1.0000
  C   C19       1.0  0.03272  0.68115  0.8728500000000002  1.0000
  C   C20       1.0  0.9856600000000002  0.6213900000000002  0.9422100000000002  1.0000
  C   C21       1.0  0.021430000000000008  0.5283900000000001  0.9652800000000002  1.0000
  C   C22       1.0  0.27468000000000004  0.6871400000000002  0.5941600000000002  1.0000
  C   C23       1.0  0.3470400000000001  0.63223  0.54661  1.0000
  C   C24       1.0  0.40915  0.5560600000000001  0.5851500000000002  1.0000
  C   C25       1.0  0.39529  0.54128  0.6717  1.0000
  C   C26       1.0  0.3223  0.6007700000000001  0.7149900000000002  1.0000
  C   C27       1.0  0.4846300000000001  0.49219  0.5400800000000002  1.0000
  C   C28       1.0  0.030900000000000018  0.81822  0.6258900000000002  1.0000
  C   C29       1.0  0.9840900000000002  0.87843  0.5570500000000003  1.0000
  C   C30       1.0  0.02089  0.9714100000000002  0.5346500000000002  1.0000
  C   C31       1.0  0.27416  0.8127200000000001  0.9047300000000003  1.0000
  C   C32       1.0  0.34647  0.86757  0.9526900000000003  1.0000
  C   C33       1.0  0.4089800000000001  0.9441  0.9145800000000002  1.0000
  C   C34       1.0  0.39543000000000006  0.95931  0.8280500000000002  1.0000
  C   C35       1.0  0.32243  0.8998600000000002  0.7843800000000002  1.0000
  C   C36       1.0  0.4846  0.00796  0.9599500000000002  1.0000
  C   C37       1.0  0.5337300000000001  0.6812400000000002  0.12707  1.0000
  C   C38       1.0  0.4864300000000001  0.62175  0.05762000000000001  1.0000
  C   C39       1.0  0.5217100000000001  0.52846  0.03461  1.0000
  C   C40       1.0  0.7750100000000001  0.68711  0.4057800000000001  1.0000
  C   C41       1.0  0.8471500000000002  0.63218  0.4533800000000001  1.0000
  C   C42       1.0  0.9093400000000003  0.55592  0.4148100000000001  1.0000
  C   C43       1.0  0.89567  0.54108  0.3282100000000001  1.0000
  C   C44       1.0  0.8228400000000001  0.60058  0.28488  1.0000
  C   C45       1.0  0.9847500000000002  0.49215  0.4598700000000001  1.0000
  C   C46       1.0  0.53297  0.8187600000000003  0.3732900000000001  1.0000
  C   C47       1.0  0.4853800000000001  0.8779800000000001  0.44263  1.0000
  C   C48       1.0  0.52127  0.9713100000000002  0.4654300000000001  1.0000
  C   C49       1.0  0.7745700000000001  0.81266  0.09522000000000003  1.0000
  C   C50       1.0  0.84663  0.8676000000000003  0.04725  1.0000
  C   C51       1.0  0.9091700000000003  0.94421  0.08542  1.0000
  C   C52       1.0  0.8958400000000002  0.95943  0.17201000000000005  1.0000
  C   C53       1.0  0.82306  0.8998800000000002  0.21568  1.0000
  C   C54       1.0  0.9846600000000002  0.008030000000000002  0.040070000000000015  1.0000
  C   C55       1.0  0.4662600000000001  0.3187600000000001  0.87293  1.0000
  C   C56       1.0  0.51357  0.3782500000000001  0.9423800000000002  1.0000
  C   C57       1.0  0.47829  0.47154  0.9653900000000002  1.0000
  C   C58       1.0  0.22499000000000005  0.31290000000000007  0.5942200000000002  1.0000
  C   C59       1.0  0.15285  0.36782  0.5466200000000002  1.0000
  C   C60       1.0  0.09066000000000002  0.4440800000000001  0.5851900000000002  1.0000
  C   C61       1.0  0.10433000000000002  0.4589200000000001  0.6717900000000002  1.0000
  C   C62       1.0  0.17716000000000004  0.3994200000000001  0.7151200000000002  1.0000
  C   C63       1.0  0.015250000000000001  0.50785  0.54013  1.0000
  C   C64       1.0  0.46703000000000006  0.18124  0.62672  1.0000
  C   C65       1.0  0.51462  0.12202  0.55737  1.0000
  C   C66       1.0  0.4787300000000001  0.028690000000000007  0.53457  1.0000
  C   C67       1.0  0.22543000000000002  0.18734  0.9047800000000003  1.0000
  C   C68       1.0  0.15337  0.1324  0.9527600000000003  1.0000
  C   C69       1.0  0.09083  0.05579  0.9145800000000002  1.0000
  C   C70       1.0  0.10416  0.040570000000000016  0.82799  1.0000
  C   C71       1.0  0.17694  0.10012  0.7843200000000002  1.0000
  C   C72       1.0  0.015340000000000003  0.9919700000000002  0.9599300000000002  1.0000
  N   N1        1.0  0.7381900000000002  0.32793  0.3227800000000001  1.0000
  N   N2        1.0  0.73837  0.17183  0.17833000000000004  1.0000
  N   N3        1.0  0.26181  0.67207  0.6772200000000003  1.0000
  N   N4        1.0  0.26163  0.8281700000000002  0.82168  1.0000
  N   N5        1.0  0.7622700000000002  0.672  0.32264  1.0000
  N   N6        1.0  0.76221  0.82806  0.17835000000000006  1.0000
  N   N7        1.0  0.23773  0.328  0.67736  1.0000
  N   N8        1.0  0.23779  0.17194  0.8216500000000002  1.0000
  O   O1        1.0  0.8960900000000003  0.3632  0.17449000000000006  1.0000
  O   O2        1.0  0.9947900000000001  0.22748  0.13743  1.0000
  O   O3        1.0  0.8996100000000002  0.13697  0.3253100000000001  1.0000
  O   O4        1.0  0.9948400000000002  0.274  0.3660200000000001  1.0000
  O   O5        1.0  0.10391000000000003  0.63681  0.8255100000000002  1.0000
  O   O6        1.0  0.005210000000000002  0.77252  0.86257  1.0000
  O   O7        1.0  0.10039000000000001  0.86304  0.6746900000000002  1.0000
  O   O8        1.0  0.005160000000000002  0.7260000000000002  0.6339800000000002  1.0000
  O   O9        1.0  0.6035700000000002  0.63614  0.17484  1.0000
  O   O10       1.0  0.50769  0.7730400000000002  0.13735  1.0000
  O   O11       1.0  0.6031000000000001  0.8640600000000002  0.3257  1.0000
  O   O12       1.0  0.5073800000000002  0.7266600000000001  0.3629300000000001  1.0000
  O   O13       1.0  0.3964300000000001  0.36387000000000014  0.82516  1.0000
  O   O14       1.0  0.4923000000000001  0.22696000000000002  0.8626500000000002  1.0000
  O   O15       1.0  0.39690000000000003  0.13594  0.6743  1.0000
  O   O16       1.0  0.4926200000000001  0.27334  0.6370700000000002  1.0000
