data_image0
_chemical_formula_structural       Gd4H48C84N12O24
_chemical_formula_sum              "Gd4 H48 C84 N12 O24"
_cell_length_a       16.2402
_cell_length_b       16.25449
_cell_length_c       27.59323
_cell_angle_alpha    80.78146
_cell_angle_beta     80.64732
_cell_angle_gamma    64.72358

_space_group_name_H-M_alt    "P 1"
_space_group_IT_number       1

loop_
  _space_group_symop_operation_xyz
  'x, y, z'

loop_
  _atom_site_type_symbol
  _atom_site_label
  _atom_site_symmetry_multiplicity
  _atom_site_fract_x
  _atom_site_fract_y
  _atom_site_fract_z
  _atom_site_occupancy
  Gd  Gd1       1.0  0.94946  0.4513400000000001  0.9562099999999999  1.0000
  Gd  Gd2       1.0  0.54852  0.0506  0.5439  1.0000
  Gd  Gd3       1.0  0.0505300000000001  0.5486699999999998  0.04379  1.0000
  Gd  Gd4       1.0  0.45148  0.94941  0.4561  1.0000
  H   H1        1.0  0.92297  0.38375  0.79636  1.0000
  H   H2        1.0  0.8909899999999997  0.2945000000000001  0.7405999999999998  1.0000
  H   H3        1.0  0.78969  0.16039000000000006  0.8673399999999998  1.0000
  H   H4        1.0  0.8216399999999998  0.25014000000000003  0.9231799999999998  1.0000
  H   H5        1.0  0.8322  0.32058  0.08259  1.0000
  H   H6        1.0  0.76384  0.25122999999999995  0.15749  1.0000
  H   H7        1.0  0.8628499999999999  0.36806  0.25131  1.0000
  H   H8        1.0  0.9301900000000001  0.43869  0.17621999999999993  1.0000
  H   H9        1.0  0.79372  0.81904  0.0489  1.0000
  H   H10       1.0  0.6423199999999999  0.95519  0.04233  1.0000
  H   H11       1.0  0.56329  0.81533  0.95155  1.0000
  H   H12       1.0  0.7151700000000001  0.6795500000000001  0.9575499999999998  1.0000
  H   H13       1.0  0.61612  0.07714  0.7036  1.0000
  H   H14       1.0  0.7055899999999999  0.10889  0.7593  1.0000
  H   H15       1.0  0.8398299999999999  0.21019000000000004  0.6325299999999998  1.0000
  H   H16       1.0  0.74986  0.17835000000000004  0.57677  1.0000
  H   H17       1.0  0.67979  0.16779000000000002  0.41737  1.0000
  H   H18       1.0  0.74891  0.23618999999999998  0.34229999999999994  1.0000
  H   H19       1.0  0.63171  0.13675  0.24887999999999993  1.0000
  H   H20       1.0  0.56138  0.06958999999999999  0.32424  1.0000
  H   H21       1.0  0.18110000000000004  0.20619  0.4511999999999999  1.0000
  H   H22       1.0  0.04479000000000002  0.35747  0.45785  1.0000
  H   H23       1.0  0.18428999999999987  0.43703  0.5486  1.0000
  H   H24       1.0  0.32034999999999997  0.28519  0.54243  1.0000
  H   H25       1.0  0.07702000000000005  0.61626  0.20363999999999993  1.0000
  H   H26       1.0  0.1090099999999999  0.70551  0.2594  1.0000
  H   H27       1.0  0.21030000000000004  0.83962  0.13266  1.0000
  H   H28       1.0  0.17835  0.74987  0.07683  1.0000
  H   H29       1.0  0.16779  0.67943  0.9174099999999998  1.0000
  H   H30       1.0  0.23615000000000017  0.74878  0.8425099999999998  1.0000
  H   H31       1.0  0.13714  0.63195  0.7486999999999999  1.0000
  H   H32       1.0  0.06981000000000012  0.56132  0.8237899999999998  1.0000
  H   H33       1.0  0.2062799999999999  0.18096999999999996  0.9511  1.0000
  H   H34       1.0  0.3576700000000001  0.044820000000000006  0.9576699999999999  1.0000
  H   H35       1.0  0.4367  0.18468  0.04845  1.0000
  H   H36       1.0  0.2848200000000001  0.32046  0.042459999999999984  1.0000
  H   H37       1.0  0.3838699999999999  0.92287  0.2964  1.0000
  H   H38       1.0  0.2944000000000001  0.8911199999999999  0.24070999999999995  1.0000
  H   H39       1.0  0.16015999999999986  0.78982  0.36748  1.0000
  H   H40       1.0  0.25013  0.82166  0.4232299999999999  1.0000
  H   H41       1.0  0.32019999999999993  0.83222  0.58263  1.0000
  H   H42       1.0  0.25107999999999997  0.7638200000000002  0.65771  1.0000
  H   H43       1.0  0.36828999999999995  0.86326  0.7511299999999999  1.0000
  H   H44       1.0  0.43861000000000006  0.93041  0.6757599999999999  1.0000
  H   H45       1.0  0.8188900000000001  0.79381  0.5488  1.0000
  H   H46       1.0  0.9552  0.64254  0.54215  1.0000
  H   H47       1.0  0.8157  0.5629699999999999  0.45139999999999997  1.0000
  H   H48       1.0  0.6796400000000001  0.71482  0.45756999999999987  1.0000
  C   C1        1.0  0.8866600000000001  0.3792199999999999  0.8953  1.0000
  C   C2        1.0  0.87247  0.3229099999999999  0.86277  1.0000
  C   C3        1.0  0.8941500000000001  0.33444  0.8112799999999998  1.0000
  C   C4        1.0  0.8769999999999999  0.28516  0.7805  1.0000
  C   C5        1.0  0.8375500000000001  0.2233399999999999  0.80106  1.0000
  C   C6        1.0  0.81945  0.20903  0.8526  1.0000
  C   C7        1.0  0.8367600000000001  0.2586300000000001  0.8833099999999998  1.0000
  C   C8        1.0  0.92588  0.42377  0.08102  1.0000
  C   C9        1.0  0.88511  0.3833  0.12533  1.0000
  C   C10       1.0  0.83815  0.33041  0.11973  1.0000
  C   C11       1.0  0.8004899999999999  0.2921  0.16086999999999996  1.0000
  C   C12       1.0  0.80979  0.30595  0.20848  1.0000
  C   C13       1.0  0.85673  0.35866  0.21412  1.0000
  C   C14       1.0  0.89388  0.39746  0.17275  1.0000
  C   C15       1.0  0.8525600000000001  0.66137  0.00845  1.0000
  C   C16       1.0  0.7631100000000001  0.74147  0.0037199999999999993  1.0000
  C   C17       1.0  0.74272  0.81943  0.02762999999999999  1.0000
  C   C18       1.0  0.6594700000000001  0.8945899999999999  0.02402  1.0000
  C   C19       1.0  0.5948999999999998  0.8925300000000002  0.9962  1.0000
  C   C20       1.0  0.61493  0.81483  0.97241  1.0000
  C   C21       1.0  0.6987499999999999  0.7398400000000002  0.9759399999999998  1.0000
  C   C22       1.0  0.62078  0.11335000000000005  0.6046999999999999  1.0000
  C   C23       1.0  0.6769899999999998  0.12766999999999995  0.63721  1.0000
  C   C24       1.0  0.6654599999999999  0.10597  0.68867  1.0000
  C   C25       1.0  0.7148699999999996  0.12298000000000002  0.71941  1.0000
  C   C26       1.0  0.77677  0.16238000000000005  0.6988399999999998  1.0000
  C   C27       1.0  0.7910899999999998  0.1805  0.64729  1.0000
  C   C28       1.0  0.74137  0.16328999999999996  0.61664  1.0000
  C   C29       1.0  0.57646  0.07409000000000002  0.41909  1.0000
  C   C30       1.0  0.61696  0.11482999999999999  0.3748  1.0000
  C   C31       1.0  0.6698800000000001  0.16182  0.38026  1.0000
  C   C32       1.0  0.70801  0.19948  0.33904  1.0000
  C   C33       1.0  0.69396  0.19014  0.29146999999999995  1.0000
  C   C34       1.0  0.64128  0.14307  0.28599  1.0000
  C   C35       1.0  0.60268  0.10595  0.3274599999999999  1.0000
  C   C36       1.0  0.33881000000000006  0.14748  0.4918  1.0000
  C   C37       1.0  0.25862999999999997  0.23697000000000001  0.49638  1.0000
  C   C38       1.0  0.18074000000000004  0.2572099999999999  0.47247  1.0000
  C   C39       1.0  0.10549000000000003  0.3404499999999999  0.47604999999999986  1.0000
  C   C40       1.0  0.10744000000000002  0.40519  0.50383  1.0000
  C   C41       1.0  0.18502  0.38536  0.52764  1.0000
  C   C42       1.0  0.26008  0.30155  0.5241  1.0000
  C   C43       1.0  0.11333999999999995  0.62079  0.10471  1.0000
  C   C44       1.0  0.12752999999999998  0.6770999999999998  0.13724  1.0000
  C   C45       1.0  0.10585  0.66557  0.18872  1.0000
  C   C46       1.0  0.12299000000000006  0.71485  0.2195  1.0000
  C   C47       1.0  0.1624400000000001  0.77667  0.19894999999999996  1.0000
  C   C48       1.0  0.18053999999999998  0.79098  0.1474  1.0000
  C   C49       1.0  0.16323999999999997  0.74137  0.11669999999999998  1.0000
  C   C50       1.0  0.07410000000000012  0.57623  0.9189699999999997  1.0000
  C   C51       1.0  0.11489000000000013  0.61671  0.8746799999999998  1.0000
  C   C52       1.0  0.16183999999999996  0.6696  0.88027  1.0000
  C   C53       1.0  0.19949999999999993  0.7079000000000001  0.83914  1.0000
  C   C54       1.0  0.19019999999999998  0.69406  0.79152  1.0000
  C   C55       1.0  0.14325999999999994  0.6413499999999999  0.78589  1.0000
  C   C56       1.0  0.10611000000000025  0.6025499999999998  0.8272499999999998  1.0000
  C   C57       1.0  0.14743000000000003  0.33863000000000004  0.9915499999999998  1.0000
  C   C58       1.0  0.23688999999999996  0.25854000000000005  0.9962899999999998  1.0000
  C   C59       1.0  0.25727  0.18058  0.97237  1.0000
  C   C60       1.0  0.34051999999999993  0.10541000000000003  0.97599  1.0000
  C   C61       1.0  0.40509  0.10748  0.0038  1.0000
  C   C62       1.0  0.38507  0.18518  0.027599999999999993  1.0000
  C   C63       1.0  0.30124  0.26017  0.02407  1.0000
  C   C64       1.0  0.3792100000000001  0.8866599999999998  0.3953  1.0000
  C   C65       1.0  0.323  0.87234  0.36279  1.0000
  C   C66       1.0  0.33453000000000005  0.89404  0.31132999999999994  1.0000
  C   C67       1.0  0.2851200000000001  0.87702  0.28059999999999996  1.0000
  C   C68       1.0  0.22321999999999997  0.83762  0.30117  1.0000
  C   C69       1.0  0.20889999999999997  0.81951  0.3527099999999999  1.0000
  C   C70       1.0  0.25862  0.83672  0.38337  1.0000
  C   C71       1.0  0.4235400000000001  0.92593  0.58093  1.0000
  C   C72       1.0  0.38303  0.88517  0.6251999999999999  1.0000
  C   C73       1.0  0.33011000000000007  0.83819  0.6197499999999999  1.0000
  C   C74       1.0  0.29198  0.8005300000000001  0.6609599999999998  1.0000
  C   C75       1.0  0.3060299999999999  0.8098700000000001  0.70853  1.0000
  C   C76       1.0  0.35871000000000014  0.85694  0.7140099999999999  1.0000
  C   C77       1.0  0.39731  0.89406  0.67255  1.0000
  C   C78       1.0  0.6611900000000002  0.85253  0.50821  1.0000
  C   C79       1.0  0.74136  0.76303  0.50362  1.0000
  C   C80       1.0  0.81926  0.7428  0.52754  1.0000
  C   C81       1.0  0.8945  0.65956  0.52395  1.0000
  C   C82       1.0  0.89255  0.59482  0.4961699999999999  1.0000
  C   C83       1.0  0.8149700000000001  0.61465  0.47235999999999995  1.0000
  C   C84       1.0  0.73992  0.6984599999999999  0.4759099999999999  1.0000
  N   N1        1.0  0.8060699999999998  0.17855000000000001  0.7733099999999999  1.0000
  N   N2        1.0  0.77451  0.27034  0.25298  1.0000
  N   N3        1.0  0.5076999999999999  0.9643400000000001  0.9899199999999998  1.0000
  N   N4        1.0  0.82156  0.19386  0.7266  1.0000
  N   N5        1.0  0.72947  0.2254  0.24691  1.0000
  N   N6        1.0  0.03557000000000002  0.4923199999999999  0.51015  1.0000
  N   N7        1.0  0.19392999999999994  0.82146  0.2267  1.0000
  N   N8        1.0  0.22549000000000016  0.72967  0.7470199999999998  1.0000
  N   N9        1.0  0.4923  0.03566999999999999  0.01009  1.0000
  N   N10       1.0  0.17843000000000003  0.80615  0.27341  1.0000
  N   N11       1.0  0.2705199999999999  0.77461  0.7531  1.0000
  N   N12       1.0  0.9644300000000001  0.5076899999999998  0.48985  1.0000
  O   O1        1.0  0.9204400000000001  0.43747999999999976  0.87653  1.0000
  O   O2        1.0  0.8672599999999999  0.36824  0.94243  1.0000
  O   O3        1.0  0.9214799999999995  0.40472  0.03855  1.0000
  O   O4        1.0  0.9633500000000002  0.4753999999999999  0.08793  1.0000
  O   O5        1.0  0.8707400000000001  0.5915099999999999  0.98575  1.0000
  O   O6        1.0  0.90789  0.66542  0.03508  1.0000
  O   O7        1.0  0.56251  0.07949000000000003  0.6234699999999999  1.0000
  O   O8        1.0  0.63191  0.13268  0.55759  1.0000
  O   O9        1.0  0.5951699999999999  0.07886000000000001  0.46153999999999995  1.0000
  O   O10       1.0  0.5251100000000001  0.03631000000000002  0.41210999999999987  1.0000
  O   O11       1.0  0.40855  0.12946  0.51449  1.0000
  O   O12       1.0  0.33501000000000003  0.09183999999999999  0.4653  1.0000
  O   O13       1.0  0.07956  0.56253  0.12346999999999997  1.0000
  O   O14       1.0  0.13273  0.63177  0.05758  1.0000
  O   O15       1.0  0.07850999999999998  0.59529  0.9614499999999999  1.0000
  O   O16       1.0  0.03665000000000013  0.52461  0.9120699999999998  1.0000
  O   O17       1.0  0.12925999999999999  0.4085  0.01426  1.0000
  O   O18       1.0  0.09210999999999998  0.33459  0.96492  1.0000
  O   O19       1.0  0.43748000000000015  0.92052  0.37652999999999986  1.0000
  O   O20       1.0  0.36808  0.86733  0.4424099999999999  1.0000
  O   O21       1.0  0.40482000000000007  0.92115  0.5384599999999999  1.0000
  O   O22       1.0  0.47487999999999997  0.96369  0.5879  1.0000
  O   O23       1.0  0.59143  0.8705499999999999  0.48551  1.0000
  O   O24       1.0  0.6649800000000002  0.9081699999999998  0.5347  1.0000
