data_image0
_chemical_formula_structural       Cd12H40C40N60Cl4
_chemical_formula_sum              "Cd12 H40 C40 N60 Cl4"
_cell_length_a       10.45324
_cell_length_b       13.44195
_cell_length_c       17.74646
_cell_angle_alpha    90.0
_cell_angle_beta     107.03773
_cell_angle_gamma    90.0

_symmetry_space_group_name_H-M    'P 1'
_symmetry_Int_Tables_number       1

loop_
  _symmetry_equiv_pos_as_xyz
  'x,y,z'

loop_
  _atom_site_type_symbol
  _atom_site_label
  _atom_site_symmetry_multiplicity
  _atom_site_fract_x
  _atom_site_fract_y
  _atom_site_fract_z
  _atom_site_occupancy
  Cd  Cd1       1.0  0.42992  0.5253  0.86008  1.0000
  Cd  Cd2       1.0  0.3572  0.7545600000000001  0.71448  1.0000
  Cd  Cd3       1.0  0.31547  0.013810000000000003  0.63066  1.0000
  Cd  Cd4       1.0  0.26698  0.2729  0.53365  1.0000
  Cd  Cd5       1.0  0.57008  0.0253  0.13992  1.0000
  Cd  Cd6       1.0  0.6428  0.25456  0.28552  1.0000
  Cd  Cd7       1.0  0.68453  0.51381  0.36934  1.0000
  Cd  Cd8       1.0  0.73302  0.7729000000000003  0.46635  1.0000
  Cd  Cd9       1.0  0.8969499999999998  0.24319  0.7933599999999998  1.0000
  Cd  Cd10      1.0  0.10305  0.74319  0.20664  1.0000
  Cd  Cd11      1.0  0.9852199999999999  0.78668  0.97051  1.0000
  Cd  Cd12      1.0  0.01478  0.28668  0.02949  1.0000
  H   H1        1.0  0.21002  0.61526  0.96502  1.0000
  H   H2        1.0  0.09410000000000006  0.83358  0.7889  1.0000
  H   H3        1.0  0.59121  0.68094  0.60283  1.0000
  H   H4        1.0  0.54358  0.97428  0.51812  1.0000
  H   H5        1.0  0.007589999999999979  0.3369  0.6317  1.0000
  H   H6        1.0  0.09894000000000003  0.062360000000000006  0.74906  1.0000
  H   H7        1.0  0.60942  0.39837  0.77081  1.0000
  H   H8        1.0  0.69896  0.3936800000000001  0.01723  1.0000
  H   H9        1.0  0.78998  0.11526  0.03498  1.0000
  H   H10       1.0  0.9059  0.33358  0.2111  1.0000
  H   H11       1.0  0.40878999999999993  0.18094000000000005  0.39718  1.0000
  H   H12       1.0  0.45641999999999994  0.47428000000000003  0.48188000000000003  1.0000
  H   H13       1.0  0.9924099999999999  0.8369  0.3683  1.0000
  H   H14       1.0  0.90106  0.5623600000000001  0.25094  1.0000
  H   H15       1.0  0.39058  0.89837  0.22919  1.0000
  H   H16       1.0  0.3010399999999999  0.8936800000000003  0.98277  1.0000
  H   H17       1.0  0.24479999999999996  0.11505  0.03482  1.0000
  H   H18       1.0  0.30512  0.33278  0.21141  1.0000
  H   H19       1.0  0.98875  0.18117  0.39703  1.0000
  H   H20       1.0  0.025549999999999982  0.47440000000000004  0.4817699999999999  1.0000
  H   H21       1.0  0.37542999999999993  0.83673  0.36857  1.0000
  H   H22       1.0  0.34944  0.56233  0.25105  1.0000
  H   H23       1.0  0.83798  0.89875  0.22889  1.0000
  H   H24       1.0  0.68219  0.8944  0.9824100000000001  1.0000
  H   H25       1.0  0.7551999999999999  0.6150500000000001  0.96518  1.0000
  H   H26       1.0  0.69488  0.8327800000000001  0.78859  1.0000
  H   H27       1.0  0.01125000000000001  0.68117  0.60297  1.0000
  H   H28       1.0  0.9744499999999999  0.9744  0.51823  1.0000
  H   H29       1.0  0.62457  0.33672000000000013  0.63143  1.0000
  H   H30       1.0  0.65056  0.06233  0.74895  1.0000
  H   H31       1.0  0.16202000000000008  0.39875  0.77111  1.0000
  H   H32       1.0  0.3178099999999999  0.39440000000000003  0.01759  1.0000
  H   H33       1.0  0.3565  0.34535  0.71369  1.0000
  H   H34       1.0  0.27333  0.57434  0.54611  1.0000
  H   H35       1.0  0.6435  0.8453500000000002  0.28631  1.0000
  H   H36       1.0  0.7266699999999999  0.07434  0.4538999999999999  1.0000
  H   H37       1.0  0.02569  0.01561  0.0521  1.0000
  H   H38       1.0  0.9039899999999998  0.97985  0.80693  1.0000
  H   H39       1.0  0.97431  0.51561  0.9479099999999999  1.0000
  H   H40       1.0  0.09601000000000001  0.47985  0.19307  1.0000
  C   C1        1.0  0.20216000000000012  0.66055  0.91345  1.0000
  C   C2        1.0  0.14269999999999997  0.77103  0.82425  1.0000
  C   C3        1.0  0.55931  0.75782  0.5929899999999999  1.0000
  C   C4        1.0  0.53638  0.90649  0.54966  1.0000
  C   C5        1.0  0.05161000000000002  0.26506  0.65182  1.0000
  C   C6        1.0  0.09646999999999997  0.12577  0.71095  1.0000
  C   C7        1.0  0.65952  0.38599  0.83271  1.0000
  C   C8        1.0  0.70436  0.38366  0.9575899999999999  1.0000
  C   C9        1.0  0.79784  0.16055000000000005  0.08655999999999997  1.0000
  C   C10       1.0  0.8572999999999998  0.27103  0.17575  1.0000
  C   C11       1.0  0.44068999999999997  0.25782  0.40701  1.0000
  C   C12       1.0  0.46362  0.40649  0.45034  1.0000
  C   C13       1.0  0.94839  0.76506  0.34818  1.0000
  C   C14       1.0  0.90353  0.62577  0.28905  1.0000
  C   C15       1.0  0.3404799999999999  0.8859900000000002  0.16728999999999997  1.0000
  C   C16       1.0  0.29564  0.8836600000000002  0.04241  1.0000
  C   C17       1.0  0.2888  0.16006  0.08648  1.0000
  C   C18       1.0  0.31832  0.27035  0.17584  1.0000
  C   C19       1.0  0.96653  0.25801  0.40693  1.0000
  C   C20       1.0  0.98669  0.4066600000000001  0.45024  1.0000
  C   C21       1.0  0.39933  0.76491  0.34833  1.0000
  C   C22       1.0  0.38528  0.6256200000000001  0.28922  1.0000
  C   C23       1.0  0.8259700000000001  0.8863100000000003  0.16693  1.0000
  C   C24       1.0  0.74686  0.88406  0.04201  1.0000
  C   C25       1.0  0.7112  0.6600600000000001  0.91353  1.0000
  C   C26       1.0  0.68168  0.7703500000000002  0.82417  1.0000
  C   C27       1.0  0.033469999999999986  0.75801  0.59308  1.0000
  C   C28       1.0  0.013310000000000018  0.90667  0.54976  1.0000
  C   C29       1.0  0.60067  0.26491  0.65168  1.0000
  C   C30       1.0  0.61472  0.12562  0.71078  1.0000
  C   C31       1.0  0.17403  0.38631000000000004  0.83307  1.0000
  C   C32       1.0  0.2531400000000001  0.3840600000000001  0.958  1.0000
  C   C33       1.0  0.34287  0.41803  0.68606  1.0000
  C   C34       1.0  0.30083  0.53378  0.60134  1.0000
  C   C35       1.0  0.65713  0.91803  0.31395  1.0000
  C   C36       1.0  0.69917  0.03378  0.39866  1.0000
  C   C37       1.0  0.99462  0.03107  0.98939  1.0000
  C   C38       1.0  0.93313  0.01232  0.86538  1.0000
  C   C39       1.0  0.00538  0.53107  0.01061  1.0000
  C   C40       1.0  0.06687  0.51232  0.13462  1.0000
  N   N1        1.0  0.2782  0.6477100000000001  0.86567  1.0000
  N   N2        1.0  0.23998999999999998  0.7188200000000001  0.80793  1.0000
  N   N3        1.0  0.11502999999999992  0.7369800000000002  0.88994  1.0000
  N   N4        1.0  0.47293  0.80209  0.62483  1.0000
  N   N5        1.0  0.45832999999999996  0.898  0.5968299999999999  1.0000
  N   N6        1.0  0.60226  0.82062  0.54566  1.0000
  N   N7        1.0  0.14624999999999994  0.22260000000000005  0.62579  1.0000
  N   N8        1.0  0.17427000000000006  0.1328  0.66366  1.0000
  N   N9        1.0  0.016980000000000002  0.20714  0.70571  1.0000
  N   N10       1.0  0.7766799999999999  0.33941  0.85974  1.0000
  N   N11       1.0  0.8058100000000001  0.33779  0.94045  1.0000
  N   N12       1.0  0.60997  0.41529  0.89172  1.0000
  N   N13       1.0  0.7218  0.14771  0.13433  1.0000
  N   N14       1.0  0.76001  0.21882000000000001  0.19206999999999996  1.0000
  N   N15       1.0  0.88497  0.23698  0.11006  1.0000
  N   N16       1.0  0.52707  0.30209  0.37517  1.0000
  N   N17       1.0  0.54167  0.398  0.40317  1.0000
  N   N18       1.0  0.39774  0.32062  0.45433999999999997  1.0000
  N   N19       1.0  0.8537500000000001  0.7226  0.37421  1.0000
  N   N20       1.0  0.82573  0.6328  0.33634  1.0000
  N   N21       1.0  0.9830200000000001  0.70714  0.29429  1.0000
  N   N22       1.0  0.22332  0.83941  0.14027  1.0000
  N   N23       1.0  0.19418999999999997  0.83779  0.05954999999999999  1.0000
  N   N24       1.0  0.39003  0.9152900000000002  0.10828  1.0000
  N   N25       1.0  0.41255  0.14727  0.1341  1.0000
  N   N26       1.0  0.4319299999999999  0.2183  0.19194  1.0000
  N   N27       1.0  0.22508  0.23634000000000002  0.11021  1.0000
  N   N28       1.0  0.84833  0.30217  0.37523  1.0000
  N   N29       1.0  0.8615599999999999  0.39811  0.40322  1.0000
  N   N30       1.0  0.05666000000000003  0.32084  0.45417  1.0000
  N   N31       1.0  0.51998  0.72257  0.37419  1.0000
  N   N32       1.0  0.5103  0.63273  0.33634  1.0000
  N   N33       1.0  0.31096  0.70694  0.29454  1.0000
  N   N34       1.0  0.91579  0.83902  0.14003  1.0000
  N   N35       1.0  0.8648700000000001  0.8374300000000002  0.05932  1.0000
  N   N36       1.0  0.71814  0.91611  0.1078  1.0000
  N   N37       1.0  0.58745  0.64727  0.86591  1.0000
  N   N38       1.0  0.5680700000000001  0.7183  0.80806  1.0000
  N   N39       1.0  0.77492  0.73634  0.88979  1.0000
  N   N40       1.0  0.15167  0.80217  0.62477  1.0000
  N   N41       1.0  0.13844  0.8981200000000001  0.59678  1.0000
  N   N42       1.0  0.94334  0.82084  0.54583  1.0000
  N   N43       1.0  0.48002  0.22257000000000005  0.62581  1.0000
  N   N44       1.0  0.4897  0.13273  0.66366  1.0000
  N   N45       1.0  0.68904  0.20694  0.70546  1.0000
  N   N46       1.0  0.08421000000000006  0.3390200000000001  0.85997  1.0000
  N   N47       1.0  0.13513000000000008  0.3374300000000001  0.94068  1.0000
  N   N48       1.0  0.28186  0.41611  0.8922  1.0000
  N   N49       1.0  0.36332  0.50349  0.72647  1.0000
  N   N50       1.0  0.33614  0.57914  0.67165  1.0000
  N   N51       1.0  0.30349  0.43276000000000003  0.60723  1.0000
  N   N52       1.0  0.63668  0.003490000000000001  0.27353  1.0000
  N   N53       1.0  0.66386  0.07914  0.32835  1.0000
  N   N54       1.0  0.69651  0.9327600000000003  0.3927699999999999  1.0000
  N   N55       1.0  0.93966  0.11064000000000002  0.87858  1.0000
  N   N56       1.0  0.9796799999999999  0.12294  0.9593200000000001  1.0000
  N   N57       1.0  0.9667  0.95928  0.93304  1.0000
  N   N58       1.0  0.06033999999999999  0.61064  0.12141999999999999  1.0000
  N   N59       1.0  0.020319999999999998  0.6229400000000003  0.040679999999999994  1.0000
  N   N60       1.0  0.0333  0.45928  0.06696  1.0000
  Cl  Cl1       1.0  0.3884699999999999  0.94065  0.7772  1.0000
  Cl  Cl2       1.0  0.24115000000000003  0.08587  0.48029999999999995  1.0000
  Cl  Cl3       1.0  0.61153  0.44065  0.2228  1.0000
  Cl  Cl4       1.0  0.75885  0.58587  0.5197  1.0000
