data_image0
_chemical_formula_structural       Al4Ag4H72C72N12O24
_chemical_formula_sum              "Al4 Ag4 H72 C72 N12 O24"
_cell_length_a       14.19139
_cell_length_b       14.19139
_cell_length_c       14.19139
_cell_angle_alpha    90.0
_cell_angle_beta     90.0
_cell_angle_gamma    90.0

_space_group_name_H-M_alt    "P 1"
_space_group_IT_number       1

loop_
  _space_group_symop_operation_xyz
  'x, y, z'

loop_
  _atom_site_type_symbol
  _atom_site_label
  _atom_site_symmetry_multiplicity
  _atom_site_fract_x
  _atom_site_fract_y
  _atom_site_fract_z
  _atom_site_occupancy
  Al  Al1       1.0  0.7709599999999998  0.2709599999999999  0.22904  1.0000
  Al  Al2       1.0  0.72903  0.72903  0.72903  1.0000
  Al  Al3       1.0  0.22903  0.7709599999999998  0.2709599999999999  1.0000
  Al  Al4       1.0  0.2709599999999999  0.22903  0.7709599999999998  1.0000
  Ag  Ag1       1.0  0.12883  0.37116  0.62883  1.0000
  Ag  Ag2       1.0  0.37116  0.62883  0.12883  1.0000
  Ag  Ag3       1.0  0.87116  0.87116  0.87116  1.0000
  Ag  Ag4       1.0  0.62883  0.12883  0.37116  1.0000
  H   H1        1.0  0.84123  0.31394  0.5699  1.0000
  H   H2        1.0  0.8081199999999998  0.19430999999999995  0.55364  1.0000
  H   H3        1.0  0.72439  0.28489  0.5303799999999999  1.0000
  H   H4        1.0  0.10786999999999997  0.2689  0.34385  1.0000
  H   H5        1.0  0.08072999999999997  0.32815  0.23567999999999995  1.0000
  H   H6        1.0  0.07764999999999998  0.20362  0.24049999999999994  1.0000
  H   H7        1.0  0.65876  0.68606  0.06989999999999999  1.0000
  H   H8        1.0  0.69188  0.80569  0.05364  1.0000
  H   H9        1.0  0.7755999999999998  0.71511  0.03038  1.0000
  H   H10       1.0  0.39213  0.73109  0.8438499999999998  1.0000
  H   H11       1.0  0.41927  0.67184  0.7356699999999998  1.0000
  H   H12       1.0  0.42235  0.7963799999999998  0.7404999999999998  1.0000
  H   H13       1.0  0.15876  0.81394  0.9300899999999998  1.0000
  H   H14       1.0  0.19188  0.69431  0.94636  1.0000
  H   H15       1.0  0.27561  0.78489  0.96961  1.0000
  H   H16       1.0  0.8921299999999998  0.7688999999999999  0.15614  1.0000
  H   H17       1.0  0.9192699999999998  0.8281499999999998  0.26432  1.0000
  H   H18       1.0  0.9223399999999998  0.70361  0.2595  1.0000
  H   H19       1.0  0.34124  0.18606  0.4300899999999999  1.0000
  H   H20       1.0  0.30812  0.3056899999999999  0.44635999999999987  1.0000
  H   H21       1.0  0.22439  0.21510999999999997  0.46961  1.0000
  H   H22       1.0  0.6078699999999999  0.23109999999999994  0.65614  1.0000
  H   H23       1.0  0.5807299999999997  0.17183999999999994  0.76432  1.0000
  H   H24       1.0  0.57765  0.29638  0.7594999999999997  1.0000
  H   H25       1.0  0.5699  0.84123  0.31394  1.0000
  H   H26       1.0  0.55364  0.8081199999999998  0.19430999999999995  1.0000
  H   H27       1.0  0.5303799999999999  0.72439  0.28489  1.0000
  H   H28       1.0  0.34385  0.10786999999999997  0.2689  1.0000
  H   H29       1.0  0.23567999999999995  0.08072999999999997  0.32815  1.0000
  H   H30       1.0  0.24049999999999994  0.07764999999999998  0.20362  1.0000
  H   H31       1.0  0.06989999999999999  0.65876  0.68606  1.0000
  H   H32       1.0  0.05364  0.69188  0.80569  1.0000
  H   H33       1.0  0.03038  0.7755999999999998  0.71511  1.0000
  H   H34       1.0  0.8438499999999998  0.39213  0.73109  1.0000
  H   H35       1.0  0.7356699999999998  0.41927  0.67184  1.0000
  H   H36       1.0  0.7404999999999998  0.42235  0.7963799999999998  1.0000
  H   H37       1.0  0.9300899999999998  0.15876  0.81394  1.0000
  H   H38       1.0  0.94636  0.19188  0.69431  1.0000
  H   H39       1.0  0.96961  0.27561  0.78489  1.0000
  H   H40       1.0  0.15614  0.8921299999999998  0.7688999999999999  1.0000
  H   H41       1.0  0.26432  0.9192699999999998  0.8281499999999998  1.0000
  H   H42       1.0  0.2595  0.9223399999999998  0.70361  1.0000
  H   H43       1.0  0.4300899999999999  0.34124  0.18606  1.0000
  H   H44       1.0  0.44635999999999987  0.30812  0.3056899999999999  1.0000
  H   H45       1.0  0.46961  0.22439  0.21510999999999997  1.0000
  H   H46       1.0  0.65614  0.6078699999999999  0.23109999999999994  1.0000
  H   H47       1.0  0.76432  0.5807299999999997  0.17183999999999994  1.0000
  H   H48       1.0  0.7594999999999997  0.57765  0.29638  1.0000
  H   H49       1.0  0.31394  0.5699  0.84123  1.0000
  H   H50       1.0  0.19430999999999995  0.55364  0.8081199999999998  1.0000
  H   H51       1.0  0.28489  0.5303799999999999  0.72439  1.0000
  H   H52       1.0  0.2689  0.34385  0.10786999999999997  1.0000
  H   H53       1.0  0.32815  0.23567999999999995  0.08072999999999997  1.0000
  H   H54       1.0  0.20362  0.24049999999999994  0.07764999999999998  1.0000
  H   H55       1.0  0.68606  0.06989999999999999  0.65876  1.0000
  H   H56       1.0  0.80569  0.05364  0.69188  1.0000
  H   H57       1.0  0.71511  0.03038  0.7755999999999998  1.0000
  H   H58       1.0  0.73109  0.8438499999999998  0.39213  1.0000
  H   H59       1.0  0.67184  0.7356699999999998  0.41927  1.0000
  H   H60       1.0  0.7963799999999998  0.7404999999999998  0.42235  1.0000
  H   H61       1.0  0.81394  0.9300899999999998  0.15876  1.0000
  H   H62       1.0  0.69431  0.94636  0.19188  1.0000
  H   H63       1.0  0.78489  0.96961  0.27561  1.0000
  H   H64       1.0  0.7688999999999999  0.15614  0.8921299999999998  1.0000
  H   H65       1.0  0.8281499999999998  0.26432  0.9192699999999998  1.0000
  H   H66       1.0  0.70361  0.2595  0.9223399999999998  1.0000
  H   H67       1.0  0.18606  0.4300899999999999  0.34124  1.0000
  H   H68       1.0  0.3056899999999999  0.44635999999999987  0.30812  1.0000
  H   H69       1.0  0.21510999999999997  0.46961  0.22439  1.0000
  H   H70       1.0  0.23109999999999994  0.65614  0.6078699999999999  1.0000
  H   H71       1.0  0.17183999999999994  0.76432  0.5807299999999997  1.0000
  H   H72       1.0  0.29638  0.7594999999999997  0.57765  1.0000
  C   C1        1.0  0.7991899999999997  0.26627  0.52585  1.0000
  C   C2        1.0  0.82894  0.26998  0.4244399999999999  1.0000
  C   C3        1.0  0.9265799999999998  0.27072  0.39922999999999986  1.0000
  C   C4        1.0  0.9596299999999998  0.271  0.30413  1.0000
  C   C5        1.0  0.06287  0.26801  0.28116  1.0000
  C   C6        1.0  0.9925799999999998  0.27194  0.4732099999999999  1.0000
  C   C7        1.0  0.7008  0.7337299999999998  0.02585  1.0000
  C   C8        1.0  0.67106  0.73001  0.92444  1.0000
  C   C9        1.0  0.57341  0.72927  0.8992299999999998  1.0000
  C   C10       1.0  0.54037  0.72899  0.8041299999999998  1.0000
  C   C11       1.0  0.43711999999999995  0.73199  0.78116  1.0000
  C   C12       1.0  0.5074099999999999  0.7280599999999998  0.97321  1.0000
  C   C13       1.0  0.20080999999999993  0.76626  0.9741399999999998  1.0000
  C   C14       1.0  0.17106  0.76998  0.07556  1.0000
  C   C15       1.0  0.07342  0.7707199999999997  0.10077  1.0000
  C   C16       1.0  0.040369999999999996  0.771  0.19587  1.0000
  C   C17       1.0  0.9371199999999997  0.7680099999999999  0.21883999999999995  1.0000
  C   C18       1.0  0.007409999999999998  0.7719399999999997  0.02679  1.0000
  C   C19       1.0  0.29918999999999996  0.23372999999999994  0.4741499999999999  1.0000
  C   C20       1.0  0.32894  0.23000999999999994  0.57556  1.0000
  C   C21       1.0  0.42658  0.22928  0.6007699999999999  1.0000
  C   C22       1.0  0.45963  0.22898999999999994  0.6958699999999999  1.0000
  C   C23       1.0  0.56287  0.23198999999999995  0.71884  1.0000
  C   C24       1.0  0.49258  0.22805999999999996  0.52679  1.0000
  C   C25       1.0  0.52585  0.7991899999999997  0.26627  1.0000
  C   C26       1.0  0.4244399999999999  0.82894  0.26998  1.0000
  C   C27       1.0  0.39922999999999986  0.9265799999999998  0.27072  1.0000
  C   C28       1.0  0.30413  0.9596299999999998  0.271  1.0000
  C   C29       1.0  0.28116  0.06287  0.26801  1.0000
  C   C30       1.0  0.4732099999999999  0.9925799999999998  0.27194  1.0000
  C   C31       1.0  0.02585  0.7008  0.7337299999999998  1.0000
  C   C32       1.0  0.92444  0.67106  0.73001  1.0000
  C   C33       1.0  0.8992299999999998  0.57341  0.72927  1.0000
  C   C34       1.0  0.8041299999999998  0.54037  0.72899  1.0000
  C   C35       1.0  0.78116  0.43711999999999995  0.73199  1.0000
  C   C36       1.0  0.97321  0.5074099999999999  0.7280599999999998  1.0000
  C   C37       1.0  0.9741399999999998  0.20080999999999993  0.76626  1.0000
  C   C38       1.0  0.07556  0.17106  0.76998  1.0000
  C   C39       1.0  0.10077  0.07342  0.7707199999999997  1.0000
  C   C40       1.0  0.19587  0.040369999999999996  0.771  1.0000
  C   C41       1.0  0.21883999999999995  0.9371199999999997  0.7680099999999999  1.0000
  C   C42       1.0  0.02679  0.007409999999999998  0.7719399999999997  1.0000
  C   C43       1.0  0.4741499999999999  0.29918999999999996  0.23372999999999994  1.0000
  C   C44       1.0  0.57556  0.32894  0.23000999999999994  1.0000
  C   C45       1.0  0.6007699999999999  0.42658  0.22928  1.0000
  C   C46       1.0  0.6958699999999999  0.45963  0.229  1.0000
  C   C47       1.0  0.71884  0.56287  0.23198999999999995  1.0000
  C   C48       1.0  0.52679  0.49258  0.22805999999999996  1.0000
  C   C49       1.0  0.26627  0.52585  0.7991899999999997  1.0000
  C   C50       1.0  0.26998  0.4244399999999999  0.82894  1.0000
  C   C51       1.0  0.27072  0.39922999999999986  0.9265799999999998  1.0000
  C   C52       1.0  0.271  0.30413  0.9596299999999998  1.0000
  C   C53       1.0  0.26801  0.28116  0.06287  1.0000
  C   C54       1.0  0.27194  0.4732099999999999  0.9925799999999998  1.0000
  C   C55       1.0  0.7337299999999998  0.02585  0.7008  1.0000
  C   C56       1.0  0.73001  0.92444  0.67106  1.0000
  C   C57       1.0  0.72927  0.8992299999999998  0.57341  1.0000
  C   C58       1.0  0.72899  0.8041299999999998  0.54037  1.0000
  C   C59       1.0  0.73199  0.78116  0.43711999999999995  1.0000
  C   C60       1.0  0.7280599999999998  0.97321  0.5074099999999999  1.0000
  C   C61       1.0  0.76626  0.9741399999999998  0.20080999999999993  1.0000
  C   C62       1.0  0.76998  0.07556  0.17106  1.0000
  C   C63       1.0  0.7707199999999997  0.10077  0.07342  1.0000
  C   C64       1.0  0.771  0.19587  0.040369999999999996  1.0000
  C   C65       1.0  0.7680099999999999  0.21883999999999995  0.9371199999999997  1.0000
  C   C66       1.0  0.7719399999999997  0.02679  0.007409999999999998  1.0000
  C   C67       1.0  0.23372999999999994  0.4741499999999999  0.29918999999999996  1.0000
  C   C68       1.0  0.23000999999999994  0.57556  0.32894  1.0000
  C   C69       1.0  0.22928  0.6007699999999999  0.42658  1.0000
  C   C70       1.0  0.22898999999999994  0.6958699999999999  0.45963  1.0000
  C   C71       1.0  0.23198999999999995  0.71884  0.56287  1.0000
  C   C72       1.0  0.22805999999999996  0.52678  0.49259  1.0000
  N   N1        1.0  0.046179999999999985  0.27297  0.53635  1.0000
  N   N2        1.0  0.4538099999999999  0.7270299999999998  0.036349999999999986  1.0000
  N   N3        1.0  0.95381  0.7729699999999998  0.9636399999999998  1.0000
  N   N4        1.0  0.54618  0.22702999999999998  0.4636499999999999  1.0000
  N   N5        1.0  0.53635  0.046179999999999985  0.27297  1.0000
  N   N6        1.0  0.036349999999999986  0.4538099999999999  0.7270299999999998  1.0000
  N   N7        1.0  0.9636399999999998  0.95381  0.7729699999999998  1.0000
  N   N8        1.0  0.4636499999999999  0.54618  0.22702999999999998  1.0000
  N   N9        1.0  0.27297  0.53635  0.046179999999999985  1.0000
  N   N10       1.0  0.7270299999999998  0.036349999999999986  0.4538099999999999  1.0000
  N   N11       1.0  0.7729699999999998  0.96365  0.95381  1.0000
  N   N12       1.0  0.22702999999999998  0.4636499999999999  0.54618  1.0000
  O   O1        1.0  0.7625899999999998  0.27223  0.3623999999999999  1.0000
  O   O2        1.0  0.9035699999999998  0.27115999999999996  0.23280999999999993  1.0000
  O   O3        1.0  0.7374  0.72776  0.8623999999999998  1.0000
  O   O4        1.0  0.5964299999999998  0.72884  0.7328099999999997  1.0000
  O   O5        1.0  0.2374  0.77223  0.1376  1.0000
  O   O6        1.0  0.09643  0.7711499999999999  0.26718  1.0000
  O   O7        1.0  0.2626  0.22777  0.6375999999999998  1.0000
  O   O8        1.0  0.40357  0.22884  0.76718  1.0000
  O   O9        1.0  0.3623999999999999  0.7625899999999998  0.27223  1.0000
  O   O10       1.0  0.23280999999999993  0.9035699999999998  0.27115999999999996  1.0000
  O   O11       1.0  0.8623999999999998  0.7374  0.72776  1.0000
  O   O12       1.0  0.7328099999999997  0.5964299999999998  0.72884  1.0000
  O   O13       1.0  0.1376  0.2374  0.77223  1.0000
  O   O14       1.0  0.26718  0.09643  0.7711499999999999  1.0000
  O   O15       1.0  0.6375999999999998  0.2626  0.22777  1.0000
  O   O16       1.0  0.76718  0.40357  0.22884  1.0000
  O   O17       1.0  0.27223  0.3623999999999999  0.7625899999999998  1.0000
  O   O18       1.0  0.27115999999999996  0.23280999999999993  0.9035699999999998  1.0000
  O   O19       1.0  0.72776  0.8623999999999998  0.7374  1.0000
  O   O20       1.0  0.72884  0.7328099999999997  0.5964299999999998  1.0000
  O   O21       1.0  0.77223  0.1376  0.2374  1.0000
  O   O22       1.0  0.7711499999999999  0.26718  0.09643  1.0000
  O   O23       1.0  0.22777  0.6375999999999998  0.2626  1.0000
  O   O24       1.0  0.22884  0.76718  0.40357  1.0000
