data_image0
_chemical_formula_structural       Na24Ni4H24C60N12O40
_chemical_formula_sum              "Na24 Ni4 H24 C60 N12 O40"
_cell_length_a       12.85326
_cell_length_b       12.824890000000002
_cell_length_c       19.5464
_cell_angle_alpha    90.0863
_cell_angle_beta     89.98526
_cell_angle_gamma    120.11659000000002

_space_group_name_H-M_alt    "P 1"
_space_group_IT_number       1

loop_
  _space_group_symop_operation_xyz
  'x, y, z'

loop_
  _atom_site_type_symbol
  _atom_site_label
  _atom_site_symmetry_multiplicity
  _atom_site_fract_x
  _atom_site_fract_y
  _atom_site_fract_z
  _atom_site_occupancy
  Na  Na1       1.0  0.31818  0.5025  0.4242199999999999  1.0000
  Na  Na2       1.0  0.76865  0.77918  0.4500399999999999  1.0000
  Na  Na3       1.0  0.4917  0.82014  0.42105999999999993  1.0000
  Na  Na4       1.0  0.21156999999999995  0.96262  0.4474  1.0000
  Na  Na5       1.0  0.17929999999999996  0.67679  0.42092999999999997  1.0000
  Na  Na6       1.0  0.026019999999999988  0.22291  0.4476899999999999  1.0000
  Na  Na7       1.0  0.6745399999999999  0.48972  0.9254  1.0000
  Na  Na8       1.0  0.24883999999999998  0.22162999999999997  0.94853  1.0000
  Na  Na9       1.0  0.51363  0.18031  0.9227399999999999  1.0000
  Na  Na10      1.0  0.79468  0.02236  0.94868  1.0000
  Na  Na11      1.0  0.81589  0.32325  0.9225499999999999  1.0000
  Na  Na12      1.0  0.9838699999999999  0.7727  0.95256  1.0000
  Na  Na13      1.0  0.67851  0.49851999999999996  0.58207  1.0000
  Na  Na14      1.0  0.24298999999999998  0.21147  0.54577  1.0000
  Na  Na15      1.0  0.51385  0.17972  0.57221  1.0000
  Na  Na16      1.0  0.77913  0.02767  0.5537  1.0000
  Na  Na17      1.0  0.82064  0.32295  0.5757899999999999  1.0000
  Na  Na18      1.0  0.9795599999999998  0.7771699999999999  0.54934  1.0000
  Na  Na19      1.0  0.32896  0.51257  0.07099  1.0000
  Na  Na20      1.0  0.76138  0.8037799999999999  0.04744  1.0000
  Na  Na21      1.0  0.49157  0.81964  0.06747  1.0000
  Na  Na22      1.0  0.22703999999999996  0.96897  0.058209999999999984  1.0000
  Na  Na23      1.0  0.18039  0.66683  0.07072  1.0000
  Na  Na24      1.0  0.004170000000000004  0.23207  0.05833  1.0000
  Ni  Ni1       1.0  0.33305  0.66624  0.57842  1.0000
  Ni  Ni2       1.0  0.66641  0.3333  0.07939  1.0000
  Ni  Ni3       1.0  0.6672  0.33518  0.42195  1.0000
  Ni  Ni4       1.0  0.33388  0.66534  0.92046  1.0000
  H   H1        1.0  0.16374  0.3445  0.63943  1.0000
  H   H2        1.0  0.65544  0.81953  0.6397099999999999  1.0000
  H   H3        1.0  0.18192999999999993  0.8360399999999999  0.6389  1.0000
  H   H4        1.0  0.83524  0.65594  0.14023  1.0000
  H   H5        1.0  0.34563999999999995  0.18103  0.13956  1.0000
  H   H6        1.0  0.8175799999999999  0.16283  0.13957999999999998  1.0000
  H   H7        1.0  0.8353800000000001  0.65514  0.3612999999999999  1.0000
  H   H8        1.0  0.34417  0.17898  0.3605  1.0000
  H   H9        1.0  0.82121  0.16471  0.36034  1.0000
  H   H10       1.0  0.16449  0.34345  0.8604699999999998  1.0000
  H   H11       1.0  0.65594  0.8204199999999999  0.8606599999999999  1.0000
  H   H12       1.0  0.1788  0.83443  0.85973  1.0000
  H   H13       1.0  0.46548  0.62051  0.74975  1.0000
  H   H14       1.0  0.06815  0.24533  0.7499999999999998  1.0000
  H   H15       1.0  0.38019  0.8456499999999999  0.7501699999999998  1.0000
  H   H16       1.0  0.75416  0.82247  0.75028  1.0000
  H   H17       1.0  0.15605999999999998  0.53408  0.74933  1.0000
  H   H18       1.0  0.17682000000000006  0.9305900000000001  0.74925  1.0000
  H   H19       1.0  0.5340599999999998  0.37923  0.25025  1.0000
  H   H20       1.0  0.93136  0.75459  0.251  1.0000
  H   H21       1.0  0.62103  0.15546  0.25020999999999993  1.0000
  H   H22       1.0  0.24636  0.1769  0.24982999999999994  1.0000
  H   H23       1.0  0.8455299999999999  0.46592  0.24979  1.0000
  H   H24       1.0  0.82247  0.0682  0.24981  1.0000
  C   C1        1.0  0.53161  0.63446  0.5418299999999999  1.0000
  C   C2        1.0  0.47128  0.55059  0.6033699999999999  1.0000
  C   C3        1.0  0.32167  0.48816  0.68755  1.0000
  C   C4        1.0  0.20994999999999997  0.38077  0.68787  1.0000
  C   C5        1.0  0.36539000000000005  0.89807  0.5422  1.0000
  C   C6        1.0  0.4497499999999999  0.92132  0.6035499999999999  1.0000
  C   C7        1.0  0.51202  0.83421  0.6876399999999999  1.0000
  C   C8        1.0  0.61938  0.83028  0.68802  1.0000
  C   C9        1.0  0.10132999999999999  0.46242999999999995  0.54142  1.0000
  C   C10       1.0  0.07791000000000001  0.52563  0.60233  1.0000
  C   C11       1.0  0.16677000000000008  0.67681  0.6866299999999999  1.0000
  C   C12       1.0  0.17128999999999994  0.78876  0.68703  1.0000
  C   C13       1.0  0.46734999999999993  0.366  0.04305999999999999  1.0000
  C   C14       1.0  0.52804  0.44979  0.10465  1.0000
  C   C15       1.0  0.67818  0.5113  0.18836  1.0000
  C   C16       1.0  0.78955  0.61897  0.18862  1.0000
  C   C17       1.0  0.63728  0.10194  0.04226  1.0000
  C   C18       1.0  0.55177  0.07711  0.1036  1.0000
  C   C19       1.0  0.48882  0.16529  0.18756  1.0000
  C   C20       1.0  0.38167  0.16988  0.18775999999999995  1.0000
  C   C21       1.0  0.8981699999999999  0.53422  0.04231  1.0000
  C   C22       1.0  0.92187  0.4731099999999999  0.10362999999999999  1.0000
  C   C23       1.0  0.83453  0.32267  0.18762  1.0000
  C   C24       1.0  0.82995  0.21076  0.18779999999999997  1.0000
  C   C25       1.0  0.46603  0.36807  0.45844  1.0000
  C   C26       1.0  0.52717  0.45097  0.3966999999999999  1.0000
  C   C27       1.0  0.67736  0.51111  0.31302  1.0000
  C   C28       1.0  0.78895  0.61872  0.31284  1.0000
  C   C29       1.0  0.6329  0.1007  0.4578999999999999  1.0000
  C   C30       1.0  0.54975  0.07852  0.39635  1.0000
  C   C31       1.0  0.48863  0.16634  0.31252  1.0000
  C   C32       1.0  0.38105999999999995  0.16982  0.31210999999999994  1.0000
  C   C33       1.0  0.89799  0.53567  0.4588999999999999  1.0000
  C   C34       1.0  0.92213  0.47424  0.39735  1.0000
  C   C35       1.0  0.8353000000000002  0.32335  0.31279999999999997  1.0000
  C   C36       1.0  0.83119  0.21155  0.31216  1.0000
  C   C37       1.0  0.5361400000000001  0.63568  0.9573099999999999  1.0000
  C   C38       1.0  0.47455  0.5505  0.8960099999999999  1.0000
  C   C39       1.0  0.32285  0.48773  0.81236  1.0000
  C   C40       1.0  0.21102  0.38031  0.81218  1.0000
  C   C41       1.0  0.3668699999999999  0.9012899999999999  0.95669  1.0000
  C   C42       1.0  0.45067  0.92282  0.89562  1.0000
  C   C43       1.0  0.5124500000000001  0.8347300000000001  0.81237  1.0000
  C   C44       1.0  0.61968  0.83066  0.8122999999999999  1.0000
  C   C45       1.0  0.09854  0.4646  0.9572599999999998  1.0000
  C   C46       1.0  0.07685999999999998  0.52712  0.89575  1.0000
  C   C47       1.0  0.16663999999999995  0.67716  0.8117699999999999  1.0000
  C   C48       1.0  0.17002  0.78838  0.81135  1.0000
  C   C49       1.0  0.37874  0.53818  0.74991  1.0000
  C   C50       1.0  0.15591999999999998  0.32681  0.7500099999999998  1.0000
  C   C51       1.0  0.46234  0.8413  0.7500199999999998  1.0000
  C   C52       1.0  0.67324  0.82956  0.7501799999999998  1.0000
  C   C53       1.0  0.16064  0.62082  0.74927  1.0000
  C   C54       1.0  0.17126  0.84309  0.7492099999999999  1.0000
  C   C55       1.0  0.62114  0.46109  0.25053  1.0000
  C   C56       1.0  0.8438000000000001  0.67279  0.25083  1.0000
  C   C57       1.0  0.5388  0.15968  0.25019  1.0000
  C   C58       1.0  0.32769  0.17065  0.24987999999999996  1.0000
  C   C59       1.0  0.84144  0.37940999999999997  0.2502  1.0000
  C   C60       1.0  0.8296100000000001  0.15644  0.24997  1.0000
  N   N1        1.0  0.37311  0.55041  0.6257699999999999  1.0000
  N   N2        1.0  0.44929  0.82283  0.6258999999999999  1.0000
  N   N3        1.0  0.17667999999999995  0.62412  0.6248  1.0000
  N   N4        1.0  0.62598  0.44885  0.12671  1.0000
  N   N5        1.0  0.55186  0.17568  0.12602  1.0000
  N   N6        1.0  0.82357  0.37442  0.12589  1.0000
  N   N7        1.0  0.6250899999999999  0.44944  0.37489  1.0000
  N   N8        1.0  0.55104  0.17759  0.37441  1.0000
  N   N9        1.0  0.82439  0.37499  0.3748399999999999  1.0000
  N   N10       1.0  0.3756  0.54988  0.8742299999999998  1.0000
  N   N11       1.0  0.44981999999999994  0.82352  0.87417  1.0000
  N   N12       1.0  0.17668999999999999  0.62507  0.8737499999999999  1.0000
  O   O1        1.0  0.47704  0.68306  0.51343  1.0000
  O   O2        1.0  0.63452  0.65195  0.52334  1.0000
  O   O3        1.0  0.51692  0.49169  0.6270799999999999  1.0000
  O   O4        1.0  0.31514  0.79422  0.51396  1.0000
  O   O5        1.0  0.34908  0.98407  0.52292  1.0000
  O   O6        1.0  0.50972  0.02651  0.62696  1.0000
  O   O7        1.0  0.20492  0.51784  0.51352  1.0000
  O   O8        1.0  0.016820000000000026  0.35811  0.52275  1.0000
  O   O9        1.0  0.97346  0.48155  0.62604  1.0000
  O   O10       1.0  0.51979  0.31464  0.014729999999999998  1.0000
  O   O11       1.0  0.36606  0.35164  0.023989999999999994  1.0000
  O   O12       1.0  0.48246  0.50899  0.1281  1.0000
  O   O13       1.0  0.6840299999999999  0.2053  0.013709999999999998  1.0000
  O   O14       1.0  0.65726  0.01797  0.02344  1.0000
  O   O15       1.0  0.49086  0.97165  0.12643  1.0000
  O   O16       1.0  0.79514  0.47823  0.01353  1.0000
  O   O17       1.0  0.9832899999999998  0.63771  0.02394  1.0000
  O   O18       1.0  0.02650000000000002  0.51799  0.12741  1.0000
  O   O19       1.0  0.5182  0.31727  0.48727999999999994  1.0000
  O   O20       1.0  0.36381  0.35332  0.47631  1.0000
  O   O21       1.0  0.48219  0.51013  0.37239  1.0000
  O   O22       1.0  0.6813  0.20326999999999998  0.4878099999999999  1.0000
  O   O23       1.0  0.6499399999999999  0.0146  0.4753499999999999  1.0000
  O   O24       1.0  0.49003  0.9737  0.37230999999999986  1.0000
  O   O25       1.0  0.79521  0.47889999999999994  0.48788999999999993  1.0000
  O   O26       1.0  0.98162  0.64072  0.47682  1.0000
  O   O27       1.0  0.026579999999999993  0.5198  0.37353  1.0000
  O   O28       1.0  0.47927  0.68196  0.98627  1.0000
  O   O29       1.0  0.64005  0.65619  0.97546  1.0000
  O   O30       1.0  0.51928  0.49083999999999994  0.8720099999999998  1.0000
  O   O31       1.0  0.31783  0.7987099999999999  0.9864  1.0000
  O   O32       1.0  0.34984  0.98775  0.97375  1.0000
  O   O33       1.0  0.51082  0.02704  0.8712599999999999  1.0000
  O   O34       1.0  0.20157999999999998  0.52002  0.98643  1.0000
  O   O35       1.0  0.01353999999999998  0.36122  0.9757599999999997  1.0000
  O   O36       1.0  0.9725400000000001  0.48366  0.87195  1.0000
  O   O37       1.0  0.32888  0.66332  0.3798899999999999  1.0000
  O   O38       1.0  0.66714  0.3305  0.87599  1.0000
  O   O39       1.0  0.6696399999999999  0.33473  0.62214  1.0000
  O   O40       1.0  0.33706  0.67137  0.11812  1.0000
