data_image0
_chemical_formula_structural       Cu12H52C48N36O28
_chemical_formula_sum              "Cu12 H52 C48 N36 O28"
_cell_length_a       18.68568
_cell_length_b       18.68203
_cell_length_c       18.68214
_cell_angle_alpha    109.55460999999998
_cell_angle_beta     109.42393999999999
_cell_angle_gamma    109.44016

_symmetry_space_group_name_H-M    'P 1'
_symmetry_Int_Tables_number       1

loop_
  _symmetry_equiv_pos_as_xyz
  'x,y,z'

loop_
  _atom_site_type_symbol
  _atom_site_label
  _atom_site_symmetry_multiplicity
  _atom_site_fract_x
  _atom_site_fract_y
  _atom_site_fract_z
  _atom_site_occupancy
  Cu  Cu1       1.0  0.50925  3.999999999999667e-05  0.11623  1.0000
  Cu  Cu2       1.0  0.49075000000000013  0.6069600000000002  0.49083000000000004  1.0000
  Cu  Cu3       1.0  0.11616999999999995  0.9999299999999999  0.50921  1.0000
  Cu  Cu4       1.0  0.88377  0.39301  0.88369  1.0000
  Cu  Cu5       1.0  0.39367  0.88338  0.88344  1.0000
  Cu  Cu6       1.0  0.99998  0.51009  0.1164  1.0000
  Cu  Cu7       1.0  0.6062600000000002  0.48989999999999995  0.48989  1.0000
  Cu  Cu8       1.0  6.000000000000166e-05  0.11652  0.51018  1.0000
  Cu  Cu9       1.0  0.50923  0.11612999999999998  8e-05  1.0000
  Cu  Cu10      1.0  0.88391  0.8838  0.39309  1.0000
  Cu  Cu11      1.0  0.11604000000000003  0.50914  0.9998500000000001  1.0000
  Cu  Cu12      1.0  0.4907600000000001  0.49088999999999994  0.60689  1.0000
  H   H1        1.0  0.45384  0.8274  0.13997  1.0000
  H   H2        1.0  0.39783  0.65529  0.05735000000000001  1.0000
  H   H3        1.0  0.54619  0.68621  0.37345  1.0000
  H   H4        1.0  0.60203  0.65935  0.25739  1.0000
  H   H5        1.0  0.31269000000000013  0.17268999999999998  0.62653  1.0000
  H   H6        1.0  0.40227  0.34492  0.74255  1.0000
  H   H7        1.0  0.6871500000000003  0.31377  0.85995  1.0000
  H   H8        1.0  0.5979300000000002  0.34057000000000004  0.9426  1.0000
  H   H9        1.0  0.31458000000000014  0.86141  0.689  1.0000
  H   H10       1.0  0.33980999999999995  0.9420599999999999  0.5973  1.0000
  H   H11       1.0  0.17248  0.62525  0.3108  1.0000
  H   H12       1.0  0.34472  0.74247  0.40265  1.0000
  H   H13       1.0  0.6854100000000003  0.37479  0.54713  1.0000
  H   H14       1.0  0.65999  0.25767  0.60208  1.0000
  H   H15       1.0  0.82773  0.13852000000000003  0.45319  1.0000
  H   H16       1.0  0.65541  0.057859999999999995  0.39791  1.0000
  H   H17       1.0  0.6256500000000002  0.31151999999999996  0.17285  1.0000
  H   H18       1.0  0.7419300000000001  0.40174  0.34403  1.0000
  H   H19       1.0  0.8613400000000001  0.68843  0.31413  1.0000
  H   H20       1.0  0.9422300000000001  0.59836  0.34017  1.0000
  H   H21       1.0  0.13862000000000002  0.45277000000000006  0.82732  1.0000
  H   H22       1.0  0.05762000000000006  0.39818  0.65629  1.0000
  H   H23       1.0  0.37447  0.5472  0.68589  1.0000
  H   H24       1.0  0.25827  0.60184  0.65949  1.0000
  H   H25       1.0  0.45353000000000016  0.13969000000000004  0.82732  1.0000
  H   H26       1.0  0.39801000000000003  0.057450000000000015  0.65534  1.0000
  H   H27       1.0  0.5462  0.37345  0.68613  1.0000
  H   H28       1.0  0.6021200000000001  0.25733  0.65948  1.0000
  H   H29       1.0  0.31270000000000003  0.62656  0.17278  1.0000
  H   H30       1.0  0.40241  0.74279  0.34506  1.0000
  H   H31       1.0  0.6873900000000002  0.86027  0.31375  1.0000
  H   H32       1.0  0.59786  0.94247  0.34045  1.0000
  H   H33       1.0  0.3144500000000001  0.68933  0.8617  1.0000
  H   H34       1.0  0.33979000000000004  0.5975800000000001  0.9419800000000003  1.0000
  H   H35       1.0  0.17240000000000003  0.31064  0.62502  1.0000
  H   H36       1.0  0.34453000000000006  0.40247  0.74227  1.0000
  H   H37       1.0  0.68535  0.54717  0.375  1.0000
  H   H38       1.0  0.66007  0.60212  0.25793  1.0000
  H   H39       1.0  0.8278500000000002  0.45283  0.13818  1.0000
  H   H40       1.0  0.6558  0.39797  0.05796  1.0000
  H   H41       1.0  0.62613  0.17297  0.31208  1.0000
  H   H42       1.0  0.74222  0.34428  0.40178  1.0000
  H   H43       1.0  0.8609100000000001  0.31415  0.68797  1.0000
  H   H44       1.0  0.94241  0.34025  0.59834  1.0000
  H   H45       1.0  0.13906000000000002  0.82718  0.45321  1.0000
  H   H46       1.0  0.057449999999999966  0.6559399999999997  0.39811  1.0000
  H   H47       1.0  0.37394000000000005  0.68581  0.54675  1.0000
  H   H48       1.0  0.25816999999999996  0.65951  0.60199  1.0000
  H   H49       1.0  0.5445100000000002  0.00053  0.0008  1.0000
  H   H50       1.0  0.45550000000000007  0.45626999999999995  0.45613  1.0000
  H   H51       1.0  0.00036999999999991917  0.99962  0.54407  1.0000
  H   H52       1.0  0.99993  0.54381  0.9993  1.0000
  C   C1        1.0  0.4278900000000001  0.81249  0.07265  1.0000
  C   C2        1.0  0.5720200000000001  0.6448  0.38461  1.0000
  C   C3        1.0  0.26026  0.18756  0.61541  1.0000
  C   C4        1.0  0.7397300000000001  0.35515  0.92718  1.0000
  C   C5        1.0  0.35539  0.92912  0.74101  1.0000
  C   C6        1.0  0.18824999999999997  0.61427  0.25884  1.0000
  C   C7        1.0  0.64447  0.38580999999999993  0.57391  1.0000
  C   C8        1.0  0.81193  0.07078  0.42626  1.0000
  C   C9        1.0  0.61469  0.25905  0.18772  1.0000
  C   C10       1.0  0.92864  0.74097  0.35563000000000006  1.0000
  C   C11       1.0  0.07131000000000001  0.427  0.81241  1.0000
  C   C12       1.0  0.38543  0.57292  0.64432  1.0000
  C   C13       1.0  0.42756000000000005  0.07231999999999998  0.81228  1.0000
  C   C14       1.0  0.5722000000000003  0.38464  0.64484  1.0000
  C   C15       1.0  0.2602900000000001  0.6154  0.18768  1.0000
  C   C16       1.0  0.7398799999999999  0.92758  0.35515  1.0000
  C   C17       1.0  0.3554700000000001  0.74132  0.92943  1.0000
  C   C18       1.0  0.18819  0.25869  0.61414  1.0000
  C   C19       1.0  0.64438  0.57395  0.38592  1.0000
  C   C20       1.0  0.81191  0.42604  0.0704  1.0000
  C   C21       1.0  0.61497  0.18754  0.25944  1.0000
  C   C22       1.0  0.9281100000000002  0.3555300000000001  0.7406400000000002  1.0000
  C   C23       1.0  0.07183999999999999  0.81254  0.42744  1.0000
  C   C24       1.0  0.38518  0.64439  0.57254  1.0000
  C   C25       1.0  0.34685999999999995  0.6473999999999998  0.99987  1.0000
  C   C26       1.0  0.25889000000000006  0.61483  0.99991  1.0000
  C   C27       1.0  0.6530700000000003  0.65302  0.30064  1.0000
  C   C28       1.0  0.7410200000000001  0.7410999999999999  0.35597  1.0000
  C   C29       1.0  0.3525499999999999  0.35268  0.69943  1.0000
  C   C30       1.0  0.38503000000000004  0.38522  0.64395  1.0000
  C   C31       1.0  0.64755  0.34704  4e-05  1.0000
  C   C32       1.0  0.6148400000000002  0.25897999999999993  0.99996  1.0000
  C   C33       1.0  0.3469499999999999  0.9998799999999999  0.64728  1.0000
  C   C34       1.0  0.25911  9.999999999998538e-05  0.61504  1.0000
  C   C35       1.0  0.35267  0.6996399999999998  0.35278  1.0000
  C   C36       1.0  0.38499000000000017  0.64395  0.38504  1.0000
  C   C37       1.0  0.65305  0.30049  0.65296  1.0000
  C   C38       1.0  0.7410200000000002  0.35603  0.74097  1.0000
  C   C39       1.0  0.64746  9.000000000000196e-05  0.34708  1.0000
  C   C40       1.0  0.61499  0.9999199999999999  0.25903  1.0000
  C   C41       1.0  0.69912  0.35210999999999987  0.35214  1.0000
  C   C42       1.0  0.64442  0.38529  0.38534  1.0000
  C   C43       1.0  0.0  0.64799  0.34705  1.0000
  C   C44       1.0  6.000000000000166e-05  0.61477  0.25917  1.0000
  C   C45       1.0  9.999999999980472e-06  0.34704  0.64807  1.0000
  C   C46       1.0  0.00018999999999997358  0.25921999999999995  0.61489  1.0000
  C   C47       1.0  0.3011700000000001  0.65293  0.65295  1.0000
  C   C48       1.0  0.35572  0.74081  0.7409100000000002  1.0000
  N   N1        1.0  0.43846000000000007  0.8721999999999998  0.04646  1.0000
  N   N2        1.0  0.5614  0.60806  0.43375  1.0000
  N   N3        1.0  0.17437000000000002  0.12781999999999993  0.56632  1.0000
  N   N4        1.0  0.82561  0.39186000000000004  0.95327  1.0000
  N   N5        1.0  0.39166  0.9548899999999999  0.82584  1.0000
  N   N6        1.0  0.1292500000000001  0.56584  0.17403  1.0000
  N   N7        1.0  0.60811  0.43425  0.56337  1.0000
  N   N8        1.0  0.8709200000000001  0.044959999999999965  0.43673  1.0000
  N   N9        1.0  0.5662  0.17348  0.12785  1.0000
  N   N10       1.0  0.9543200000000001  0.8265400000000003  0.3927000000000001  1.0000
  N   N11       1.0  0.04556000000000001  0.4383199999999999  0.87222  1.0000
  N   N12       1.0  0.43392  0.56159  0.60725  1.0000
  N   N13       1.0  0.43795  0.04615000000000001  0.87194  1.0000
  N   N14       1.0  0.56176  0.4339099999999999  0.60825  1.0000
  N   N15       1.0  0.17444  0.56616  0.12799  1.0000
  N   N16       1.0  0.8257  0.9536899999999999  0.39171  1.0000
  N   N17       1.0  0.3920299999999999  0.8261399999999999  0.95524  1.0000
  N   N18       1.0  0.1292  0.17387000000000005  0.56593  1.0000
  N   N19       1.0  0.60782  0.56324  0.43418  1.0000
  N   N20       1.0  0.8708800000000001  0.4367  0.04454  1.0000
  N   N21       1.0  0.56634  0.12757  0.17379  1.0000
  N   N22       1.0  0.95377  0.39254  0.82628  1.0000
  N   N23       1.0  0.04614000000000002  0.87247  0.43875  1.0000
  N   N24       1.0  0.4338  0.60737  0.56123  1.0000
  N   N25       1.0  0.3773099999999999  0.7301499999999999  0.00024  1.0000
  N   N26       1.0  0.6225900000000001  0.62296  0.35292  1.0000
  N   N27       1.0  0.2701900000000001  0.26989  0.64719  1.0000
  N   N28       1.0  0.7299  0.37704999999999994  0.99961  1.0000
  N   N29       1.0  0.37733000000000005  2.9999999999975447e-05  0.72993  1.0000
  N   N30       1.0  0.2702700000000001  0.64742  0.27003  1.0000
  N   N31       1.0  0.62255  0.35271  0.62283  1.0000
  N   N32       1.0  0.7299200000000002  0.9999100000000002  0.37728000000000006  1.0000
  N   N33       1.0  0.6467200000000002  0.26937  0.26957  1.0000
  N   N34       1.0  0.00017000000000002452  0.73071  0.37735  1.0000
  N   N35       1.0  0.99982  0.37714999999999993  0.73058  1.0000
  N   N36       1.0  0.35352  0.62279  0.62266  1.0000
  O   O1        1.0  0.22057999999999994  0.65769  0.99894  1.0000
  O   O2        1.0  0.235  0.54165  0.00031  1.0000
  O   O3        1.0  0.77937  0.7786500000000001  0.43715000000000004  1.0000
  O   O4        1.0  0.76487  0.7652499999999998  0.30659  1.0000
  O   O5        1.0  0.34114  0.34236  0.56278  1.0000
  O   O6        1.0  0.4586399999999999  0.45836999999999994  0.69322  1.0000
  O   O7        1.0  0.65851  0.22147  0.00067  1.0000
  O   O8        1.0  0.54133  0.23476000000000005  0.9996600000000001  1.0000
  O   O9        1.0  0.22115999999999997  0.9995  0.65824  1.0000
  O   O10       1.0  0.23504  0.00036000000000000783  0.54181  1.0000
  O   O11       1.0  0.34107000000000004  0.5628  0.34194  1.0000
  O   O12       1.0  0.45853  0.6931299999999998  0.45824  1.0000
  O   O13       1.0  0.77919  0.43719999999999987  0.77839  1.0000
  O   O14       1.0  0.76494  0.30672  0.76516  1.0000
  O   O15       1.0  0.65871  0.0004400000000000012  0.22159  1.0000
  O   O16       1.0  0.54157  0.9997699999999999  0.23479  1.0000
  O   O17       1.0  0.56318  0.34274  0.34258  1.0000
  O   O18       1.0  0.69412  0.45864000000000005  0.45883  1.0000
  O   O19       1.0  0.9997900000000001  0.65723  0.22036  1.0000
  O   O20       1.0  0.00027999999999997607  0.54146  0.2356  1.0000
  O   O21       1.0  0.00033000000000004483  0.22055000000000002  0.65748  1.0000
  O   O22       1.0  0.00013999999999998803  0.23560000000000003  0.54145  1.0000
  O   O23       1.0  0.43698000000000004  0.77958  0.77993  1.0000
  O   O24       1.0  0.30579000000000006  0.76435  0.76432  1.0000
  O   O25       1.0  0.49138  0.9996299999999999  0.99967  1.0000
  O   O26       1.0  0.50861  0.50834  0.50833  1.0000
  O   O27       1.0  3.0000000000019493e-05  0.0003300000000000324  0.49173  1.0000
  O   O28       1.0  0.99998  0.49169  0.00025  1.0000
