data_image0
_chemical_formula_structural       Cu8H44C84O40
_chemical_formula_sum              "Cu8 H44 C84 O40"
_cell_length_a       18.69529
_cell_length_b       18.688149999999997
_cell_length_c       20.16499
_cell_angle_alpha    115.26941999999998
_cell_angle_beta     115.34854
_cell_angle_gamma    94.46029999999999

_symmetry_space_group_name_H-M    'P 1'
_symmetry_Int_Tables_number       1

loop_
  _symmetry_equiv_pos_as_xyz
  'x,y,z'

loop_
  _atom_site_type_symbol
  _atom_site_label
  _atom_site_symmetry_multiplicity
  _atom_site_fract_x
  _atom_site_fract_y
  _atom_site_fract_z
  _atom_site_occupancy
  Cu  Cu1       1.0  0.99777  0.5588600000000001  0.55678  1.0000
  Cu  Cu2       1.0  0.55888  0.99776  0.55682  1.0000
  Cu  Cu3       1.0  0.44112  0.002239999999999993  0.44318  1.0000
  Cu  Cu4       1.0  0.0022299999999999833  0.44115  0.44321  1.0000
  Cu  Cu5       1.0  0.43827999999999995  0.4383600000000001  0.44646  1.0000
  Cu  Cu6       1.0  0.007770000000000009  0.007869999999999995  0.44603  1.0000
  Cu  Cu7       1.0  0.56172  0.56164  0.55353  1.0000
  Cu  Cu8       1.0  0.99222  0.99213  0.5539699999999999  1.0000
  H   H1        1.0  0.4864900000000001  0.71114  0.72624  1.0000
  H   H2        1.0  0.2528399999999998  0.7150899999999999  0.7209399999999998  1.0000
  H   H3        1.0  0.26154  0.50364  0.52609  1.0000
  H   H4        1.0  0.3399  0.81401  0.85359  1.0000
  H   H5        1.0  0.33355  0.8625400000000001  0.79264  1.0000
  H   H6        1.0  0.23977999999999997  0.015450000000000005  0.72645  1.0000
  H   H7        1.0  0.46794  0.006469999999999988  0.72102  1.0000
  H   H8        1.0  0.26399  0.022469999999999993  0.52593  1.0000
  H   H9        1.0  0.51338  0.03955  0.85348  1.0000
  H   H10       1.0  0.45909  0.93004  0.7931199999999998  1.0000
  H   H11       1.0  0.28899  0.51363  0.27385  1.0000
  H   H12       1.0  0.28477  0.74725  0.27895  1.0000
  H   H13       1.0  0.49645999999999996  0.7385700000000001  0.474  1.0000
  H   H14       1.0  0.18582  0.66029  0.14634  1.0000
  H   H15       1.0  0.13742  0.66654  0.2073  1.0000
  H   H16       1.0  0.9845699999999998  0.76038  0.27345  1.0000
  H   H17       1.0  0.9935099999999999  0.5321800000000001  0.27903  1.0000
  H   H18       1.0  0.9775399999999999  0.73596  0.47386  1.0000
  H   H19       1.0  0.96041  0.48683  0.14657  1.0000
  H   H20       1.0  0.06995  0.5411  0.20698  1.0000
  H   H21       1.0  0.51351  0.28886  0.27376  1.0000
  H   H22       1.0  0.7471599999999999  0.28491  0.27906  1.0000
  H   H23       1.0  0.73845  0.49636  0.47391  1.0000
  H   H24       1.0  0.66009  0.18599  0.14641  1.0000
  H   H25       1.0  0.66644  0.13746  0.20736  1.0000
  H   H26       1.0  0.7602099999999999  0.98455  0.27355  1.0000
  H   H27       1.0  0.53205  0.99353  0.27898  1.0000
  H   H28       1.0  0.736  0.97754  0.47406  1.0000
  H   H29       1.0  0.48661  0.96045  0.14652  1.0000
  H   H30       1.0  0.5408999999999999  0.06996  0.20688  1.0000
  H   H31       1.0  0.711  0.48638000000000003  0.72615  1.0000
  H   H32       1.0  0.7152199999999999  0.2527499999999998  0.7210399999999998  1.0000
  H   H33       1.0  0.5035399999999998  0.26142999999999994  0.5259999999999998  1.0000
  H   H34       1.0  0.81417  0.33972  0.85366  1.0000
  H   H35       1.0  0.86258  0.33347  0.7927  1.0000
  H   H36       1.0  0.015420000000000007  0.23963  0.72655  1.0000
  H   H37       1.0  0.006480000000000015  0.46781999999999996  0.72097  1.0000
  H   H38       1.0  0.022449999999999973  0.26405  0.52613  1.0000
  H   H39       1.0  0.03957999999999999  0.51318  0.85343  1.0000
  H   H40       1.0  0.93004  0.4588999999999999  0.7930199999999997  1.0000
  H   H41       1.0  0.42833  0.88336  5e-05  1.0000
  H   H42       1.0  0.5716699999999998  0.11664999999999998  0.9999499999999999  1.0000
  H   H43       1.0  0.11665  0.57165  0.0  1.0000
  H   H44       1.0  0.88335  0.42835  0.0  1.0000
  C   C1        1.0  0.42588  0.56219  0.58118  1.0000
  C   C2        1.0  0.37905999999999995  0.60299  0.62265  1.0000
  C   C3        1.0  0.42017  0.68149  0.69718  1.0000
  C   C4        1.0  0.37555999999999995  0.72265  0.7336599999999999  1.0000
  C   C5        1.0  0.28997  0.68502  0.69553  1.0000
  C   C6        1.0  0.24955  0.60566  0.621  1.0000
  C   C7        1.0  0.29346999999999995  0.56433  0.58431  1.0000
  C   C8        1.0  0.37662  0.84901  0.84024  1.0000
  C   C9        1.0  0.4401800000000001  0.92775  0.92176  1.0000
  C   C10       1.0  0.1579  0.56623  0.579  1.0000
  C   C11       1.0  0.15509999999999993  0.01933000000000002  0.58178  1.0000
  C   C12       1.0  0.24340999999999996  0.020079999999999997  0.62286  1.0000
  C   C13       1.0  0.27693  0.016020000000000003  0.69732  1.0000
  C   C14       1.0  0.3579299999999999  0.011129999999999855  0.7335899999999997  1.0000
  C   C15       1.0  0.4053399999999999  0.010900000000000005  0.69549  1.0000
  C   C16       1.0  0.37114  0.015780000000000034  0.62093  1.0000
  C   C17       1.0  0.29043  0.020289999999999992  0.58432  1.0000
  C   C18       1.0  0.4634299999999999  0.9912400000000001  0.8402999999999998  1.0000
  C   C19       1.0  0.48147  0.9940800000000001  0.92183  1.0000
  C   C20       1.0  0.4209299999999999  0.013539999999999993  0.57908  1.0000
  C   C21       1.0  0.43795999999999996  0.57419  0.41885  1.0000
  C   C22       1.0  0.39713  0.62106  0.37739  1.0000
  C   C23       1.0  0.31858  0.57993  0.30281999999999987  1.0000
  C   C24       1.0  0.27734  0.62453  0.2663  1.0000
  C   C25       1.0  0.3149  0.71013  0.30441  1.0000
  C   C26       1.0  0.39429  0.75054  0.37899  1.0000
  C   C27       1.0  0.43575  0.70664  0.41573  1.0000
  C   C28       1.0  0.15088999999999997  0.62351  0.1597  1.0000
  C   C29       1.0  0.07214  0.55995  0.07822  1.0000
  C   C30       1.0  0.43363999999999997  0.8422  0.42097  1.0000
  C   C31       1.0  0.9806899999999998  0.84496  0.41806  1.0000
  C   C32       1.0  0.9799499999999999  0.75665  0.3769999999999999  1.0000
  C   C33       1.0  0.9840099999999999  0.7231799999999999  0.3025699999999999  1.0000
  C   C34       1.0  0.9888699999999999  0.64221  0.26636  1.0000
  C   C35       1.0  0.98909  0.59475  0.30446  1.0000
  C   C36       1.0  0.9842199999999999  0.62891  0.37898  1.0000
  C   C37       1.0  0.97973  0.70957  0.41552  1.0000
  C   C38       1.0  0.008729999999999996  0.53676  0.15973  1.0000
  C   C39       1.0  0.005870000000000002  0.5187  0.0782  1.0000
  C   C40       1.0  0.98644  0.57907  0.42084  1.0000
  C   C41       1.0  0.57411  0.43782  0.41881  1.0000
  C   C42       1.0  0.6209400000000002  0.39702  0.3773499999999999  1.0000
  C   C43       1.0  0.57982  0.31851  0.30281  1.0000
  C   C44       1.0  0.62443  0.27735  0.26634  1.0000
  C   C45       1.0  0.71003  0.31499  0.30446  1.0000
  C   C46       1.0  0.75044  0.3943400000000001  0.379  1.0000
  C   C47       1.0  0.7065199999999999  0.43568  0.41568999999999995  1.0000
  C   C48       1.0  0.62337  0.15099  0.15975  1.0000
  C   C49       1.0  0.5598199999999999  0.07225  0.07824  1.0000
  C   C50       1.0  0.8421  0.43378000000000005  0.42099  1.0000
  C   C51       1.0  0.84489  0.98067  0.41821  1.0000
  C   C52       1.0  0.75658  0.97992  0.37714  1.0000
  C   C53       1.0  0.7230599999999999  0.98398  0.30268  1.0000
  C   C54       1.0  0.64206  0.98887  0.26641  1.0000
  C   C55       1.0  0.59465  0.9891000000000001  0.3045  1.0000
  C   C56       1.0  0.62886  0.98423  0.37907  1.0000
  C   C57       1.0  0.70956  0.9797200000000001  0.41568  1.0000
  C   C58       1.0  0.53656  0.008769999999999997  0.1597  1.0000
  C   C59       1.0  0.51853  0.005920000000000001  0.07817  1.0000
  C   C60       1.0  0.57906  0.98646  0.42092  1.0000
  C   C61       1.0  0.56204  0.42581  0.58114  1.0000
  C   C62       1.0  0.60286  0.37894  0.62261  1.0000
  C   C63       1.0  0.68141  0.42007  0.69717  1.0000
  C   C64       1.0  0.7226599999999997  0.3754699999999999  0.7336899999999997  1.0000
  C   C65       1.0  0.68509  0.28988  0.69559  1.0000
  C   C66       1.0  0.6057  0.24945999999999993  0.62101  1.0000
  C   C67       1.0  0.56425  0.29336  0.58426  1.0000
  C   C68       1.0  0.8490999999999999  0.3764899999999999  0.8402999999999998  1.0000
  C   C69       1.0  0.9278499999999998  0.44006  0.92178  1.0000
  C   C70       1.0  0.56635  0.15781  0.57902  1.0000
  C   C71       1.0  0.019299999999999994  0.15503999999999996  0.58194  1.0000
  C   C72       1.0  0.020049999999999967  0.24334999999999998  0.623  1.0000
  C   C73       1.0  0.01597999999999999  0.27682  0.69742  1.0000
  C   C74       1.0  0.011119999999999988  0.35779  0.73364  1.0000
  C   C75       1.0  0.010909999999999987  0.40525  0.69554  1.0000
  C   C76       1.0  0.015780000000000006  0.37109  0.62102  1.0000
  C   C77       1.0  0.020260000000000007  0.29044  0.58447  1.0000
  C   C78       1.0  0.9912699999999999  0.46323999999999993  0.84027  1.0000
  C   C79       1.0  0.9941199999999999  0.4813  0.9218  1.0000
  C   C80       1.0  0.01354999999999998  0.42093  0.57916  1.0000
  C   C81       1.0  0.4596899999999999  0.9349400000000001  0.9999799999999999  1.0000
  C   C82       1.0  0.54031  0.06506  2e-05  1.0000
  C   C83       1.0  0.06506  0.5403  1e-05  1.0000
  C   C84       1.0  0.93494  0.45971  0.99999  1.0000
  O   O1        1.0  0.3858399999999999  0.48955999999999994  0.5140499999999999  1.0000
  O   O2        1.0  0.12023  0.60608  0.61536  1.0000
  O   O3        1.0  0.50193  0.60402  0.61489  1.0000
  O   O4        1.0  0.12384  0.4957  0.50916  1.0000
  O   O5        1.0  0.42189  0.7995900000000001  0.8066  1.0000
  O   O6        1.0  0.1276999999999998  0.02527999999999989  0.5148799999999998  1.0000
  O   O7        1.0  0.49515  0.010579999999999999  0.61586  1.0000
  O   O8        1.0  0.11303  0.010669999999999963  0.61561  1.0000
  O   O9        1.0  0.38525  0.01407999999999997  0.50918  1.0000
  O   O10       1.0  0.3844199999999998  0.006759999999999879  0.8063399999999997  1.0000
  O   O11       1.0  0.51063  0.6141599999999999  0.48598999999999987  1.0000
  O   O12       1.0  0.39363  0.87984  0.38457  1.0000
  O   O13       1.0  0.39605  0.49817  0.38512  1.0000
  O   O14       1.0  0.50419  0.8762299999999998  0.4907999999999999  1.0000
  O   O15       1.0  0.20035999999999995  0.57821  0.19333  1.0000
  O   O16       1.0  0.9747799999999999  0.8722399999999999  0.48493  1.0000
  O   O17       1.0  0.98942  0.50491  0.38413  1.0000
  O   O18       1.0  0.9892800000000002  0.8870700000000001  0.38426  1.0000
  O   O19       1.0  0.98591  0.61473  0.49072  1.0000
  O   O20       1.0  0.99322  0.6157600000000001  0.19362  1.0000
  O   O21       1.0  0.61415  0.51045  0.48595  1.0000
  O   O22       1.0  0.87976  0.39392  0.38464  1.0000
  O   O23       1.0  0.49806  0.39598000000000005  0.38511  1.0000
  O   O24       1.0  0.8761499999999999  0.5043  0.49084  1.0000
  O   O25       1.0  0.57811  0.20041  0.19339  1.0000
  O   O26       1.0  0.8723  0.9747200000000001  0.48511  1.0000
  O   O27       1.0  0.50485  0.9894300000000001  0.38413  1.0000
  O   O28       1.0  0.8869599999999999  0.9893300000000002  0.38439  1.0000
  O   O29       1.0  0.6147399999999998  0.9859199999999999  0.49082  1.0000
  O   O30       1.0  0.6155799999999999  0.99324  0.19366  1.0000
  O   O31       1.0  0.48935999999999996  0.38583999999999996  0.51401  1.0000
  O   O32       1.0  0.6063599999999999  0.12016999999999987  0.6154299999999998  1.0000
  O   O33       1.0  0.60394  0.50183  0.61488  1.0000
  O   O34       1.0  0.4958099999999999  0.12378  0.5092  1.0000
  O   O35       1.0  0.7996299999999998  0.42179  0.80667  1.0000
  O   O36       1.0  0.02521  0.12777000000000005  0.51507  1.0000
  O   O37       1.0  0.010579999999999935  0.49510000000000004  0.61587  1.0000
  O   O38       1.0  0.010720000000000032  0.11293  0.61574  1.0000
  O   O39       1.0  0.014079999999999997  0.38527  0.50928  1.0000
  O   O40       1.0  0.00677999999999998  0.38424  0.80638  1.0000
