data_image0
_chemical_formula_structural       Cd4H104C82N12O16
_chemical_formula_sum              "Cd4 H104 C82 N12 O16"
_cell_length_a       12.52582
_cell_length_b       12.410480000000002
_cell_length_c       15.15245
_cell_angle_alpha    93.94409000000002
_cell_angle_beta     92.51531
_cell_angle_gamma    98.38928

_space_group_name_H-M_alt    "P 1"
_space_group_IT_number       1

loop_
  _space_group_symop_operation_xyz
  'x, y, z'

loop_
  _atom_site_type_symbol
  _atom_site_label
  _atom_site_symmetry_multiplicity
  _atom_site_fract_x
  _atom_site_fract_y
  _atom_site_fract_z
  _atom_site_occupancy
  Cd  Cd1       1.0  0.5143399999999999  0.62126  0.42276  1.0000
  Cd  Cd2       1.0  0.8295  0.19606  0.14524  1.0000
  Cd  Cd3       1.0  0.4856699999999999  0.37874  0.57724  1.0000
  Cd  Cd4       1.0  0.17051  0.80394  0.85476  1.0000
  H   H1        1.0  0.40943999999999997  0.7405400000000002  0.79065  1.0000
  H   H2        1.0  0.6259399999999998  0.17393000000000003  0.60384  1.0000
  H   H3        1.0  0.58006  0.48272000000000004  0.95878  1.0000
  H   H4        1.0  0.13229999999999997  0.25435  0.49208  1.0000
  H   H5        1.0  0.7714700000000001  0.38223  0.62802  1.0000
  H   H6        1.0  0.10713999999999997  0.85172  0.4814  1.0000
  H   H7        1.0  0.5568299999999999  0.89494  0.01191  1.0000
  H   H8        1.0  0.59685  0.77816  0.73536  1.0000
  H   H9        1.0  0.38875999999999994  0.14053  0.81277  1.0000
  H   H10       1.0  0.64682  0.38098  0.39382  1.0000
  H   H11       1.0  0.9524899999999998  0.8026000000000001  0.03284  1.0000
  H   H12       1.0  0.43139  0.37518000000000007  0.87345  1.0000
  H   H13       1.0  0.8256799999999997  0.50668  0.52447  1.0000
  H   H14       1.0  0.66638  0.7909  0.09846000000000003  1.0000
  H   H15       1.0  0.047510000000000004  0.19740000000000005  0.9671600000000002  1.0000
  H   H16       1.0  0.5686099999999998  0.62483  0.12655  1.0000
  H   H17       1.0  0.0999  0.56122  0.25026  1.0000
  H   H18       1.0  0.7195199999999998  0.97968  0.27867000000000003  1.0000
  H   H19       1.0  0.35577  0.51672  0.14278  1.0000
  H   H20       1.0  0.5298299999999998  0.73823  0.9030600000000002  1.0000
  H   H21       1.0  0.23908999999999997  0.31842  0.27408  1.0000
  H   H22       1.0  0.91268  0.26447  0.65047  1.0000
  H   H23       1.0  0.83183  0.54634  0.7841  1.0000
  H   H24       1.0  0.79789  0.04576  0.46084  1.0000
  H   H25       1.0  0.99849  0.16438  0.63452  1.0000
  H   H26       1.0  0.9474299999999998  0.9154100000000001  0.79285  1.0000
  H   H27       1.0  0.9252799999999999  0.42058  0.40939  1.0000
  H   H28       1.0  0.8928599999999998  0.14828  0.5186  1.0000
  H   H29       1.0  0.8121899999999997  0.25445  0.38274  1.0000
  H   H30       1.0  0.22852999999999998  0.61777  0.3719800000000001  1.0000
  H   H31       1.0  0.6841199999999997  0.0023900000000000206  0.9036700000000002  1.0000
  H   H32       1.0  0.17431999999999997  0.49332000000000004  0.47553  1.0000
  H   H33       1.0  0.10677  0.79803  0.15411000000000002  1.0000
  H   H34       1.0  0.6790699999999997  0.31402  0.77707  1.0000
  H   H35       1.0  0.0015100000000000007  0.83562  0.36548000000000014  1.0000
  H   H36       1.0  0.75393  0.7601300000000002  0.6326200000000001  1.0000
  H   H37       1.0  0.56277  0.79024  0.6235  1.0000
  H   H38       1.0  0.025700000000000014  0.53798  0.4184600000000001  1.0000
  H   H39       1.0  0.9865099999999998  0.7751700000000002  0.5811000000000002  1.0000
  H   H40       1.0  0.8662199999999998  0.78958  0.70912  1.0000
  H   H41       1.0  0.16817  0.45367  0.2159  1.0000
  H   H42       1.0  0.81706  0.10453  0.90532  1.0000
  H   H43       1.0  0.08732  0.73553  0.34953  1.0000
  H   H44       1.0  0.5708899999999998  0.65786  0.98567  1.0000
  H   H45       1.0  0.3586  0.01961000000000001  0.53195  1.0000
  H   H46       1.0  0.13379  0.21042000000000002  0.29088  1.0000
  H   H47       1.0  0.7518699999999998  0.88803  0.8801000000000002  1.0000
  H   H48       1.0  0.41994999999999993  0.51728  0.04122  1.0000
  H   H49       1.0  0.76091  0.6815800000000002  0.72592  1.0000
  H   H50       1.0  0.71199  0.44733000000000006  0.95471  1.0000
  H   H51       1.0  0.68992  0.46765999999999996  0.68158  1.0000
  H   H52       1.0  0.06987  0.4849100000000001  0.67301  1.0000
  H   H53       1.0  0.6112499999999998  0.85947  0.18723  1.0000
  H   H54       1.0  0.45089  0.09996000000000002  0.4705200000000001  1.0000
  H   H55       1.0  0.63472  0.18332  0.81341  1.0000
  H   H56       1.0  0.74288  0.27179  0.8726  1.0000
  H   H57       1.0  0.36527999999999977  0.81668  0.18659  1.0000
  H   H58       1.0  0.5491099999999999  0.90004  0.52948  1.0000
  H   H59       1.0  0.07471999999999998  0.57942  0.59061  1.0000
  H   H60       1.0  0.44864000000000004  0.6130300000000002  0.92045  1.0000
  H   H61       1.0  0.55136  0.38697  0.07955000000000001  1.0000
  H   H62       1.0  0.7983499999999998  0.94415  0.024950000000000007  1.0000
  H   H63       1.0  0.6413999999999999  0.9804000000000002  0.46805  1.0000
  H   H64       1.0  0.4836699999999999  0.02809000000000001  0.65545  1.0000
  H   H65       1.0  0.46748  0.90503  0.09685  1.0000
  H   H66       1.0  0.66533  0.8487400000000002  0.49349  1.0000
  H   H67       1.0  0.24607999999999997  0.23987  0.36738  1.0000
  H   H68       1.0  0.3158799999999999  0.99761  0.09633  1.0000
  H   H69       1.0  0.61362  0.8821600000000003  0.8483500000000003  1.0000
  H   H70       1.0  0.59057  0.25947  0.20935  1.0000
  H   H71       1.0  0.35318  0.61902  0.60618  1.0000
  H   H72       1.0  0.97431  0.46202  0.58154  1.0000
  H   H73       1.0  0.05257  0.0846  0.20715  1.0000
  H   H74       1.0  0.4291099999999999  0.34214  0.014330000000000002  1.0000
  H   H75       1.0  0.02072999999999999  0.78275  0.25771  1.0000
  H   H76       1.0  0.32093  0.6859800000000001  0.22293000000000004  1.0000
  H   H77       1.0  0.3346799999999999  0.15126999999999996  0.50651  1.0000
  H   H78       1.0  0.40315999999999974  0.22183999999999998  0.26464  1.0000
  H   H79       1.0  0.51633  0.97191  0.34455000000000013  1.0000
  H   H80       1.0  0.25712  0.72821  0.1274  1.0000
  H   H81       1.0  0.28047999999999995  0.02032  0.72133  1.0000
  H   H82       1.0  0.18294  0.89547  0.09468  1.0000
  H   H83       1.0  0.93013  0.51509  0.32699  1.0000
  H   H84       1.0  0.2880099999999999  0.55267  0.04529  1.0000
  H   H85       1.0  0.33362  0.2091  0.90154  1.0000
  H   H86       1.0  0.97927  0.21725000000000003  0.7422900000000002  1.0000
  H   H87       1.0  0.43722999999999995  0.20976  0.3765  1.0000
  H   H88       1.0  0.03327999999999998  0.34215  0.49615  1.0000
  H   H89       1.0  0.44317999999999996  0.10506000000000004  0.9880900000000002  1.0000
  H   H90       1.0  0.013490000000000005  0.22483000000000003  0.4189000000000001  1.0000
  H   H91       1.0  0.9001099999999997  0.43878  0.74974  1.0000
  H   H92       1.0  0.20211  0.95424  0.53916  1.0000
  H   H93       1.0  0.31007999999999997  0.53234  0.31842000000000004  1.0000
  H   H94       1.0  0.8677  0.7456500000000001  0.50792  1.0000
  H   H95       1.0  0.38637999999999983  0.11784000000000001  0.15165000000000006  1.0000
  H   H96       1.0  0.64424  0.48328  0.85722  1.0000
  H   H97       1.0  0.18781  0.74555  0.61726  1.0000
  H   H98       1.0  0.8932299999999999  0.20197  0.8458900000000003  1.0000
  H   H99       1.0  0.37406  0.82607  0.39616  1.0000
  H   H100      1.0  0.20166  0.055850000000000004  0.97505  1.0000
  H   H101      1.0  0.5325199999999999  0.09497000000000003  0.9031500000000002  1.0000
  H   H102      1.0  0.47016999999999987  0.26177  0.09694  1.0000
  H   H103      1.0  0.24812999999999993  0.11197  0.1199  1.0000
  H   H104      1.0  0.9667299999999999  0.65785  0.50385  1.0000
  C   C1        1.0  0.07389999999999998  0.29008  0.45138  1.0000
  C   C2        1.0  0.21609000000000003  0.9428900000000001  0.3964800000000001  1.0000
  C   C3        1.0  0.3029  0.028800000000000006  0.3951  1.0000
  C   C4        1.0  0.63347  0.44045000000000023  0.9180000000000003  1.0000
  C   C5        1.0  0.12554  0.04779000000000002  0.9368200000000002  1.0000
  C   C6        1.0  0.31617999999999996  0.42435  0.4637100000000001  1.0000
  C   C7        1.0  0.49988999999999983  0.68439  0.95394  1.0000
  C   C8        1.0  0.7839100000000001  0.05711000000000002  0.6035200000000002  1.0000
  C   C9        1.0  0.27606  0.02274  0.23356  1.0000
  C   C10       1.0  0.8084  0.7228200000000002  0.6756  1.0000
  C   C11       1.0  0.13035999999999998  0.88603  0.15046000000000004  1.0000
  C   C12       1.0  0.33131  0.06927  0.31333  1.0000
  C   C13       1.0  0.58629  0.32049999999999995  0.89476  1.0000
  C   C14       1.0  0.93773  0.19156000000000004  0.67768  1.0000
  C   C15       1.0  0.2507499999999999  0.74286  0.5701800000000001  1.0000
  C   C16       1.0  0.5001199999999999  0.31561  0.04606  1.0000
  C   C17       1.0  0.19068000000000002  0.8929000000000001  0.48254  1.0000
  C   C18       1.0  0.66371  0.03837000000000001  0.2755500000000001  1.0000
  C   C19       1.0  0.5142  0.8488100000000001  0.06234  1.0000
  C   C20       1.0  0.6686899999999998  0.9307300000000001  0.68667  1.0000
  C   C21       1.0  0.84291  0.10193  0.6823200000000003  1.0000
  C   C22       1.0  0.36461999999999994  0.07684999999999999  0.48004  1.0000
  C   C23       1.0  0.8744599999999999  0.95221  0.06318  1.0000
  C   C24       1.0  0.012349999999999993  0.6704100000000001  0.74832  1.0000
  C   C25       1.0  0.42249999999999993  0.16354  0.31178  1.0000
  C   C26       1.0  0.8115799999999997  0.06259  0.76386  1.0000
  C   C27       1.0  0.7694499999999997  0.46632  0.65432  1.0000
  C   C28       1.0  0.9260999999999999  0.7099199999999999  0.54862  1.0000
  C   C29       1.0  0.63538  0.92315  0.51996  1.0000
  C   C30       1.0  0.13852999999999996  0.4942300000000001  0.27437  1.0000
  C   C31       1.0  0.05702  0.41219000000000006  0.31852  1.0000
  C   C32       1.0  0.5615  0.25307  0.97848  1.0000
  C   C33       1.0  0.5904699999999999  0.80341  0.12825  1.0000
  C   C34       1.0  0.5775  0.8364700000000002  0.6882200000000003  1.0000
  C   C35       1.0  0.4004199999999999  0.8168800000000002  0.7626000000000001  1.0000
  C   C36       1.0  0.8677599999999998  0.64522  0.61948  1.0000
  C   C37       1.0  0.05089000000000001  0.11858000000000002  0.9328800000000003  1.0000
  C   C38       1.0  0.15709999999999996  0.89807  0.31768000000000013  1.0000
  C   C39       1.0  0.5995799999999999  0.18312000000000003  0.2374  1.0000
  C   C40       1.0  0.6971099999999999  0.9712  0.6049  1.0000
  C   C41       1.0  0.9491099999999999  0.88142  0.06712  1.0000
  C   C42       1.0  0.56368  0.03434  0.31045  1.0000
  C   C43       1.0  0.30852999999999997  0.06461  0.14612  1.0000
  C   C44       1.0  0.21411999999999998  0.4555600000000001  0.42077  1.0000
  C   C45       1.0  0.01994  0.52542  0.62827  1.0000
  C   C46       1.0  0.9800599999999999  0.47458  0.37173  1.0000
  C   C47       1.0  0.18841999999999995  0.93741  0.23614000000000004  1.0000
  C   C48       1.0  0.8093199999999996  0.10711  0.51746  1.0000
  C   C49       1.0  0.52959  0.69278  0.15312  1.0000
  C   C50       1.0  0.8614799999999998  0.50577  0.72563  1.0000
  C   C51       1.0  0.9876499999999998  0.32959  0.25168  1.0000
  C   C52       1.0  0.4363199999999999  0.96567  0.68955  1.0000
  C   C53       1.0  0.72394  0.9772700000000002  0.76644  1.0000
  C   C54       1.0  0.33357  0.68172  0.5645600000000002  1.0000
  C   C55       1.0  0.9962399999999999  0.97157  0.84157  1.0000
  C   C56       1.0  0.9429799999999998  0.58781  0.68148  1.0000
  C   C57       1.0  0.36654  0.55955  0.082  1.0000
  C   C58       1.0  0.43849999999999995  0.74693  0.021520000000000004  1.0000
  C   C59       1.0  0.47506999999999994  0.32016  0.74787  1.0000
  C   C60       1.0  0.41371999999999987  0.6795000000000001  0.10524  1.0000
  C   C61       1.0  0.7492499999999999  0.25714  0.42982  1.0000
  C   C62       1.0  0.66644  0.31828  0.4354400000000001  1.0000
  C   C63       1.0  0.52493  0.6798400000000001  0.25213  1.0000
  C   C64       1.0  0.6656199999999998  0.22758  0.02453  1.0000
  C   C65       1.0  0.65188  0.21138000000000004  0.5445100000000003  1.0000
  C   C66       1.0  0.33509999999999995  0.73155  0.16394000000000006  1.0000
  C   C67       1.0  0.6838299999999999  0.57565  0.53629  1.0000
  C   C68       1.0  0.4857999999999999  0.15119000000000002  0.93766  1.0000
  C   C69       1.0  0.33438  0.77242  0.97547  1.0000
  C   C70       1.0  0.78588  0.54444  0.57923  1.0000
  C   C71       1.0  0.8696399999999995  0.11397  0.84954  1.0000
  C   C72       1.0  0.40952999999999995  0.19659000000000004  0.8717500000000002  1.0000
  C   C73       1.0  0.0037599999999999995  0.02843  0.15843  1.0000
  C   C74       1.0  0.1916  0.27718  0.3244  1.0000
  C   C75       1.0  0.6914699999999998  0.93539  0.85388  1.0000
  C   C76       1.0  0.6649  0.26845  0.83606  1.0000
  C   C77       1.0  0.3362999999999999  0.96163  0.7244500000000003  1.0000
  C   C78       1.0  0.06226999999999999  0.80844  0.32232  1.0000
  C   C79       1.0  0.4704099999999999  0.30722  0.84688  1.0000
  C   C80       1.0  0.13224  0.35478  0.38052000000000014  1.0000
  C   C81       1.0  0.23054999999999998  0.53369  0.34568  1.0000
  C   C82       1.0  0.34812000000000004  0.7886200000000001  0.4554900000000001  1.0000
  N   N1        1.0  0.9096299999999999  0.043550000000000005  0.12014  1.0000
  N   N2        1.0  0.030330000000000027  0.9307300000000001  0.12821  1.0000
  N   N3        1.0  0.39389  0.7111300000000003  0.4932  1.0000
  N   N4        1.0  0.60611  0.28887  0.5068  1.0000
  N   N5        1.0  0.31549999999999995  0.8693000000000002  0.7704400000000002  1.0000
  N   N6        1.0  0.6845  0.13071  0.22956  1.0000
  N   N7        1.0  0.4759299999999999  0.87297  0.7141600000000002  1.0000
  N   N8        1.0  0.09036999999999999  0.95645  0.87986  1.0000
  N   N9        1.0  0.52407  0.12703  0.2858400000000001  1.0000
  N   N10       1.0  0.9696699999999998  0.06928  0.87179  1.0000
  N   N11       1.0  0.26093999999999995  0.80988  0.50054  1.0000
  N   N12       1.0  0.73907  0.19012  0.4994600000000001  1.0000
  O   O1        1.0  0.9993599999999997  0.33291  0.16925  1.0000
  O   O2        1.0  0.47032999999999997  0.23807000000000006  0.69187  1.0000
  O   O3        1.0  0.0006499999999999922  0.66709  0.83075  1.0000
  O   O4        1.0  0.30171  0.86373  0.9915300000000002  1.0000
  O   O5        1.0  0.5918499999999999  0.55474  0.57051  1.0000
  O   O6        1.0  0.30682  0.37591  0.5355300000000001  1.0000
  O   O7        1.0  0.48613999999999996  0.41889000000000004  0.72424  1.0000
  O   O8        1.0  0.4081599999999999  0.44526  0.42949  1.0000
  O   O9        1.0  0.52967  0.76193  0.30813  1.0000
  O   O10       1.0  0.5138600000000001  0.58111  0.27576  1.0000
  O   O11       1.0  0.91592  0.2592500000000001  0.28324  1.0000
  O   O12       1.0  0.6931799999999998  0.62409  0.46447  1.0000
  O   O13       1.0  0.6982999999999999  0.13627  0.00847  1.0000
  O   O14       1.0  0.08409000000000001  0.7407500000000001  0.71676  1.0000
  O   O15       1.0  0.71674  0.30176  0.08079  1.0000
  O   O16       1.0  0.28326  0.6982500000000001  0.91921  1.0000
