data_image0
_chemical_formula_structural       La4H60C108O24
_chemical_formula_sum              "La4 H60 C108 O24"
_cell_length_a       13.43814
_cell_length_b       15.23992
_cell_length_c       22.49266
_cell_angle_alpha    109.52300999999999
_cell_angle_beta     98.97368000000002
_cell_angle_gamma    89.80349

_symmetry_space_group_name_H-M    'P 1'
_symmetry_Int_Tables_number       1

loop_
  _symmetry_equiv_pos_as_xyz
  'x,y,z'

loop_
  _atom_site_type_symbol
  _atom_site_label
  _atom_site_symmetry_multiplicity
  _atom_site_fract_x
  _atom_site_fract_y
  _atom_site_fract_z
  _atom_site_occupancy
  La  La1       1.0  0.47075  0.42009  0.41  1.0000
  La  La2       1.0  0.028810000000000002  0.00904  0.5904  1.0000
  La  La3       1.0  0.5292500000000001  0.5799099999999998  0.59  1.0000
  La  La4       1.0  0.97119  0.9909599999999997  0.4096000000000001  1.0000
  H   H1        1.0  0.7970200000000002  0.7335499999999999  0.53843  1.0000
  H   H2        1.0  0.91614  0.7349500000000001  0.3717500000000001  1.0000
  H   H3        1.0  0.7091600000000002  0.51153  0.35991  1.0000
  H   H4        1.0  0.8601300000000002  0.69112  0.26782  1.0000
  H   H5        1.0  0.88245  0.6082099999999998  0.15823  1.0000
  H   H6        1.0  0.81555  0.34655999999999987  0.1823  1.0000
  H   H7        1.0  0.79654  0.42913  0.29215  1.0000
  H   H8        1.0  0.87934  0.54085  0.0653  1.0000
  H   H9        1.0  0.90649  0.45683999999999997  0.95783  1.0000
  H   H10       1.0  0.88622  0.19746000000000002  0.9943100000000002  1.0000
  H   H11       1.0  0.863  0.28166  0.10221  1.0000
  H   H12       1.0  0.9121600000000002  0.3853100000000001  0.8664300000000003  1.0000
  H   H13       1.0  0.95715  0.29853  0.76138  1.0000
  H   H14       1.0  0.9627300000000001  0.046090000000000096  0.8061500000000001  1.0000
  H   H15       1.0  0.9206100000000004  0.13164000000000015  0.9124300000000002  1.0000
  H   H16       1.0  0.7025600000000001  0.19512999999999994  0.46094  1.0000
  H   H17       1.0  0.58376  0.36264  0.62751  1.0000
  H   H18       1.0  0.79191  0.15056  0.63986  1.0000
  H   H19       1.0  0.6413800000000002  0.4222499999999999  0.73113  1.0000
  H   H20       1.0  0.61904  0.44919999999999993  0.84083  1.0000
  H   H21       1.0  0.68539  0.16375999999999993  0.8186  1.0000
  H   H22       1.0  0.70479  0.13628000000000007  0.70857  1.0000
  H   H23       1.0  0.62142  0.47439999999999993  0.9335300000000001  1.0000
  H   H24       1.0  0.5941000000000002  0.4986399999999999  0.04122  1.0000
  H   H25       1.0  0.61298  0.20355999999999994  0.00694  1.0000
  H   H26       1.0  0.63652  0.17908999999999992  0.89878  1.0000
  H   H27       1.0  0.58891  0.51876  0.13292  1.0000
  H   H28       1.0  0.54184  0.5382  0.23782  1.0000
  H   H29       1.0  0.53548  0.24194999999999994  0.19542  1.0000
  H   H30       1.0  0.57983  0.22034000000000004  0.08952  1.0000
  H   H31       1.0  0.20298  0.26646  0.46157  1.0000
  H   H32       1.0  0.08384999999999997  0.2650499999999999  0.62825  1.0000
  H   H33       1.0  0.29084  0.48846999999999996  0.64009  1.0000
  H   H34       1.0  0.13987000000000002  0.30888  0.7321700000000001  1.0000
  H   H35       1.0  0.11755000000000002  0.39178999999999997  0.84176  1.0000
  H   H36       1.0  0.1844500000000001  0.6534399999999998  0.8177  1.0000
  H   H37       1.0  0.20345000000000008  0.5708699999999999  0.7078500000000001  1.0000
  H   H38       1.0  0.12066  0.4591499999999999  0.9347  1.0000
  H   H39       1.0  0.09351000000000001  0.54316  0.04216  1.0000
  H   H40       1.0  0.11378000000000002  0.80254  0.00569  1.0000
  H   H41       1.0  0.13700000000000007  0.7183499999999998  0.89779  1.0000
  H   H42       1.0  0.08784  0.6146899999999997  0.13357  1.0000
  H   H43       1.0  0.04285000000000001  0.70147  0.23862000000000005  1.0000
  H   H44       1.0  0.037270000000000005  0.95391  0.19384  1.0000
  H   H45       1.0  0.07939  0.8683599999999998  0.08757000000000001  1.0000
  H   H46       1.0  0.2974400000000001  0.8048699999999996  0.53906  1.0000
  H   H47       1.0  0.41624  0.63736  0.37249  1.0000
  H   H48       1.0  0.20809  0.84944  0.36014  1.0000
  H   H49       1.0  0.3586200000000001  0.57775  0.26886000000000004  1.0000
  H   H50       1.0  0.38096  0.55081  0.15917  1.0000
  H   H51       1.0  0.31461  0.8362399999999998  0.1814  1.0000
  H   H52       1.0  0.29521  0.8637199999999999  0.29143  1.0000
  H   H53       1.0  0.37857  0.5256  0.06646  1.0000
  H   H54       1.0  0.4059000000000001  0.50136  0.9587800000000001  1.0000
  H   H55       1.0  0.38701000000000013  0.79644  0.9930600000000003  1.0000
  H   H56       1.0  0.36348000000000014  0.8209099999999998  0.10122000000000003  1.0000
  H   H57       1.0  0.41109  0.4812399999999999  0.86708  1.0000
  H   H58       1.0  0.45816000000000007  0.46179999999999993  0.7621800000000001  1.0000
  H   H59       1.0  0.46452000000000004  0.7580499999999998  0.80457  1.0000
  H   H60       1.0  0.42017  0.77966  0.91048  1.0000
  C   C1        1.0  0.68023  0.5704399999999997  0.4806  1.0000
  C   C2        1.0  0.74717  0.61707  0.45185  1.0000
  C   C3        1.0  0.8013  0.7010299999999998  0.48797  1.0000
  C   C4        1.0  0.8602800000000005  0.7436099999999998  0.45804  1.0000
  C   C5        1.0  0.86728  0.7015899999999998  0.39313  1.0000
  C   C6        1.0  0.81527  0.6158299999999998  0.35671  1.0000
  C   C7        1.0  0.7539200000000001  0.57573  0.3869  1.0000
  C   C8        1.0  0.9173200000000001  0.8330599999999998  0.49655  1.0000
  C   C9        1.0  0.82596  0.56712  0.28927  1.0000
  C   C10       1.0  0.8500900000000002  0.6153999999999997  0.24952  1.0000
  C   C11       1.0  0.8626200000000002  0.56775  0.18671  1.0000
  C   C12       1.0  0.8521500000000002  0.46972999999999987  0.16023000000000004  1.0000
  C   C13       1.0  0.8265400000000003  0.42202  0.20014000000000007  1.0000
  C   C14       1.0  0.81406  0.46926000000000007  0.26285000000000003  1.0000
  C   C15       1.0  0.86827  0.4191699999999999  0.09407  1.0000
  C   C16       1.0  0.8813  0.4653699999999999  0.05075  1.0000
  C   C17       1.0  0.8961199999999999  0.41686  0.98857  1.0000
  C   C18       1.0  0.8985100000000001  0.31891  0.9654300000000002  1.0000
  C   C19       1.0  0.88561  0.27294  0.00888  1.0000
  C   C20       1.0  0.8715200000000001  0.32131  0.07101  1.0000
  C   C21       1.0  0.91639  0.26682  0.89985  1.0000
  C   C22       1.0  0.92475  0.3114199999999999  0.8548300000000001  1.0000
  C   C23       1.0  0.94962  0.26282  0.79512  1.0000
  C   C24       1.0  0.9660800000000002  0.16719  0.77786  1.0000
  C   C25       1.0  0.9521900000000001  0.12063000000000003  0.82044  1.0000
  C   C26       1.0  0.92813  0.16963  0.8801200000000001  1.0000
  C   C27       1.0  0.0007300000000000185  0.11571999999999995  0.71682  1.0000
  C   C28       1.0  0.81997  0.08956  0.51897  1.0000
  C   C29       1.0  0.75316  0.16481999999999997  0.54778  1.0000
  C   C30       1.0  0.69863  0.21282999999999996  0.51146  1.0000
  C   C31       1.0  0.63947  0.28521  0.54118  1.0000
  C   C32       1.0  0.6327600000000001  0.3079199999999999  0.6062  1.0000
  C   C33       1.0  0.6853  0.25829  0.64286  1.0000
  C   C34       1.0  0.74672  0.18799999999999997  0.61278  1.0000
  C   C35       1.0  0.58239  0.3355999999999999  0.50177  1.0000
  C   C36       1.0  0.67509  0.27689999999999987  0.71048  1.0000
  C   C37       1.0  0.65127  0.3649199999999999  0.74984  1.0000
  C   C38       1.0  0.63872  0.38023  0.81276  1.0000
  C   C39       1.0  0.64881  0.30874999999999986  0.83972  1.0000
  C   C40       1.0  0.6745000000000001  0.22121999999999997  0.8002600000000001  1.0000
  C   C41       1.0  0.68709  0.20562999999999995  0.73746  1.0000
  C   C42       1.0  0.63227  0.32440999999999987  0.9059  1.0000
  C   C43       1.0  0.61936  0.41384  0.94869  1.0000
  C   C44       1.0  0.60443  0.4279499999999999  0.011  1.0000
  C   C45       1.0  0.60176  0.35354  0.03483  1.0000
  C   C46       1.0  0.6142000000000001  0.26414999999999994  0.99184  1.0000
  C   C47       1.0  0.62846  0.24996  0.92956  1.0000
  C   C48       1.0  0.5838  0.36746  0.1006  1.0000
  C   C49       1.0  0.57546  0.4570099999999999  0.14504000000000003  1.0000
  C   C50       1.0  0.54951  0.4687  0.20467  1.0000
  C   C51       1.0  0.53195  0.39089999999999997  0.22247  1.0000
  C   C52       1.0  0.54649  0.30181  0.18067  1.0000
  C   C53       1.0  0.5717  0.29059999999999997  0.12110000000000001  1.0000
  C   C54       1.0  0.49543  0.40059  0.28306  1.0000
  C   C55       1.0  0.31977  0.4295599999999999  0.51939  1.0000
  C   C56       1.0  0.25283  0.3829299999999999  0.54814  1.0000
  C   C57       1.0  0.19869  0.2989699999999999  0.51202  1.0000
  C   C58       1.0  0.13972  0.25639  0.54195  1.0000
  C   C59       1.0  0.13272  0.2984099999999999  0.60686  1.0000
  C   C60       1.0  0.18473  0.3841699999999999  0.64328  1.0000
  C   C61       1.0  0.24608000000000002  0.4242799999999999  0.61309  1.0000
  C   C62       1.0  0.08268  0.16694  0.50345  1.0000
  C   C63       1.0  0.17403000000000005  0.43287999999999993  0.71073  1.0000
  C   C64       1.0  0.14991000000000004  0.38459999999999994  0.7504700000000001  1.0000
  C   C65       1.0  0.13738000000000006  0.4322599999999999  0.8132900000000001  1.0000
  C   C66       1.0  0.14785000000000006  0.5302699999999998  0.83977  1.0000
  C   C67       1.0  0.17346000000000003  0.5779799999999998  0.79986  1.0000
  C   C68       1.0  0.18594  0.53074  0.73715  1.0000
  C   C69       1.0  0.13173000000000007  0.58083  0.9059300000000001  1.0000
  C   C70       1.0  0.11870000000000003  0.53464  0.94925  1.0000
  C   C71       1.0  0.10388  0.58314  0.01143  1.0000
  C   C72       1.0  0.10149  0.6810899999999998  0.03456  1.0000
  C   C73       1.0  0.11439000000000002  0.7270599999999999  0.9911200000000001  1.0000
  C   C74       1.0  0.12848  0.6786899999999998  0.92899  1.0000
  C   C75       1.0  0.08361000000000003  0.7331799999999998  0.10014  1.0000
  C   C76       1.0  0.07525  0.68859  0.14517  1.0000
  C   C77       1.0  0.05038000000000001  0.73718  0.20487000000000002  1.0000
  C   C78       1.0  0.03392000000000001  0.8328099999999999  0.22214  1.0000
  C   C79       1.0  0.0478  0.87937  0.17956  1.0000
  C   C80       1.0  0.07186999999999999  0.83037  0.11988000000000003  1.0000
  C   C81       1.0  0.9992700000000001  0.88428  0.28317  1.0000
  C   C82       1.0  0.18003000000000002  0.91044  0.4810200000000001  1.0000
  C   C83       1.0  0.24684  0.8351799999999997  0.45222000000000007  1.0000
  C   C84       1.0  0.3013700000000001  0.78718  0.48854  1.0000
  C   C85       1.0  0.36053  0.71479  0.45881000000000005  1.0000
  C   C86       1.0  0.3672400000000001  0.69208  0.39380000000000004  1.0000
  C   C87       1.0  0.3147  0.7417099999999998  0.35714  1.0000
  C   C88       1.0  0.2532800000000001  0.8119999999999996  0.38722  1.0000
  C   C89       1.0  0.41761  0.66441  0.49822  1.0000
  C   C90       1.0  0.3249100000000001  0.7231  0.28952  1.0000
  C   C91       1.0  0.34873  0.63508  0.25016  1.0000
  C   C92       1.0  0.36127000000000004  0.6197799999999999  0.18723000000000004  1.0000
  C   C93       1.0  0.35119  0.6912499999999998  0.16028  1.0000
  C   C94       1.0  0.3255000000000001  0.7787799999999998  0.19974  1.0000
  C   C95       1.0  0.31291000000000013  0.79437  0.26254  1.0000
  C   C96       1.0  0.36773  0.6755899999999998  0.09410000000000002  1.0000
  C   C97       1.0  0.3806300000000001  0.58616  0.05131000000000001  1.0000
  C   C98       1.0  0.3955700000000001  0.57206  0.98899  1.0000
  C   C99       1.0  0.39824000000000004  0.6464600000000001  0.9651600000000001  1.0000
  C   C100      1.0  0.3858  0.7358499999999998  0.008160000000000002  1.0000
  C   C101      1.0  0.37154  0.7500399999999998  0.07043  1.0000
  C   C102      1.0  0.4162  0.63254  0.8994  1.0000
  C   C103      1.0  0.42454000000000003  0.54299  0.8549500000000001  1.0000
  C   C104      1.0  0.4504900000000001  0.5312999999999998  0.79533  1.0000
  C   C105      1.0  0.46805000000000013  0.6091000000000001  0.7775300000000002  1.0000
  C   C106      1.0  0.45351  0.6981899999999998  0.81933  1.0000
  C   C107      1.0  0.42830000000000007  0.7094  0.8789  1.0000
  C   C108      1.0  0.50457  0.5994099999999998  0.7169300000000001  1.0000
  O   O1        1.0  0.6351500000000002  0.49309  0.4437  1.0000
  O   O2        1.0  0.66978  0.6087499999999998  0.53921  1.0000
  O   O3        1.0  0.9340300000000001  0.85731  0.5572200000000002  1.0000
  O   O4        1.0  0.94985  0.8849399999999997  0.46757  1.0000
  O   O5        1.0  0.02561000000000003  0.15994  0.6811900000000001  1.0000
  O   O6        1.0  0.005570000000000001  0.02621000000000002  0.69965  1.0000
  O   O7        1.0  0.8647600000000002  0.04811000000000004  0.55586  1.0000
  O   O8        1.0  0.8304900000000001  0.07029999999999999  0.46048  1.0000
  O   O9        1.0  0.56571  0.29836999999999997  0.4411300000000001  1.0000
  O   O10       1.0  0.54997  0.4169099999999999  0.52964  1.0000
  O   O11       1.0  0.47009  0.4801899999999998  0.31834  1.0000
  O   O12       1.0  0.48984  0.32827  0.30042  1.0000
  O   O13       1.0  0.36485  0.50691  0.5563  1.0000
  O   O14       1.0  0.33021  0.3912499999999999  0.46079  1.0000
  O   O15       1.0  0.06597  0.14268999999999998  0.44278  1.0000
  O   O16       1.0  0.05014999999999999  0.11505999999999998  0.53243  1.0000
  O   O17       1.0  0.97439  0.8400599999999998  0.31880000000000003  1.0000
  O   O18       1.0  0.9944300000000003  0.97379  0.30035000000000006  1.0000
  O   O19       1.0  0.13524000000000003  0.9518899999999999  0.4441300000000001  1.0000
  O   O20       1.0  0.16951  0.9297  0.53952  1.0000
  O   O21       1.0  0.4342900000000002  0.7016299999999999  0.5588600000000001  1.0000
  O   O22       1.0  0.45003000000000015  0.58309  0.47035000000000005  1.0000
  O   O23       1.0  0.52991  0.51981  0.68165  1.0000
  O   O24       1.0  0.51016  0.67173  0.69958  1.0000
