data_image0
_chemical_formula_structural       Cu6H54C96N6O30
_chemical_formula_sum              "Cu6 H54 C96 N6 O30"
_cell_length_a       14.55388
_cell_length_b       14.55426
_cell_length_c       14.553379999999999
_cell_angle_alpha    98.15660000000001
_cell_angle_beta     98.17953000000001
_cell_angle_gamma    98.17948

_symmetry_space_group_name_H-M    'P 1'
_symmetry_Int_Tables_number       1

loop_
  _symmetry_equiv_pos_as_xyz
  'x,y,z'

loop_
  _atom_site_type_symbol
  _atom_site_label
  _atom_site_symmetry_multiplicity
  _atom_site_fract_x
  _atom_site_fract_y
  _atom_site_fract_z
  _atom_site_occupancy
  Cu  Cu1       1.0  0.025489999999999978  0.018129999999999983  0.4271799999999999  1.0000
  Cu  Cu2       1.0  0.42718  0.025490000000000006  0.01811  1.0000
  Cu  Cu3       1.0  0.01811000000000002  0.4271800000000001  0.02549999999999999  1.0000
  Cu  Cu4       1.0  0.9745100000000001  0.9818800000000002  0.57282  1.0000
  Cu  Cu5       1.0  0.57282  0.9745200000000003  0.9818999999999999  1.0000
  Cu  Cu6       1.0  0.98189  0.5728200000000002  0.9745  1.0000
  H   H1        1.0  0.74985  0.01617999999999998  0.2547899999999999  1.0000
  H   H2        1.0  0.70145  0.07159999999999997  0.5415999999999997  1.0000
  H   H3        1.0  0.48647999999999997  0.09130000000000003  0.31229999999999997  1.0000
  H   H4        1.0  0.39112  0.07964  0.41921  1.0000
  H   H5        1.0  0.44549999999999995  0.19871  0.4228899999999999  1.0000
  H   H6        1.0  0.49664  0.16558999999999996  0.7797899999999999  1.0000
  H   H7        1.0  0.34586  0.22540000000000002  0.8059799999999998  1.0000
  H   H8        1.0  0.23333  0.24686000000000005  0.67082  1.0000
  H   H9        1.0  0.26403  0.20900000000000002  0.5065899999999998  1.0000
  H   H10       1.0  0.25478  0.74987  0.01618  1.0000
  H   H11       1.0  0.5416  0.70145  0.0716  1.0000
  H   H12       1.0  0.31231  0.48647000000000007  0.0913  1.0000
  H   H13       1.0  0.41919  0.39114  0.07963999999999999  1.0000
  H   H14       1.0  0.4229  0.44549000000000005  0.1987  1.0000
  H   H15       1.0  0.7797899999999999  0.4966400000000001  0.16558999999999993  1.0000
  H   H16       1.0  0.80599  0.34584  0.22540999999999994  1.0000
  H   H17       1.0  0.67083  0.23331000000000005  0.24686999999999995  1.0000
  H   H18       1.0  0.5066  0.26403  0.20901  1.0000
  H   H19       1.0  0.01616999999999998  0.25476000000000004  0.7498799999999998  1.0000
  H   H20       1.0  0.0716  0.54158  0.70142  1.0000
  H   H21       1.0  0.0913  0.3123300000000001  0.4864999999999999  1.0000
  H   H22       1.0  0.07962999999999999  0.4192100000000001  0.39114  1.0000
  H   H23       1.0  0.1987  0.42290999999999995  0.4455199999999999  1.0000
  H   H24       1.0  0.1656  0.7797600000000002  0.4966099999999999  1.0000
  H   H25       1.0  0.22540999999999994  0.8059999999999999  0.3458199999999999  1.0000
  H   H26       1.0  0.24686  0.67085  0.23331999999999994  1.0000
  H   H27       1.0  0.209  0.50663  0.26405999999999996  1.0000
  H   H28       1.0  0.25014999999999993  0.9838200000000001  0.7452099999999998  1.0000
  H   H29       1.0  0.29855  0.9284000000000001  0.45839999999999986  1.0000
  H   H30       1.0  0.51352  0.9087  0.6876999999999998  1.0000
  H   H31       1.0  0.60888  0.92036  0.5808  1.0000
  H   H32       1.0  0.5545  0.80129  0.57711  1.0000
  H   H33       1.0  0.50336  0.8344099999999999  0.22020999999999993  1.0000
  H   H34       1.0  0.65415  0.7746  0.19401999999999997  1.0000
  H   H35       1.0  0.76667  0.7531500000000002  0.32919  1.0000
  H   H36       1.0  0.73597  0.7910000000000003  0.4934099999999999  1.0000
  H   H37       1.0  0.74522  0.2501300000000001  0.9838199999999998  1.0000
  H   H38       1.0  0.4583999999999999  0.29856  0.92841  1.0000
  H   H39       1.0  0.6876999999999999  0.51353  0.9086999999999997  1.0000
  H   H40       1.0  0.58081  0.6088599999999998  0.9203699999999998  1.0000
  H   H41       1.0  0.5771  0.55451  0.8012999999999998  1.0000
  H   H42       1.0  0.22020999999999993  0.50336  0.8344099999999999  1.0000
  H   H43       1.0  0.19401  0.65416  0.7745999999999997  1.0000
  H   H44       1.0  0.32917  0.76669  0.75314  1.0000
  H   H45       1.0  0.49340999999999996  0.73598  0.791  1.0000
  H   H46       1.0  0.9838300000000001  0.7452400000000002  0.25012  1.0000
  H   H47       1.0  0.9283999999999999  0.45842  0.2985799999999999  1.0000
  H   H48       1.0  0.9086999999999998  0.6876700000000002  0.5134999999999998  1.0000
  H   H49       1.0  0.92037  0.5807900000000003  0.60886  1.0000
  H   H50       1.0  0.8012999999999999  0.57709  0.5544799999999998  1.0000
  H   H51       1.0  0.8344  0.22024000000000002  0.5034  1.0000
  H   H52       1.0  0.7745899999999998  0.194  0.65418  1.0000
  H   H53       1.0  0.75314  0.32915  0.76668  1.0000
  H   H54       1.0  0.791  0.49337  0.73594  1.0000
  C   C1        1.0  0.83255  0.025109999999999986  0.4368199999999999  1.0000
  C   C2        1.0  0.57503  0.03796  0.17229  1.0000
  C   C3        1.0  0.70503  0.03638  0.30511  1.0000
  C   C4        1.0  0.73598  0.043339999999999976  0.4017799999999999  1.0000
  C   C5        1.0  0.67779  0.06772000000000003  0.46699  1.0000
  C   C6        1.0  0.5881  0.08843  0.43605  1.0000
  C   C7        1.0  0.55669  0.08015  0.3391299999999999  1.0000
  C   C8        1.0  0.6142  0.05325  0.2744899999999999  1.0000
  C   C9        1.0  0.54409  0.12089  0.59703  1.0000
  C   C10       1.0  0.43674  0.14128  0.46418  1.0000
  C   C11       1.0  0.3993299999999999  0.1695  0.55302  1.0000
  C   C12       1.0  0.46307999999999994  0.15756999999999993  0.6299799999999998  1.0000
  C   C13       1.0  0.44552999999999987  0.17640000000000003  0.7219099999999998  1.0000
  C   C14       1.0  0.36196  0.20896  0.7354299999999998  1.0000
  C   C15       1.0  0.29785999999999985  0.22121999999999997  0.6582099999999997  1.0000
  C   C16       1.0  0.31541  0.20123000000000002  0.56584  1.0000
  C   C17       1.0  0.43682  0.83255  0.02511  1.0000
  C   C18       1.0  0.17228  0.57504  0.03796  1.0000
  C   C19       1.0  0.3051  0.7050400000000001  0.036369999999999986  1.0000
  C   C20       1.0  0.40177  0.73599  0.04333999999999998  1.0000
  C   C21       1.0  0.46699  0.67779  0.06772  1.0000
  C   C22       1.0  0.4360399999999999  0.58811  0.08841999999999998  1.0000
  C   C23       1.0  0.33912  0.55669  0.08014999999999997  1.0000
  C   C24       1.0  0.27448  0.61421  0.05324999999999999  1.0000
  C   C25       1.0  0.59702  0.54409  0.12088999999999997  1.0000
  C   C26       1.0  0.46418999999999994  0.4367400000000001  0.14128  1.0000
  C   C27       1.0  0.5530299999999999  0.39933  0.16950999999999994  1.0000
  C   C28       1.0  0.62998  0.46307999999999994  0.15756999999999996  1.0000
  C   C29       1.0  0.72191  0.44552  0.17639999999999995  1.0000
  C   C30       1.0  0.73544  0.36195  0.20896  1.0000
  C   C31       1.0  0.65822  0.29784  0.22122999999999995  1.0000
  C   C32       1.0  0.56585  0.3154  0.20124  1.0000
  C   C33       1.0  0.025110000000000025  0.43680000000000013  0.83255  1.0000
  C   C34       1.0  0.03795999999999999  0.17228999999999997  0.5750499999999998  1.0000
  C   C35       1.0  0.036369999999999965  0.3051  0.7050499999999997  1.0000
  C   C36       1.0  0.04333000000000003  0.40176  0.73599  1.0000
  C   C37       1.0  0.06771999999999999  0.4669800000000001  0.6777799999999998  1.0000
  C   C38       1.0  0.08842  0.43604  0.58811  1.0000
  C   C39       1.0  0.08015  0.33914  0.55671  1.0000
  C   C40       1.0  0.05324999999999998  0.27449  0.6142199999999998  1.0000
  C   C41       1.0  0.12089999999999998  0.59701  0.54407  1.0000
  C   C42       1.0  0.14127  0.4642000000000001  0.4367599999999999  1.0000
  C   C43       1.0  0.16949999999999998  0.55304  0.3993299999999999  1.0000
  C   C44       1.0  0.15758000000000003  0.6299800000000002  0.46307  1.0000
  C   C45       1.0  0.17640000000000003  0.7219000000000002  0.4454999999999999  1.0000
  C   C46       1.0  0.20897  0.73544  0.3619399999999999  1.0000
  C   C47       1.0  0.22123  0.6582300000000002  0.29785  1.0000
  C   C48       1.0  0.20124  0.56587  0.31541  1.0000
  C   C49       1.0  0.16745000000000002  0.9748900000000003  0.56318  1.0000
  C   C50       1.0  0.42497000000000007  0.9620400000000002  0.8277099999999998  1.0000
  C   C51       1.0  0.29497  0.96362  0.69489  1.0000
  C   C52       1.0  0.26402  0.95666  0.59822  1.0000
  C   C53       1.0  0.32221  0.9322800000000002  0.5330099999999999  1.0000
  C   C54       1.0  0.4119  0.9115700000000002  0.56396  1.0000
  C   C55       1.0  0.44331000000000004  0.9198500000000002  0.66088  1.0000
  C   C56       1.0  0.3858  0.9467500000000001  0.7255099999999998  1.0000
  C   C57       1.0  0.45592  0.8791100000000002  0.40298  1.0000
  C   C58       1.0  0.56326  0.8587200000000003  0.53582  1.0000
  C   C59       1.0  0.60068  0.8305100000000001  0.44697999999999993  1.0000
  C   C60       1.0  0.53692  0.84243  0.37002  1.0000
  C   C61       1.0  0.55447  0.8236  0.2781  1.0000
  C   C62       1.0  0.63804  0.7910400000000001  0.26457  1.0000
  C   C63       1.0  0.70215  0.77878  0.3417999999999999  1.0000
  C   C64       1.0  0.6845999999999999  0.7987700000000001  0.4341599999999999  1.0000
  C   C65       1.0  0.56318  0.16745000000000004  0.97489  1.0000
  C   C66       1.0  0.82772  0.42496  0.96204  1.0000
  C   C67       1.0  0.6949  0.29496  0.9636299999999998  1.0000
  C   C68       1.0  0.59823  0.2640100000000001  0.9566599999999997  1.0000
  C   C69       1.0  0.53301  0.32221  0.9322799999999998  1.0000
  C   C70       1.0  0.5639599999999999  0.41189  0.9115799999999997  1.0000
  C   C71       1.0  0.66088  0.4433099999999999  0.9198499999999997  1.0000
  C   C72       1.0  0.72552  0.38579  0.94675  1.0000
  C   C73       1.0  0.40297999999999995  0.45591000000000004  0.87911  1.0000
  C   C74       1.0  0.53581  0.56326  0.8587299999999999  1.0000
  C   C75       1.0  0.44697999999999977  0.60068  0.8305  1.0000
  C   C76       1.0  0.37002  0.5369200000000001  0.8424299999999998  1.0000
  C   C77       1.0  0.27809  0.5544800000000001  0.8236099999999998  1.0000
  C   C78       1.0  0.2645599999999999  0.63805  0.7910399999999997  1.0000
  C   C79       1.0  0.3417899999999999  0.7021600000000002  0.7787699999999997  1.0000
  C   C80       1.0  0.4341499999999999  0.68461  0.79876  1.0000
  C   C81       1.0  0.97489  0.5632  0.16745  1.0000
  C   C82       1.0  0.9620399999999999  0.82771  0.4249499999999999  1.0000
  C   C83       1.0  0.96363  0.6949000000000001  0.29496  1.0000
  C   C84       1.0  0.9566699999999999  0.5982400000000002  0.2640199999999999  1.0000
  C   C85       1.0  0.9322799999999999  0.53302  0.3222199999999999  1.0000
  C   C86       1.0  0.91158  0.5639600000000002  0.41188999999999987  1.0000
  C   C87       1.0  0.91985  0.6608700000000002  0.4432899999999999  1.0000
  C   C88       1.0  0.94675  0.7255200000000003  0.38578  1.0000
  C   C89       1.0  0.8791  0.40299  0.4559299999999999  1.0000
  C   C90       1.0  0.8587299999999999  0.5358  0.5632499999999999  1.0000
  C   C91       1.0  0.8305  0.4469700000000001  0.6006699999999998  1.0000
  C   C92       1.0  0.84242  0.37002  0.53694  1.0000
  C   C93       1.0  0.8236  0.2781  0.5545  1.0000
  C   C94       1.0  0.79103  0.26456  0.6380699999999998  1.0000
  C   C95       1.0  0.7787699999999997  0.34177  0.7021599999999998  1.0000
  C   C96       1.0  0.7987700000000001  0.43413  0.68459  1.0000
  N   N1        1.0  0.52859  0.11634999999999998  0.4987099999999999  1.0000
  N   N2        1.0  0.49871  0.52859  0.11633999999999997  1.0000
  N   N3        1.0  0.11633999999999997  0.49871  0.5286  1.0000
  N   N4        1.0  0.47141  0.88365  0.50129  1.0000
  N   N5        1.0  0.50129  0.47141  0.8836599999999998  1.0000
  N   N6        1.0  0.88366  0.50129  0.47140999999999994  1.0000
  O   O1        1.0  0.89358  0.03328999999999999  0.38195999999999997  1.0000
  O   O2        1.0  0.84727  0.004349999999999952  0.5197999999999998  1.0000
  O   O3        1.0  0.62741  0.007380000000000005  0.11539  1.0000
  O   O4        1.0  0.49132  0.05493  0.14925999999999998  1.0000
  O   O5        1.0  0.6114  0.09690999999999998  0.6441099999999997  1.0000
  O   O6        1.0  0.38197  0.8935800000000002  0.033289999999999986  1.0000
  O   O7        1.0  0.51978  0.84727  0.00435  1.0000
  O   O8        1.0  0.11538  0.62742  0.007369999999999998  1.0000
  O   O9        1.0  0.14925999999999995  0.49132  0.05493999999999999  1.0000
  O   O10       1.0  0.6440999999999998  0.6114000000000003  0.09690999999999997  1.0000
  O   O11       1.0  0.033290000000000014  0.38194  0.8936  1.0000
  O   O12       1.0  0.004359999999999987  0.51976  0.8472499999999997  1.0000
  O   O13       1.0  0.007369999999999975  0.11536999999999999  0.6274299999999998  1.0000
  O   O14       1.0  0.05492999999999999  0.14929  0.49135  1.0000
  O   O15       1.0  0.09691999999999995  0.64408  0.6113699999999997  1.0000
  O   O16       1.0  0.10642  0.96671  0.6180399999999998  1.0000
  O   O17       1.0  0.15273  0.9956500000000003  0.4802099999999999  1.0000
  O   O18       1.0  0.37259  0.9926200000000001  0.8846099999999998  1.0000
  O   O19       1.0  0.50868  0.9450700000000002  0.8507399999999998  1.0000
  O   O20       1.0  0.3886  0.9030899999999998  0.3558899999999999  1.0000
  O   O21       1.0  0.61803  0.10641999999999996  0.9667099999999997  1.0000
  O   O22       1.0  0.48022  0.15272999999999995  0.9956499999999998  1.0000
  O   O23       1.0  0.88462  0.37257999999999997  0.9926299999999998  1.0000
  O   O24       1.0  0.8507399999999998  0.5086800000000001  0.9450699999999997  1.0000
  O   O25       1.0  0.3559  0.38859999999999995  0.9030999999999999  1.0000
  O   O26       1.0  0.96671  0.61806  0.10640999999999998  1.0000
  O   O27       1.0  0.99564  0.48024  0.15274999999999997  1.0000
  O   O28       1.0  0.99263  0.88463  0.37256999999999996  1.0000
  O   O29       1.0  0.94507  0.85071  0.50866  1.0000
  O   O30       1.0  0.90308  0.35592  0.38863  1.0000
