data_image0
_chemical_formula_structural       Eu4H48C96O24
_chemical_formula_sum              "Eu4 H48 C96 O24"
_cell_length_a       10.95357
_cell_length_b       13.69799
_cell_length_c       31.25137
_cell_angle_alpha    90.04554
_cell_angle_beta     98.48134000000002
_cell_angle_gamma    90.03160999999999

_space_group_name_H-M_alt    "P 1"
_space_group_IT_number       1

loop_
  _space_group_symop_operation_xyz
  'x, y, z'

loop_
  _atom_site_type_symbol
  _atom_site_label
  _atom_site_symmetry_multiplicity
  _atom_site_fract_x
  _atom_site_fract_y
  _atom_site_fract_z
  _atom_site_occupancy
  Eu  Eu1       1.0  0.9363300000000002  0.9222400000000002  0.54084  1.0000
  Eu  Eu2       1.0  0.06495999999999995  0.42162  0.9593399999999999  1.0000
  Eu  Eu3       1.0  0.06475999999999998  0.07854000000000003  0.4589  1.0000
  Eu  Eu4       1.0  0.9350600000000001  0.5782700000000001  0.04039  1.0000
  H   H1        1.0  0.78071  0.013180000000000004  0.35673  1.0000
  H   H2        1.0  0.63008  0.9701900000000002  0.29167  1.0000
  H   H3        1.0  0.44427  0.7759900000000002  0.36967  1.0000
  H   H4        1.0  0.59495  0.82268  0.43515  1.0000
  H   H5        1.0  0.77393  0.19879  0.8860699999999998  1.0000
  H   H6        1.0  0.61918  0.15054  0.82268  1.0000
  H   H7        1.0  0.82711  0.30829  0.73799  1.0000
  H   H8        1.0  0.9793  0.35813  0.80219  1.0000
  H   H9        1.0  0.1488  0.7339600000000002  0.52807  1.0000
  H   H10       1.0  0.27798999999999996  0.5843  0.53982  1.0000
  H   H11       1.0  0.47920000000000007  0.67147  0.43735  1.0000
  H   H12       1.0  0.34736  0.8219800000000002  0.42567  1.0000
  H   H13       1.0  0.21966  0.51443  0.1438  1.0000
  H   H14       1.0  0.37115  0.4706300000000001  0.2085  1.0000
  H   H15       1.0  0.55351  0.27581000000000006  0.12965  1.0000
  H   H16       1.0  0.4013  0.32275  0.06467  1.0000
  H   H17       1.0  0.22905000000000003  0.7014500000000002  0.6141  1.0000
  H   H18       1.0  0.38261000000000006  0.6516500000000002  0.67765  1.0000
  H   H19       1.0  0.17181999999999997  0.80692  0.76245  1.0000
  H   H20       1.0  0.020140000000000016  0.8563800000000003  0.69812  1.0000
  H   H21       1.0  0.8508199999999999  0.23383000000000007  0.9717899999999998  1.0000
  H   H22       1.0  0.7218400000000001  0.08392000000000002  0.96005  1.0000
  H   H23       1.0  0.52066  0.17129000000000003  0.06259  1.0000
  H   H24       1.0  0.65217  0.32219  0.07407  1.0000
  H   H25       1.0  0.22003  0.9861300000000001  0.64335  1.0000
  H   H26       1.0  0.3703800000000001  0.02956  0.70842  1.0000
  H   H27       1.0  0.55534  0.22428  0.63036  1.0000
  H   H28       1.0  0.4046300000000001  0.17749  0.56495  1.0000
  H   H29       1.0  0.22764  0.79958  0.1139  1.0000
  H   H30       1.0  0.38244000000000006  0.84746  0.17732  1.0000
  H   H31       1.0  0.17181  0.6928200000000002  0.2621  1.0000
  H   H32       1.0  0.01874  0.6443000000000002  0.19804  1.0000
  H   H33       1.0  0.85065  0.26678  0.47179  1.0000
  H   H34       1.0  0.7210900000000001  0.41653  0.46003  1.0000
  H   H35       1.0  0.52056  0.32910000000000006  0.56264  1.0000
  H   H36       1.0  0.65235  0.17845000000000005  0.57415  1.0000
  H   H37       1.0  0.78081  0.48630000000000007  0.85656  1.0000
  H   H38       1.0  0.63  0.52923  0.7915099999999998  1.0000
  H   H39       1.0  0.44516  0.72386  0.86987  1.0000
  H   H40       1.0  0.59625  0.6770400000000001  0.93518  1.0000
  H   H41       1.0  0.7716600000000002  0.29957000000000006  0.38576  1.0000
  H   H42       1.0  0.61778  0.34876  0.32224  1.0000
  H   H43       1.0  0.8278400000000002  0.19262000000000007  0.23751  1.0000
  H   H44       1.0  0.9791300000000001  0.14265000000000003  0.30187  1.0000
  H   H45       1.0  0.14912000000000003  0.7658  0.02822  1.0000
  H   H46       1.0  0.27796  0.91569  0.04006  1.0000
  H   H47       1.0  0.4789299999999999  0.8292  0.9373399999999997  1.0000
  H   H48       1.0  0.3477199999999999  0.67838  0.9256899999999999  1.0000
  C   C1        1.0  0.20489000000000002  0.05775  0.56302  1.0000
  C   C2        1.0  0.30205  0.08111000000000003  0.60074  1.0000
  C   C3        1.0  0.29415  0.03799000000000002  0.64113  1.0000
  C   C4        1.0  0.37793000000000004  0.062350000000000017  0.67727  1.0000
  C   C5        1.0  0.47221  0.13148  0.6737199999999998  1.0000
  C   C6        1.0  0.51795  0.8279600000000003  0.36739  1.0000
  C   C7        1.0  0.6016  0.8533000000000002  0.40347  1.0000
  C   C8        1.0  0.55502  0.162  0.71007  1.0000
  C   C9        1.0  0.97795  0.31059  0.8857  1.0000
  C   C10       1.0  0.8867800000000001  0.28014  0.84763  1.0000
  C   C11       1.0  0.78489  0.22188000000000005  0.85356  1.0000
  C   C12       1.0  0.69886  0.19486000000000006  0.81841  1.0000
  C   C13       1.0  0.71378  0.22459000000000007  0.77604  1.0000
  C   C14       1.0  0.81567  0.28471  0.77037  1.0000
  C   C15       1.0  0.90069  0.31188  0.80586  1.0000
  C   C16       1.0  0.6289  0.19312000000000007  0.74035  1.0000
  C   C17       1.0  0.1696  0.8798100000000002  0.46848  1.0000
  C   C18       1.0  0.24075999999999997  0.78686  0.4758699999999999  1.0000
  C   C19       1.0  0.22026000000000004  0.7197800000000002  0.50805  1.0000
  C   C20       1.0  0.29311  0.63647  0.51495  1.0000
  C   C21       1.0  0.38815  0.6183400000000001  0.48976  1.0000
  C   C22       1.0  0.40663  0.68568  0.45691  1.0000
  C   C23       1.0  0.3335800000000001  0.76857  0.45028  1.0000
  C   C24       1.0  0.4650800000000001  0.5356200000000001  0.49718  1.0000
  C   C25       1.0  0.7947800000000002  0.55662  0.93702  1.0000
  C   C26       1.0  0.6981700000000001  0.58046  0.8992399999999999  1.0000
  C   C27       1.0  0.70644  0.53781  0.8587799999999999  1.0000
  C   C28       1.0  0.62263  0.56216  0.82268  1.0000
  C   C29       1.0  0.52824  0.6310400000000003  0.8264  1.0000
  C   C30       1.0  0.48025  0.32804  0.13221  1.0000
  C   C31       1.0  0.39572  0.35353  0.09641  1.0000
  C   C32       1.0  0.44514  0.6614500000000002  0.79014  1.0000
  C   C33       1.0  0.023319999999999997  0.8111  0.61517  1.0000
  C   C34       1.0  0.11491999999999994  0.7801700000000001  0.6528699999999997  1.0000
  C   C35       1.0  0.21750000000000003  0.7231500000000002  0.64675  1.0000
  C   C36       1.0  0.30277  0.6956500000000001  0.68198  1.0000
  C   C37       1.0  0.28653000000000006  0.7244  0.72437  1.0000
  C   C38       1.0  0.18413  0.78381  0.7301  1.0000
  C   C39       1.0  0.09947000000000003  0.81087  0.69463  1.0000
  C   C40       1.0  0.371  0.69266  0.76004  1.0000
  C   C41       1.0  0.8298900000000002  0.3798900000000001  0.03138  1.0000
  C   C42       1.0  0.7589400000000001  0.28682  0.024  1.0000
  C   C43       1.0  0.77946  0.21963  0.9918299999999998  1.0000
  C   C44       1.0  0.7067099999999998  0.13617  0.98495  1.0000
  C   C45       1.0  0.61167  0.11802000000000003  0.010169999999999997  1.0000
  C   C46       1.0  0.59314  0.18556  0.043  1.0000
  C   C47       1.0  0.666  0.2686  0.04954  1.0000
  C   C48       1.0  0.53473  0.03517000000000001  0.00286  1.0000
  C   C49       1.0  0.7950100000000001  0.9423000000000002  0.4372099999999999  1.0000
  C   C50       1.0  0.6976500000000001  0.91905  0.39944  1.0000
  C   C51       1.0  0.70621  0.9617000000000002  0.35901  1.0000
  C   C52       1.0  0.62248  0.9373600000000002  0.32281999999999994  1.0000
  C   C53       1.0  0.52793  0.8685000000000003  0.32634  1.0000
  C   C54       1.0  0.4819900000000001  0.17201  0.63262  1.0000
  C   C55       1.0  0.39816  0.14672000000000004  0.59661  1.0000
  C   C56       1.0  0.44507  0.8380800000000003  0.29  1.0000
  C   C57       1.0  0.019909999999999994  0.69021  0.11445999999999998  1.0000
  C   C58       1.0  0.11243000000000002  0.72044  0.15229999999999994  1.0000
  C   C59       1.0  0.21564  0.7772900000000003  0.14642  1.0000
  C   C60       1.0  0.3019  0.80406  0.18162  1.0000
  C   C61       1.0  0.28629  0.77523  0.22405  1.0000
  C   C62       1.0  0.1834  0.71619  0.22969  1.0000
  C   C63       1.0  0.09798  0.6896500000000002  0.19419  1.0000
  C   C64       1.0  0.37116  0.80674  0.25971999999999995  1.0000
  C   C65       1.0  0.8315600000000001  0.12172000000000002  0.53133  1.0000
  C   C66       1.0  0.75913  0.21407000000000007  0.52403  1.0000
  C   C67       1.0  0.77921  0.28114  0.49179  1.0000
  C   C68       1.0  0.70622  0.3643200000000001  0.48491  1.0000
  C   C69       1.0  0.61137  0.38237000000000004  0.51019  1.0000
  C   C70       1.0  0.59299  0.31487000000000004  0.54302  1.0000
  C   C71       1.0  0.66604  0.23199000000000006  0.54959  1.0000
  C   C72       1.0  0.53435  0.4650300000000001  0.50286  1.0000
  C   C73       1.0  0.20352  0.44368  0.06317  1.0000
  C   C74       1.0  0.30036  0.41955000000000003  0.10076  1.0000
  C   C75       1.0  0.29338  0.4624800000000001  0.14127  1.0000
  C   C76       1.0  0.37768000000000007  0.43782000000000004  0.17723  1.0000
  C   C77       1.0  0.4717300000000001  0.3687200000000001  0.1734  1.0000
  C   C78       1.0  0.51872  0.6718200000000001  0.8675  1.0000
  C   C79       1.0  0.6025800000000001  0.6464300000000002  0.90345  1.0000
  C   C80       1.0  0.55512  0.3382400000000001  0.20961  1.0000
  C   C81       1.0  0.9764400000000001  0.18869  0.38479  1.0000
  C   C82       1.0  0.88516  0.21981  0.34708  1.0000
  C   C83       1.0  0.7830100000000001  0.27739  0.35314  1.0000
  C   C84       1.0  0.69754  0.30464  0.31791  1.0000
  C   C85       1.0  0.71347  0.27553  0.27553999999999995  1.0000
  C   C86       1.0  0.81565  0.21588000000000002  0.26985  1.0000
  C   C87       1.0  0.9001399999999999  0.18859  0.30535  1.0000
  C   C88       1.0  0.62901  0.30715000000000003  0.23982  1.0000
  C   C89       1.0  0.1715800000000001  0.61959  0.96882  1.0000
  C   C90       1.0  0.2414  0.7131600000000002  0.97596  1.0000
  C   C91       1.0  0.22058000000000003  0.7801100000000002  0.0082  1.0000
  C   C92       1.0  0.29317  0.86362  0.01511  1.0000
  C   C93       1.0  0.38809  0.88196  0.98987  1.0000
  C   C94       1.0  0.40655  0.81478  0.95691  1.0000
  C   C95       1.0  0.3338499999999999  0.7317800000000001  0.95028  1.0000
  C   C96       1.0  0.46493  0.96481  0.99725  1.0000
  O   O1        1.0  0.11993  0.00028000000000000014  0.57115  1.0000
  O   O2        1.0  0.78823  0.9041200000000003  0.47397  1.0000
  O   O3        1.0  0.05672000000000001  0.37685000000000013  0.88115  1.0000
  O   O4        1.0  0.97037  0.27223  0.92273  1.0000
  O   O5        1.0  0.07765000000000004  0.8955600000000002  0.48914  1.0000
  O   O6        1.0  0.20172  0.9426400000000001  0.44249  1.0000
  O   O7        1.0  0.87962  0.4988900000000001  0.92905  1.0000
  O   O8        1.0  0.20927  0.40485  0.02637  1.0000
  O   O9        1.0  0.94513  0.8770800000000002  0.62031  1.0000
  O   O10       1.0  0.029399999999999996  0.77416  0.57771  1.0000
  O   O11       1.0  0.92256  0.3954600000000001  0.01106  1.0000
  O   O12       1.0  0.79638  0.4429400000000001  0.05701  1.0000
  O   O13       1.0  0.88032  0.99967  0.42907  1.0000
  O   O14       1.0  0.21157  0.09597000000000003  0.52621  1.0000
  O   O15       1.0  0.9431  0.6227300000000002  0.11924  1.0000
  O   O16       1.0  0.02403  0.72908  0.07727  1.0000
  O   O17       1.0  0.92518  0.10775000000000003  0.51127  1.0000
  O   O18       1.0  0.7988  0.057800000000000004  0.55674  1.0000
  O   O19       1.0  0.12023000000000002  0.50274  0.07126  1.0000
  O   O20       1.0  0.78794  0.59524  0.97375  1.0000
  O   O21       1.0  0.05507  0.12291  0.37962  1.0000
  O   O22       1.0  0.96989  0.22538  0.42227  1.0000
  O   O23       1.0  0.07826999999999994  0.60432  0.98887  1.0000
  O   O24       1.0  0.20626000000000005  0.5561600000000001  0.94361  1.0000
