data_image0
_chemical_formula_structural       Zn6H52C76N6O18
_chemical_formula_sum              "Zn6 H52 C76 N6 O18"
_cell_length_a       12.98911
_cell_length_b       16.35317
_cell_length_c       17.64006
_cell_angle_alpha    70.28238
_cell_angle_beta     71.76276
_cell_angle_gamma    71.48689

_space_group_name_H-M_alt    "P 1"
_space_group_IT_number       1

loop_
  _space_group_symop_operation_xyz
  'x, y, z'

loop_
  _atom_site_type_symbol
  _atom_site_label
  _atom_site_symmetry_multiplicity
  _atom_site_fract_x
  _atom_site_fract_y
  _atom_site_fract_z
  _atom_site_occupancy
  Zn  Zn1       1.0  0.52318  0.65153  0.96672  1.0000
  Zn  Zn2       1.0  0.6388999999999997  0.53537  0.83937  1.0000
  Zn  Zn3       1.0  0.3707899999999999  0.6032400000000002  0.88027  1.0000
  Zn  Zn4       1.0  0.47682  0.34847  0.03328  1.0000
  Zn  Zn5       1.0  0.3611  0.46464  0.16063  1.0000
  Zn  Zn6       1.0  0.62921  0.39676  0.11973  1.0000
  H   H1        1.0  0.3451600000000001  0.63963  0.63324  1.0000
  H   H2        1.0  0.35266999999999976  0.64311  0.49029  1.0000
  H   H3        1.0  0.7118499999999999  0.58152  0.43777  1.0000
  H   H4        1.0  0.7019199999999999  0.57301  0.58279  1.0000
  H   H5        1.0  0.8551099999999999  0.29228  0.76094  1.0000
  H   H6        1.0  0.004380000000000045  0.15292  0.757  1.0000
  H   H7        1.0  0.001539999999999999  0.11504  0.01148  1.0000
  H   H8        1.0  0.8542299999999997  0.25462  0.01394  1.0000
  H   H9        1.0  0.042699999999999995  0.6830599999999999  0.75039  1.0000
  H   H10       1.0  0.23563000000000003  0.67182  0.75897  1.0000
  H   H11       1.0  0.16206000000000004  0.56856  0.01278  1.0000
  H   H12       1.0  0.9639499999999998  0.5812  0.01673  1.0000
  H   H13       1.0  0.71442  0.52538  0.20804  1.0000
  H   H14       1.0  0.7075199999999996  0.5305200000000001  0.34842  1.0000
  H   H15       1.0  0.3701900000000001  0.69217  0.36419  1.0000
  H   H16       1.0  0.37899999999999995  0.68455  0.22384  1.0000
  H   H17       1.0  0.19884999999999997  0.86358  0.79659  1.0000
  H   H18       1.0  0.05101999999999993  0.004659999999999995  0.79595  1.0000
  H   H19       1.0  0.18000999999999992  0.05613000000000001  0.96808  1.0000
  H   H20       1.0  0.3265100000000001  0.91422  0.9685  1.0000
  H   H21       1.0  0.8756899999999995  0.51689  0.74749  1.0000
  H   H22       1.0  0.9472899999999999  0.60462  0.70528  1.0000
  H   H23       1.0  0.99527  0.50848  0.78135  1.0000
  H   H24       1.0  0.6624299999999997  0.74564  0.01278  1.0000
  H   H25       1.0  0.76178  0.65664  0.06013  1.0000
  H   H26       1.0  0.8051299999999999  0.7507199999999999  0.98503  1.0000
  H   H27       1.0  0.65484  0.36037  0.36677  1.0000
  H   H28       1.0  0.6473400000000001  0.35689000000000004  0.50971  1.0000
  H   H29       1.0  0.2881600000000001  0.41847999999999996  0.56223  1.0000
  H   H30       1.0  0.2980899999999999  0.42699  0.41721  1.0000
  H   H31       1.0  0.14489999999999995  0.70772  0.23906  1.0000
  H   H32       1.0  0.9956199999999998  0.84708  0.243  1.0000
  H   H33       1.0  0.9984600000000001  0.8849599999999999  0.98853  1.0000
  H   H34       1.0  0.14577  0.74539  0.98606  1.0000
  H   H35       1.0  0.9573  0.31694  0.24962000000000004  1.0000
  H   H36       1.0  0.76437  0.32818  0.24103  1.0000
  H   H37       1.0  0.83795  0.4314399999999999  0.98722  1.0000
  H   H38       1.0  0.03605000000000004  0.4188  0.98327  1.0000
  H   H39       1.0  0.28558000000000006  0.47462  0.79196  1.0000
  H   H40       1.0  0.2924799999999998  0.46948000000000006  0.65159  1.0000
  H   H41       1.0  0.62982  0.30784000000000006  0.63582  1.0000
  H   H42       1.0  0.6210000000000001  0.31545000000000006  0.77616  1.0000
  H   H43       1.0  0.8011599999999997  0.13643  0.20341  1.0000
  H   H44       1.0  0.9489799999999995  0.99535  0.20405  1.0000
  H   H45       1.0  0.8199999999999997  0.94388  0.03192  1.0000
  H   H46       1.0  0.6735  0.08579  0.0315  1.0000
  H   H47       1.0  0.12431000000000002  0.48311  0.25251  1.0000
  H   H48       1.0  0.05271000000000005  0.39538  0.29472  1.0000
  H   H49       1.0  0.00473999999999999  0.49151999999999996  0.21866  1.0000
  H   H50       1.0  0.33757  0.25437  0.98723  1.0000
  H   H51       1.0  0.23822  0.34335999999999994  0.93987  1.0000
  H   H52       1.0  0.1948699999999999  0.24929  0.01497  1.0000
  C   C1        1.0  0.5547  0.60037  0.12331  1.0000
  C   C2        1.0  0.5229599999999999  0.60577  0.61731  1.0000
  C   C3        1.0  0.425  0.62725  0.58965  1.0000
  C   C4        1.0  0.42978  0.62977  0.50909  1.0000
  C   C5        1.0  0.53292  0.6121000000000001  0.45234  1.0000
  C   C6        1.0  0.63087  0.59291  0.48033  1.0000
  C   C7        1.0  0.6261900000000001  0.58919  0.56125  1.0000
  C   C8        1.0  0.8455199999999999  0.28268  0.88758  1.0000
  C   C9        1.0  0.8877799999999999  0.25274  0.81542  1.0000
  C   C10       1.0  0.9711799999999997  0.17449  0.8137  1.0000
  C   C11       1.0  0.015590000000000005  0.12394000000000002  0.88365  1.0000
  C   C12       1.0  0.9721399999999999  0.15450999999999998  0.95567  1.0000
  C   C13       1.0  0.8882499999999999  0.23228  0.95771  1.0000
  C   C14       1.0  0.9853699999999994  0.63184  0.88324  1.0000
  C   C15       1.0  0.06514999999999996  0.6572600000000001  0.80997  1.0000
  C   C16       1.0  0.17221  0.65179  0.81391  1.0000
  C   C17       1.0  0.13069999999999996  0.59494  0.95672  1.0000
  C   C18       1.0  0.020720000000000013  0.6024  0.95793  1.0000
  C   C19       1.0  0.5476  0.6052600000000001  0.20752  1.0000
  C   C20       1.0  0.6403299999999997  0.56253  0.24284  1.0000
  C   C21       1.0  0.6358299999999997  0.56608  0.32131  1.0000
  C   C22       1.0  0.53826  0.61185  0.36762  1.0000
  C   C23       1.0  0.44591999999999976  0.65499  0.33091  1.0000
  C   C24       1.0  0.45025999999999994  0.65196  0.25207  1.0000
  C   C25       1.0  0.19441999999999995  0.90711  0.83298  1.0000
  C   C26       1.0  0.11217999999999999  0.98616  0.83278  1.0000
  C   C27       1.0  0.10437999999999999  0.04113  0.88206  1.0000
  C   C28       1.0  0.18339999999999998  0.01407999999999997  0.93059  1.0000
  C   C29       1.0  0.2663399999999999  0.93539  0.93041  1.0000
  C   C30       1.0  0.27215000000000006  0.8807899999999999  0.88195  1.0000
  C   C31       1.0  0.5176499999999998  0.59851  0.70555  1.0000
  C   C32       1.0  0.3548000000000001  0.79195  0.88679  1.0000
  C   C33       1.0  0.7591499999999995  0.36826999999999993  0.89041  1.0000
  C   C34       1.0  0.9198999999999995  0.55466  0.7622  1.0000
  C   C35       1.0  0.8460099999999999  0.5976699999999999  0.82913  1.0000
  C   C36       1.0  0.8739699999999997  0.63202  0.88181  1.0000
  C   C37       1.0  0.771  0.66192  0.93487  1.0000
  C   C38       1.0  0.7489400000000002  0.70633  0.00155  1.0000
  C   C39       1.0  0.4453099999999997  0.39964000000000005  0.87669  1.0000
  C   C40       1.0  0.47704  0.39424  0.38269  1.0000
  C   C41       1.0  0.57501  0.37275  0.41035  1.0000
  C   C42       1.0  0.5702299999999999  0.37022999999999995  0.49091  1.0000
  C   C43       1.0  0.46708  0.38789999999999997  0.54766  1.0000
  C   C44       1.0  0.3691400000000001  0.40709  0.51967  1.0000
  C   C45       1.0  0.37381999999999993  0.4108200000000001  0.43875  1.0000
  C   C46       1.0  0.15448999999999996  0.71732  0.11243  1.0000
  C   C47       1.0  0.11222999999999998  0.74726  0.18458  1.0000
  C   C48       1.0  0.028830000000000022  0.82551  0.1863  1.0000
  C   C49       1.0  0.9844199999999999  0.87607  0.11635  1.0000
  C   C50       1.0  0.027859999999999992  0.84549  0.04433  1.0000
  C   C51       1.0  0.11175000000000002  0.76773  0.04229  1.0000
  C   C52       1.0  0.014629999999999995  0.36816  0.11676  1.0000
  C   C53       1.0  0.9348599999999998  0.34274  0.19004  1.0000
  C   C54       1.0  0.8278000000000001  0.34821  0.18609  1.0000
  C   C55       1.0  0.86931  0.40506  0.04328  1.0000
  C   C56       1.0  0.9792899999999998  0.3976  0.04207  1.0000
  C   C57       1.0  0.4524  0.39474  0.79249  1.0000
  C   C58       1.0  0.35968000000000006  0.43747  0.75716  1.0000
  C   C59       1.0  0.36417  0.43392  0.67869  1.0000
  C   C60       1.0  0.46174  0.38815  0.63238  1.0000
  C   C61       1.0  0.5540799999999998  0.34501  0.6691  1.0000
  C   C62       1.0  0.5497499999999998  0.34805  0.74793  1.0000
  C   C63       1.0  0.80558  0.09288999999999999  0.16702  1.0000
  C   C64       1.0  0.88782  0.01384  0.16723  1.0000
  C   C65       1.0  0.8956200000000001  0.95887  0.11795  1.0000
  C   C66       1.0  0.8166  0.98593  0.06941  1.0000
  C   C67       1.0  0.7336699999999998  0.06462  0.06959  1.0000
  C   C68       1.0  0.72785  0.11921  0.11805  1.0000
  C   C69       1.0  0.48234999999999995  0.40148999999999996  0.29445  1.0000
  C   C70       1.0  0.6451999999999998  0.20805  0.11322  1.0000
  C   C71       1.0  0.24084999999999998  0.63173  0.10959  1.0000
  C   C72       1.0  0.08009999999999999  0.44534  0.2378  1.0000
  C   C73       1.0  0.15399  0.40233  0.17088  1.0000
  C   C74       1.0  0.12603  0.36798000000000003  0.11819  1.0000
  C   C75       1.0  0.22899999999999998  0.33808  0.06513  1.0000
  C   C76       1.0  0.25105999999999995  0.29367000000000004  0.99845  1.0000
  N   N1        1.0  0.7347999999999993  0.60601  0.85048  1.0000
  N   N2        1.0  0.6887700000000001  0.64715  0.91393  1.0000
  N   N3        1.0  0.20550999999999972  0.62003  0.88589  1.0000
  N   N4        1.0  0.2652  0.39399  0.14953  1.0000
  N   N5        1.0  0.31122999999999995  0.35286  0.08607  1.0000
  N   N6        1.0  0.7945  0.37997  0.11412  1.0000
  O   O1        1.0  0.5042  0.56689  0.9208  1.0000
  O   O2        1.0  0.6276  0.53925  0.09413  1.0000
  O   O3        1.0  0.48767999999999995  0.66204  0.08169  1.0000
  O   O4        1.0  0.4216499999999999  0.61153  0.75363  1.0000
  O   O5        1.0  0.6113300000000002  0.57906  0.7247  1.0000
  O   O6        1.0  0.42712  0.7740500000000001  0.92867  1.0000
  O   O7        1.0  0.34367999999999976  0.74172  0.84976  1.0000
  O   O8        1.0  0.7383500000000001  0.42014  0.81999  1.0000
  O   O9        1.0  0.7134499999999999  0.38884  0.95784  1.0000
  O   O10       1.0  0.49579999999999985  0.43311  0.0792  1.0000
  O   O11       1.0  0.3724100000000001  0.46076  0.90588  1.0000
  O   O12       1.0  0.51232  0.33796  0.91831  1.0000
  O   O13       1.0  0.57835  0.38847  0.24637  1.0000
  O   O14       1.0  0.3886699999999999  0.42094  0.2753  1.0000
  O   O15       1.0  0.5728799999999997  0.22595000000000004  0.07133  1.0000
  O   O16       1.0  0.6563200000000001  0.25828  0.15025  1.0000
  O   O17       1.0  0.2616499999999999  0.57986  0.18001  1.0000
  O   O18       1.0  0.28655  0.61117  0.04216  1.0000
