data_image0
_chemical_formula_structural       Cd4H48C72N24O16
_chemical_formula_sum              "Cd4 H48 C72 N24 O16"
_cell_length_a       8.48956
_cell_length_b       17.69028
_cell_length_c       19.061200000000003
_cell_angle_alpha    90.00275
_cell_angle_beta     89.99863000000002
_cell_angle_gamma    90.0

_symmetry_space_group_name_H-M    'P 1'
_symmetry_Int_Tables_number       1

loop_
  _symmetry_equiv_pos_as_xyz
  'x,y,z'

loop_
  _atom_site_type_symbol
  _atom_site_label
  _atom_site_symmetry_multiplicity
  _atom_site_fract_x
  _atom_site_fract_y
  _atom_site_fract_z
  _atom_site_occupancy
  Cd  Cd1       1.0  0.48205000000000003  0.08671  0.03144  1.0000
  Cd  Cd2       1.0  0.51789  0.58675  0.96859  1.0000
  Cd  Cd3       1.0  0.51795  0.08671  0.53146  1.0000
  Cd  Cd4       1.0  0.48211  0.58675  0.46857  1.0000
  H   H1        1.0  0.63513  0.08281  0.8624099999999999  1.0000
  H   H2        1.0  0.15888  0.10880999999999999  0.9166099999999999  1.0000
  H   H3        1.0  0.9821999999999999  0.03814  0.83739  1.0000
  H   H4        1.0  0.76723  0.04062  0.74714  1.0000
  H   H5        1.0  0.09084000000000003  0.12723  0.59477  1.0000
  H   H6        1.0  0.30676  0.12862  0.68488  1.0000
  H   H7        1.0  0.42012  0.26119  0.13  1.0000
  H   H8        1.0  0.8005200000000002  0.19723  0.0020299999999999997  1.0000
  H   H9        1.0  0.72709  0.44355  0.03549  1.0000
  H   H10       1.0  0.9531300000000001  0.53127  0.00853  1.0000
  H   H11       1.0  0.27777  0.34675999999999996  0.02774  1.0000
  H   H12       1.0  0.05531  0.25827  0.05455999999999999  1.0000
  H   H13       1.0  0.36484  0.58281  0.13758  1.0000
  H   H14       1.0  0.84112  0.60881  0.0834  1.0000
  H   H15       1.0  0.01778  0.5381499999999998  0.16261999999999996  1.0000
  H   H16       1.0  0.23276  0.54058  0.25284  1.0000
  H   H17       1.0  0.90913  0.62722  0.4052299999999999  1.0000
  H   H18       1.0  0.6932300000000002  0.62862  0.31511  1.0000
  H   H19       1.0  0.57989  0.76119  0.8699999999999999  1.0000
  H   H20       1.0  0.19946  0.69723  0.9979699999999999  1.0000
  H   H21       1.0  0.27291  0.94355  0.96451  1.0000
  H   H22       1.0  0.04690000000000001  0.03128  0.99148  1.0000
  H   H23       1.0  0.72223  0.84677  0.9722699999999999  1.0000
  H   H24       1.0  0.94469  0.75828  0.94544  1.0000
  H   H25       1.0  0.36487  0.08281  0.36242  1.0000
  H   H26       1.0  0.84112  0.1088  0.41661  1.0000
  H   H27       1.0  0.0178  0.03814  0.33738  1.0000
  H   H28       1.0  0.23278000000000001  0.04061  0.24713  1.0000
  H   H29       1.0  0.90916  0.12722  0.09477  1.0000
  H   H30       1.0  0.6932400000000002  0.12862  0.18488  1.0000
  H   H31       1.0  0.57988  0.2612  0.63  1.0000
  H   H32       1.0  0.19948000000000005  0.19723  0.50203  1.0000
  H   H33       1.0  0.2729  0.44356  0.53549  1.0000
  H   H34       1.0  0.046870000000000016  0.53127  0.50853  1.0000
  H   H35       1.0  0.72223  0.34675999999999996  0.52774  1.0000
  H   H36       1.0  0.94469  0.25828  0.55456  1.0000
  H   H37       1.0  0.63516  0.58281  0.63757  1.0000
  H   H38       1.0  0.15888  0.6088  0.5833999999999999  1.0000
  H   H39       1.0  0.98222  0.5381499999999998  0.66262  1.0000
  H   H40       1.0  0.76724  0.54058  0.75285  1.0000
  H   H41       1.0  0.09087  0.62722  0.90523  1.0000
  H   H42       1.0  0.30677000000000004  0.62862  0.8151  1.0000
  H   H43       1.0  0.42012  0.76119  0.37  1.0000
  H   H44       1.0  0.8005300000000002  0.69723  0.49796999999999997  1.0000
  H   H45       1.0  0.7271  0.94355  0.46451  1.0000
  H   H46       1.0  0.9531  0.03128  0.4914799999999999  1.0000
  H   H47       1.0  0.27777  0.84677  0.47226999999999997  1.0000
  H   H48       1.0  0.05531  0.75828  0.44544  1.0000
  C   C1        1.0  0.50816  0.08701  0.8581099999999999  1.0000
  C   C2        1.0  0.2668500000000001  0.09956  0.88772  1.0000
  C   C3        1.0  0.15428  0.08699  0.76647  1.0000
  C   C4        1.0  0.00446  0.06049999999999999  0.78511  1.0000
  C   C5        1.0  0.88489  0.06124  0.7349099999999998  1.0000
  C   C6        1.0  0.91494  0.08771  0.66679  1.0000
  C   C7        1.0  0.06766  0.11054  0.64861  1.0000
  C   C8        1.0  0.18801000000000007  0.11069999999999999  0.69813  1.0000
  C   C9        1.0  0.78522  0.09219  0.61375  1.0000
  C   C10       1.0  0.53086  0.26259  0.10178  1.0000
  C   C11       1.0  0.72298  0.22838999999999998  0.03665  1.0000
  C   C12       1.0  0.8797100000000002  0.34741  0.04736  1.0000
  C   C13       1.0  0.84841  0.42379  0.03481  1.0000
  C   C14       1.0  0.97402  0.47203999999999996  0.02068  1.0000
  C   C15       1.0  0.12899  0.4444399999999999  0.01922  1.0000
  C   C16       1.0  0.15702000000000005  0.36719  0.03002  1.0000
  C   C17       1.0  0.03274  0.31804  0.04469  1.0000
  C   C18       1.0  0.26296  0.49771999999999994  0.00571  1.0000
  C   C19       1.0  0.4918100000000001  0.587  0.14188  1.0000
  C   C20       1.0  0.73313  0.59956  0.11227999999999999  1.0000
  C   C21       1.0  0.8457  0.58696  0.23354  1.0000
  C   C22       1.0  0.9955200000000001  0.56047  0.21491  1.0000
  C   C23       1.0  0.11511000000000003  0.56121  0.2651  1.0000
  C   C24       1.0  0.08506000000000001  0.58771  0.33321  1.0000
  C   C25       1.0  0.93233  0.61052  0.3514  1.0000
  C   C26       1.0  0.81197  0.61067  0.30188  1.0000
  C   C27       1.0  0.21477  0.59231  0.38626  1.0000
  C   C28       1.0  0.46914  0.76258  0.8982299999999999  1.0000
  C   C29       1.0  0.27701  0.72838  0.9633499999999999  1.0000
  C   C30       1.0  0.12029000000000001  0.84741  0.9526499999999999  1.0000
  C   C31       1.0  0.15158  0.9237899999999999  0.96519  1.0000
  C   C32       1.0  0.025980000000000007  0.97205  0.97931  1.0000
  C   C33       1.0  0.871  0.9444499999999999  0.98079  1.0000
  C   C34       1.0  0.8429900000000002  0.8672  0.96998  1.0000
  C   C35       1.0  0.9672700000000001  0.81805  0.95532  1.0000
  C   C36       1.0  0.73703  0.99772  0.9942899999999999  1.0000
  C   C37       1.0  0.49183  0.08701  0.35812  1.0000
  C   C38       1.0  0.73314  0.09956  0.38773  1.0000
  C   C39       1.0  0.84572  0.08699  0.26647  1.0000
  C   C40       1.0  0.99554  0.06049999999999999  0.28511  1.0000
  C   C41       1.0  0.11511000000000003  0.06124  0.23491  1.0000
  C   C42       1.0  0.08506000000000001  0.08771  0.16679  1.0000
  C   C43       1.0  0.93234  0.11054  0.14861  1.0000
  C   C44       1.0  0.81199  0.11069  0.19813  1.0000
  C   C45       1.0  0.21479000000000006  0.09219  0.11374  1.0000
  C   C46       1.0  0.46913  0.26259  0.60178  1.0000
  C   C47       1.0  0.27702  0.22838999999999998  0.53666  1.0000
  C   C48       1.0  0.12029000000000001  0.34741  0.54737  1.0000
  C   C49       1.0  0.15158  0.42379  0.53482  1.0000
  C   C50       1.0  0.025980000000000003  0.47203999999999996  0.52068  1.0000
  C   C51       1.0  0.87101  0.4444399999999999  0.51922  1.0000
  C   C52       1.0  0.8429800000000002  0.36719  0.53003  1.0000
  C   C53       1.0  0.96726  0.31804  0.5446899999999999  1.0000
  C   C54       1.0  0.73705  0.49771999999999994  0.50571  1.0000
  C   C55       1.0  0.50819  0.587  0.64187  1.0000
  C   C56       1.0  0.26687  0.59956  0.61227  1.0000
  C   C57       1.0  0.1543  0.58697  0.73353  1.0000
  C   C58       1.0  0.00448  0.56047  0.71491  1.0000
  C   C59       1.0  0.88489  0.56122  0.7651  1.0000
  C   C60       1.0  0.91493  0.58771  0.83322  1.0000
  C   C61       1.0  0.06767  0.61053  0.8513999999999999  1.0000
  C   C62       1.0  0.18803  0.61067  0.80188  1.0000
  C   C63       1.0  0.78522  0.59232  0.88627  1.0000
  C   C64       1.0  0.53086  0.76258  0.39822  1.0000
  C   C65       1.0  0.72299  0.72838  0.4633399999999999  1.0000
  C   C66       1.0  0.8797100000000002  0.84741  0.45263999999999993  1.0000
  C   C67       1.0  0.84842  0.9237899999999999  0.46519  1.0000
  C   C68       1.0  0.97402  0.97205  0.47931  1.0000
  C   C69       1.0  0.129  0.9444499999999999  0.48079000000000005  1.0000
  C   C70       1.0  0.15701  0.8672  0.46997999999999995  1.0000
  C   C71       1.0  0.03273  0.81804  0.45532  1.0000
  C   C72       1.0  0.26296  0.99772  0.4943  1.0000
  N   N1        1.0  0.41172  0.09784  0.9149599999999999  1.0000
  N   N2        1.0  0.27718  0.08952999999999997  0.81743  1.0000
  N   N3        1.0  0.43172  0.08211  0.79776  1.0000
  N   N4        1.0  0.58489  0.20387999999999995  0.06147999999999999  1.0000
  N   N5        1.0  0.7498900000000002  0.29862  0.06174  1.0000
  N   N6        1.0  0.62715  0.32163  0.10342  1.0000
  N   N7        1.0  0.58827  0.59784  0.08504  1.0000
  N   N8        1.0  0.72281  0.58952  0.18257  1.0000
  N   N9        1.0  0.56826  0.58209  0.20223999999999998  1.0000
  N   N10       1.0  0.4151  0.70387  0.93852  1.0000
  N   N11       1.0  0.25011000000000005  0.79861  0.9382699999999999  1.0000
  N   N12       1.0  0.37285  0.82162  0.8965899999999999  1.0000
  N   N13       1.0  0.58828  0.09784  0.41496  1.0000
  N   N14       1.0  0.72282  0.08952999999999997  0.31742999999999993  1.0000
  N   N15       1.0  0.56828  0.08211  0.29775999999999997  1.0000
  N   N16       1.0  0.4151100000000001  0.20387999999999995  0.56149  1.0000
  N   N17       1.0  0.25011000000000005  0.29862  0.56174  1.0000
  N   N18       1.0  0.37284  0.32163  0.60342  1.0000
  N   N19       1.0  0.41173  0.59784  0.58503  1.0000
  N   N20       1.0  0.27719  0.58952  0.68257  1.0000
  N   N21       1.0  0.43174  0.58209  0.70223  1.0000
  N   N22       1.0  0.5849  0.70387  0.43850999999999996  1.0000
  N   N23       1.0  0.7498900000000002  0.79861  0.43827  1.0000
  N   N24       1.0  0.62715  0.82162  0.39659  1.0000
  O   O1        1.0  0.65158  0.0638  0.63127  1.0000
  O   O2        1.0  0.81011  0.12416  0.55493  1.0000
  O   O3        1.0  0.23799000000000003  0.56866  0.01107  1.0000
  O   O4        1.0  0.3969100000000001  0.46988  0.98912  1.0000
  O   O5        1.0  0.3484  0.56386  0.3688199999999999  1.0000
  O   O6        1.0  0.18982  0.62446  0.44498999999999994  1.0000
  O   O7        1.0  0.7619900000000002  0.06865  0.98894  1.0000
  O   O8        1.0  0.60306  0.96988  0.01089  1.0000
  O   O9        1.0  0.3484200000000001  0.06379  0.13125  1.0000
  O   O10       1.0  0.18989  0.12417999999999998  0.05492999999999999  1.0000
  O   O11       1.0  0.7620000000000002  0.56866  0.51106  1.0000
  O   O12       1.0  0.6030900000000001  0.46988  0.48910999999999993  1.0000
  O   O13       1.0  0.6516000000000002  0.56386  0.8688399999999998  1.0000
  O   O14       1.0  0.81018  0.62448  0.9449999999999998  1.0000
  O   O15       1.0  0.23801000000000003  0.06866  0.48894  1.0000
  O   O16       1.0  0.39693  0.96988  0.5109  1.0000
