data_image0
_chemical_formula_structural       Cu4H74C70N20O16
_chemical_formula_sum              "Cu4 H74 C70 N20 O16"
_cell_length_a       10.58702
_cell_length_b       10.89286
_cell_length_c       22.665479999999995
_cell_angle_alpha    93.26406
_cell_angle_beta     89.81751999999999
_cell_angle_gamma    116.15961000000001

_symmetry_space_group_name_H-M    'P 1'
_symmetry_Int_Tables_number       1

loop_
  _symmetry_equiv_pos_as_xyz
  'x,y,z'

loop_
  _atom_site_type_symbol
  _atom_site_label
  _atom_site_symmetry_multiplicity
  _atom_site_fract_x
  _atom_site_fract_y
  _atom_site_fract_z
  _atom_site_occupancy
  Cu  Cu1       1.0  0.19866  0.51027  0.72578  1.0000
  Cu  Cu2       1.0  0.80134  0.48972999999999994  0.27422  1.0000
  Cu  Cu3       1.0  0.5  0.5  0.5  1.0000
  Cu  Cu4       1.0  0.0  0.0  0.0  1.0000
  H   H1        1.0  0.66667  0.32771  0.52446  1.0000
  H   H2        1.0  0.29674000000000006  0.31389  0.60115  1.0000
  H   H3        1.0  0.34075  0.09547  0.63839  1.0000
  H   H4        1.0  0.68704  0.13014000000000003  0.5717900000000001  1.0000
  H   H5        1.0  0.55945  0.03316000000000002  0.6226500000000001  1.0000
  H   H6        1.0  0.53994  0.89646  0.52893  1.0000
  H   H7        1.0  0.38365000000000005  0.9137599999999999  0.54186  1.0000
  H   H8        1.0  0.39310000000000017  0.6237000000000003  0.8541100000000003  1.0000
  H   H9        1.0  0.13429  0.23021000000000003  0.7758500000000002  1.0000
  H   H10       1.0  0.27594  0.2027  0.8738300000000002  1.0000
  H   H11       1.0  0.39441000000000004  0.42432  0.96733  1.0000
  H   H12       1.0  0.52132  0.5703  0.93274  1.0000
  H   H13       1.0  0.4981500000000001  0.27766  0.9260300000000001  1.0000
  H   H14       1.0  0.62792  0.42171999999999993  0.9645600000000001  1.0000
  H   H15       1.0  0.5858400000000001  0.39157000000000003  0.8293000000000003  1.0000
  H   H16       1.0  0.7194399999999999  0.5328699999999998  0.86982  1.0000
  H   H17       1.0  0.82138  0.3854099999999999  0.9061700000000003  1.0000
  H   H18       1.0  0.67865  0.23612  0.87541  1.0000
  H   H19       1.0  0.015890000000000046  0.5370400000000001  0.83659  1.0000
  H   H20       1.0  0.8911000000000001  0.27248  0.6814600000000001  1.0000
  H   H21       1.0  0.66944  0.18229  0.7613100000000003  1.0000
  H   H22       1.0  0.47632  0.46264  0.74354  1.0000
  H   H23       1.0  0.39957000000000004  0.7157600000000001  0.6297000000000001  1.0000
  H   H24       1.0  0.65575  0.7109  0.60026  1.0000
  H   H25       1.0  0.7274800000000002  0.5004100000000001  0.6318800000000001  1.0000
  H   H26       1.0  0.69725  0.46889  0.70772  1.0000
  H   H27       1.0  0.94331  0.6405300000000002  0.6928400000000001  1.0000
  H   H28       1.0  0.8832300000000001  0.74402  0.65583  1.0000
  H   H29       1.0  0.83363  0.67516  0.7866800000000002  1.0000
  H   H30       1.0  0.76274  0.77041  0.75014  1.0000
  H   H31       1.0  0.07614  0.85112  0.77221  1.0000
  H   H32       1.0  0.012600000000000037  0.9450400000000001  0.7291800000000002  1.0000
  H   H33       1.0  0.07212999999999994  0.8706199999999998  0.8813300000000001  1.0000
  H   H34       1.0  0.85435  0.05131999999999999  0.78881  1.0000
  H   H35       1.0  0.8565900000000001  0.11753000000000004  0.9096000000000002  1.0000
  H   H36       1.0  0.05268999999999999  0.40468999999999994  0.40679000000000004  1.0000
  H   H37       1.0  0.19102999999999995  0.46992999999999996  0.9489500000000001  1.0000
  H   H38       1.0  0.33333  0.67228  0.4755400000000001  1.0000
  H   H39       1.0  0.7032700000000001  0.6860999999999999  0.39885  1.0000
  H   H40       1.0  0.6592500000000001  0.90453  0.36161  1.0000
  H   H41       1.0  0.31296  0.8698499999999999  0.42821  1.0000
  H   H42       1.0  0.44054999999999994  0.9668299999999999  0.37735000000000013  1.0000
  H   H43       1.0  0.4600600000000001  0.10352999999999997  0.47108  1.0000
  H   H44       1.0  0.6163500000000001  0.08624000000000001  0.4581400000000001  1.0000
  H   H45       1.0  0.6069000000000001  0.37629  0.14589000000000002  1.0000
  H   H46       1.0  0.8657100000000001  0.7697799999999999  0.22415  1.0000
  H   H47       1.0  0.72407  0.7972899999999999  0.12617  1.0000
  H   H48       1.0  0.6055900000000001  0.57567  0.03268  1.0000
  H   H49       1.0  0.4786800000000001  0.42969  0.06727  1.0000
  H   H50       1.0  0.50185  0.72234  0.07398  1.0000
  H   H51       1.0  0.3720800000000001  0.57827  0.03544  1.0000
  H   H52       1.0  0.41415999999999986  0.6084199999999998  0.1707  1.0000
  H   H53       1.0  0.2805700000000001  0.46712  0.13018000000000002  1.0000
  H   H54       1.0  0.17861999999999997  0.6145799999999999  0.09384000000000003  1.0000
  H   H55       1.0  0.32136  0.76388  0.12459  1.0000
  H   H56       1.0  0.98411  0.46295  0.16341  1.0000
  H   H57       1.0  0.10891000000000003  0.72752  0.31854000000000005  1.0000
  H   H58       1.0  0.33057  0.8177  0.23869  1.0000
  H   H59       1.0  0.52368  0.5373500000000001  0.25646  1.0000
  H   H60       1.0  0.6004400000000001  0.28423999999999994  0.3703  1.0000
  H   H61       1.0  0.34426  0.2891000000000001  0.3997400000000001  1.0000
  H   H62       1.0  0.27253  0.4995899999999999  0.36812  1.0000
  H   H63       1.0  0.30275  0.5311  0.29229  1.0000
  H   H64       1.0  0.05669000000000001  0.35947  0.30717  1.0000
  H   H65       1.0  0.11678000000000001  0.25597  0.34417  1.0000
  H   H66       1.0  0.16638  0.32483  0.21332  1.0000
  H   H67       1.0  0.23726999999999995  0.22957999999999995  0.24986  1.0000
  H   H68       1.0  0.9238700000000001  0.14888  0.22779000000000002  1.0000
  H   H69       1.0  0.9874  0.05495  0.27082  1.0000
  H   H70       1.0  0.9278800000000003  0.12937  0.11867000000000003  1.0000
  H   H71       1.0  0.14564999999999995  0.94868  0.21119000000000002  1.0000
  H   H72       1.0  0.14342000000000005  0.88246  0.0904  1.0000
  H   H73       1.0  0.94731  0.59531  0.59321  1.0000
  H   H74       1.0  0.80898  0.53006  0.05106  1.0000
  C   C1        1.0  0.57366  0.29653  0.5509300000000001  1.0000
  C   C2        1.0  0.38028000000000006  0.28418  0.59126  1.0000
  C   C3        1.0  0.40117  0.17657  0.60997  1.0000
  C   C4        1.0  0.5736400000000001  0.07959  0.57993  1.0000
  C   C5        1.0  0.4948600000000001  0.97031  0.53032  1.0000
  C   C6        1.0  0.34719  0.51401  0.8431500000000002  1.0000
  C   C7        1.0  0.21197  0.30747  0.80558  1.0000
  C   C8        1.0  0.2818  0.29252  0.8535500000000003  1.0000
  C   C9        1.0  0.46164  0.45831  0.9288000000000001  1.0000
  C   C10       1.0  0.55995  0.38919999999999993  0.92451  1.0000
  C   C11       1.0  0.65194  0.42194  0.8698500000000002  1.0000
  C   C12       1.0  0.7435800000000001  0.3455  0.86952  1.0000
  C   C13       1.0  0.9543  0.45073  0.8052300000000002  1.0000
  C   C14       1.0  0.88247  0.31301  0.7252600000000001  1.0000
  C   C15       1.0  0.7734400000000002  0.26767  0.7642100000000002  1.0000
  C   C16       1.0  0.48923999999999995  0.5328899999999999  0.7096500000000001  1.0000
  C   C17       1.0  0.45613  0.6666  0.6499700000000002  1.0000
  C   C18       1.0  0.5816400000000002  0.6655399999999999  0.63507  1.0000
  C   C19       1.0  0.72081  0.54674  0.67529  1.0000
  C   C20       1.0  0.85874  0.67329  0.69156  1.0000
  C   C21       1.0  0.85187  0.7444000000000001  0.7507400000000001  1.0000
  C   C22       1.0  0.9871500000000002  0.87521  0.7652100000000001  1.0000
  C   C23       1.0  0.017029999999999986  0.93329  0.87392  1.0000
  C   C24       1.0  0.89885  0.024760000000000004  0.82609  1.0000
  C   C25       1.0  0.9009000000000001  0.05773000000000001  0.88552  1.0000
  C   C26       1.0  0.20758999999999994  0.39558999999999994  0.49579  1.0000
  C   C27       1.0  0.09055999999999995  0.43737999999999994  0.5006900000000001  1.0000
  C   C28       1.0  0.029220000000000027  0.44645  0.44769  1.0000
  C   C29       1.0  0.060309999999999954  0.49051999999999996  0.554  1.0000
  C   C30       1.0  0.11170000000000004  0.4724999999999999  0.61309  1.0000
  C   C31       1.0  0.05504  0.2646  0.01262  1.0000
  C   C32       1.0  0.02262000000000001  0.38496  0.009230000000000002  1.0000
  C   C33       1.0  0.9111300000000001  0.39875999999999995  0.03839000000000001  1.0000
  C   C34       1.0  0.10724999999999994  0.48431999999999986  0.9713400000000002  1.0000
  C   C35       1.0  0.81404  0.30169  0.08226  1.0000
  C   C36       1.0  0.42635000000000006  0.70346  0.4490800000000001  1.0000
  C   C37       1.0  0.61973  0.71582  0.40875000000000006  1.0000
  C   C38       1.0  0.59884  0.82343  0.39004000000000005  1.0000
  C   C39       1.0  0.42636  0.9204  0.4200700000000001  1.0000
  C   C40       1.0  0.50514  0.029689999999999998  0.46968  1.0000
  C   C41       1.0  0.65281  0.48599  0.15685  1.0000
  C   C42       1.0  0.78803  0.69253  0.19442000000000004  1.0000
  C   C43       1.0  0.71821  0.7074799999999999  0.14645  1.0000
  C   C44       1.0  0.53836  0.54169  0.0712  1.0000
  C   C45       1.0  0.44006000000000006  0.6107899999999999  0.07549000000000002  1.0000
  C   C46       1.0  0.34806  0.5780499999999998  0.13015000000000002  1.0000
  C   C47       1.0  0.25642999999999994  0.6544899999999999  0.13048  1.0000
  C   C48       1.0  0.04569999999999999  0.54926  0.19477000000000005  1.0000
  C   C49       1.0  0.11752999999999997  0.6869799999999999  0.27474  1.0000
  C   C50       1.0  0.22656  0.73233  0.2358  1.0000
  C   C51       1.0  0.51076  0.46709999999999996  0.29036  1.0000
  C   C52       1.0  0.54388  0.33339  0.35003  1.0000
  C   C53       1.0  0.4183700000000001  0.33445999999999987  0.36493000000000003  1.0000
  C   C54       1.0  0.27918999999999994  0.45325999999999994  0.32471000000000005  1.0000
  C   C55       1.0  0.14126999999999998  0.32671  0.30844  1.0000
  C   C56       1.0  0.14813  0.2556  0.24926  1.0000
  C   C57       1.0  0.01285999999999998  0.12477999999999997  0.23479  1.0000
  C   C58       1.0  0.9829800000000002  0.06671  0.12608  1.0000
  C   C59       1.0  0.10115  0.9752299999999999  0.17391  1.0000
  C   C60       1.0  0.09910999999999993  0.9422599999999999  0.11448  1.0000
  C   C61       1.0  0.7924100000000001  0.6043999999999998  0.50421  1.0000
  C   C62       1.0  0.9094400000000001  0.56262  0.49931000000000003  1.0000
  C   C63       1.0  0.9707800000000002  0.5535399999999999  0.55231  1.0000
  C   C64       1.0  0.93969  0.50947  0.446  1.0000
  C   C65       1.0  0.8883  0.52749  0.3869100000000001  1.0000
  C   C66       1.0  0.9449600000000002  0.7354  0.9873900000000002  1.0000
  C   C67       1.0  0.9773900000000002  0.61503  0.9907700000000002  1.0000
  C   C68       1.0  0.08887999999999999  0.6012399999999999  0.9616100000000002  1.0000
  C   C69       1.0  0.8927600000000001  0.51567  0.028670000000000008  1.0000
  C   C70       1.0  0.18597000000000005  0.69831  0.9177400000000002  1.0000
  N   N1        1.0  0.52459  0.18611999999999995  0.58444  1.0000
  N   N2        1.0  0.4888  0.35771000000000003  0.55436  1.0000
  N   N3        1.0  0.3995  0.58404  0.6966800000000001  1.0000
  N   N4        1.0  0.6005899999999998  0.5794999999999999  0.6732600000000002  1.0000
  N   N5        1.0  0.97367  0.94751  0.8195100000000002  1.0000
  N   N6        1.0  0.9746800000000002  0.00023000000000001055  0.9145200000000001  1.0000
  N   N7        1.0  0.25342999999999993  0.44544999999999996  0.79951  1.0000
  N   N8        1.0  0.3674200000000001  0.4239299999999999  0.8766100000000001  1.0000
  N   N9        1.0  0.8208  0.35549  0.81464  1.0000
  N   N10       1.0  0.9942300000000004  0.42704  0.7514700000000002  1.0000
  N   N11       1.0  0.47542  0.81387  0.41556  1.0000
  N   N12       1.0  0.5112  0.6422799999999997  0.4456500000000001  1.0000
  N   N13       1.0  0.6005  0.41595  0.30332  1.0000
  N   N14       1.0  0.39941000000000004  0.42048999999999986  0.32674000000000003  1.0000
  N   N15       1.0  0.026330000000000003  0.05249000000000001  0.18050000000000005  1.0000
  N   N16       1.0  0.02532999999999996  0.9997599999999999  0.08549  1.0000
  N   N17       1.0  0.7465800000000001  0.55455  0.20049  1.0000
  N   N18       1.0  0.63258  0.5760599999999999  0.12339  1.0000
  N   N19       1.0  0.17920000000000005  0.64451  0.18536000000000002  1.0000
  N   N20       1.0  0.005769999999999996  0.57296  0.24853000000000006  1.0000
  O   O1        1.0  0.19998  0.29902  0.4614500000000001  1.0000
  O   O2        1.0  0.31783  0.4835499999999999  0.5262600000000001  1.0000
  O   O3        1.0  0.11338999999999998  0.3609899999999999  0.62297  1.0000
  O   O4        1.0  0.14404000000000006  0.57505  0.65162  1.0000
  O   O5        1.0  0.94298  0.14711999999999997  0.011440000000000004  1.0000
  O   O6        1.0  0.17859000000000005  0.27857  0.012140000000000001  1.0000
  O   O7        1.0  0.878  0.27934  0.12540000000000004  1.0000
  O   O8        1.0  0.68425  0.26173  0.07464000000000001  1.0000
  O   O9        1.0  0.80002  0.70097  0.53855  1.0000
  O   O10       1.0  0.68218  0.51644  0.47374000000000005  1.0000
  O   O11       1.0  0.8866200000000001  0.63901  0.37704  1.0000
  O   O12       1.0  0.8559600000000002  0.42495  0.34839000000000003  1.0000
  O   O13       1.0  0.057030000000000074  0.85287  0.9885600000000002  1.0000
  O   O14       1.0  0.82141  0.7214299999999999  0.98786  1.0000
  O   O15       1.0  0.12201  0.72066  0.8746  1.0000
  O   O16       1.0  0.31575000000000003  0.73826  0.92537  1.0000
