data_image0
_chemical_formula_structural       Cd6H84C100N18O12F2
_chemical_formula_sum              "Cd6 H84 C100 N18 O12 F2"
_cell_length_a       12.77355
_cell_length_b       12.87949
_cell_length_c       23.233319999999996
_cell_angle_alpha    101.86849
_cell_angle_beta     90.03288999999998
_cell_angle_gamma    119.78081

_symmetry_space_group_name_H-M    'P 1'
_symmetry_Int_Tables_number       1

loop_
  _symmetry_equiv_pos_as_xyz
  'x,y,z'

loop_
  _atom_site_type_symbol
  _atom_site_label
  _atom_site_symmetry_multiplicity
  _atom_site_fract_x
  _atom_site_fract_y
  _atom_site_fract_z
  _atom_site_occupancy
  Cd  Cd1       1.0  0.7381499999999999  0.8069199999999997  0.73079  1.0000
  Cd  Cd2       1.0  0.9322199999999999  0.19358  0.76888  1.0000
  Cd  Cd3       1.0  0.26186  0.19307  0.26921  1.0000
  Cd  Cd4       1.0  0.0677899999999999  0.8064199999999998  0.23112  1.0000
  Cd  Cd5       1.0  0.09658000000000005  0.9996300000000001  0.7500000000000001  1.0000
  Cd  Cd6       1.0  0.9034300000000002  0.0003699999999999913  0.25  1.0000
  H   H1        1.0  0.09926000000000006  0.68171  0.7922  1.0000
  H   H2        1.0  0.7317400000000002  0.4461899999999999  0.70658  1.0000
  H   H3        1.0  0.09403000000000004  0.4912500000000001  0.8085800000000001  1.0000
  H   H4        1.0  0.74209  0.26633999999999997  0.72576  1.0000
  H   H5        1.0  0.39614  0.8072699999999999  0.70769  1.0000
  H   H6        1.0  0.2016500000000001  0.81253  0.71144  1.0000
  H   H7        1.0  0.027749999999999973  0.76865  0.64022  1.0000
  H   H8        1.0  0.13554  0.13088999999999995  0.64277  1.0000
  H   H9        1.0  0.02703999999999992  0.7161799999999998  0.53183  1.0000
  H   H10       1.0  0.14058000000000004  0.09569  0.53458  1.0000
  H   H11       1.0  0.9467100000000003  0.67939  0.43867  1.0000
  H   H12       1.0  0.22346000000000008  0.061900000000000045  0.45402000000000003  1.0000
  H   H13       1.0  0.94341  0.64938  0.33023  1.0000
  H   H14       1.0  0.20974  0.014139999999999995  0.34516  1.0000
  H   H15       1.0  0.8208400000000002  0.69715  0.61302  1.0000
  H   H16       1.0  0.5505400000000003  0.78446  0.62916  1.0000
  H   H17       1.0  0.77094  0.624  0.50317  1.0000
  H   H18       1.0  0.48352999999999996  0.7086499999999999  0.51995  1.0000
  H   H19       1.0  0.4943800000000001  0.58913  0.42264  1.0000
  H   H20       1.0  0.6036100000000001  0.54136  0.41646  1.0000
  H   H21       1.0  0.6469400000000002  0.6940699999999997  0.41431  1.0000
  H   H22       1.0  0.41712  0.3180799999999999  0.70813  1.0000
  H   H23       1.0  0.2851  0.55282  0.79389  1.0000
  H   H24       1.0  0.6022000000000001  0.5087999999999999  0.69143  1.0000
  H   H25       1.0  0.47504  0.7332  0.7742  1.0000
  H   H26       1.0  0.5882700000000001  0.19366999999999995  0.79268  1.0000
  H   H27       1.0  0.38755  0.1859899999999999  0.7889  1.0000
  H   H28       1.0  0.25847  0.23112999999999984  0.85988  1.0000
  H   H29       1.0  0.003940000000000041  0.86857  0.85728  1.0000
  H   H30       1.0  0.31079000000000007  0.28353  0.96818  1.0000
  H   H31       1.0  0.04481000000000003  0.90364  0.9653800000000001  1.0000
  H   H32       1.0  0.26700000000000007  0.31991  0.06158  1.0000
  H   H33       1.0  0.1607000000000001  0.93752  0.0461  1.0000
  H   H34       1.0  0.29355000000000003  0.34968  0.17002  1.0000
  H   H35       1.0  0.19479999999999986  0.9849599999999998  0.15488  1.0000
  H   H36       1.0  0.12375999999999994  0.30297999999999986  0.8869299999999999  1.0000
  H   H37       1.0  0.76586  0.21524000000000007  0.87053  1.0000
  H   H38       1.0  0.14718000000000006  0.37615  0.99674  1.0000
  H   H39       1.0  0.7748899999999999  0.2913199999999999  0.97973  1.0000
  H   H40       1.0  0.9052100000000002  0.41055  0.07704  1.0000
  H   H41       1.0  0.06221999999999989  0.45838999999999974  0.08344  1.0000
  H   H42       1.0  0.9525900000000002  0.30570999999999987  0.08545  1.0000
  H   H43       1.0  0.9007500000000003  0.31828999999999996  0.2078  1.0000
  H   H44       1.0  0.26827000000000006  0.55381  0.29342  1.0000
  H   H45       1.0  0.90598  0.50875  0.19142  1.0000
  H   H46       1.0  0.2579200000000001  0.73366  0.27424  1.0000
  H   H47       1.0  0.60387  0.19272  0.29231  1.0000
  H   H48       1.0  0.79835  0.18747  0.28856  1.0000
  H   H49       1.0  0.97225  0.23134999999999994  0.35978  1.0000
  H   H50       1.0  0.8644700000000001  0.8691099999999999  0.35722999999999994  1.0000
  H   H51       1.0  0.9729700000000001  0.28382  0.46817  1.0000
  H   H52       1.0  0.85942  0.90431  0.46542  1.0000
  H   H53       1.0  0.053289999999999976  0.32060999999999995  0.56133  1.0000
  H   H54       1.0  0.77654  0.9380999999999999  0.54598  1.0000
  H   H55       1.0  0.05659999999999998  0.3506199999999999  0.66977  1.0000
  H   H56       1.0  0.79026  0.98586  0.65484  1.0000
  H   H57       1.0  0.17917000000000002  0.30285  0.38698  1.0000
  H   H58       1.0  0.4494699999999999  0.21553999999999995  0.37084  1.0000
  H   H59       1.0  0.22907  0.3759999999999999  0.49683  1.0000
  H   H60       1.0  0.5164700000000001  0.29134999999999994  0.4800499999999999  1.0000
  H   H61       1.0  0.50562  0.4108699999999999  0.57736  1.0000
  H   H62       1.0  0.39638999999999996  0.45863999999999994  0.58354  1.0000
  H   H63       1.0  0.35307  0.30593  0.58569  1.0000
  H   H64       1.0  0.58288  0.6819199999999999  0.29187  1.0000
  H   H65       1.0  0.7149  0.4471799999999999  0.20611  1.0000
  H   H66       1.0  0.39780000000000004  0.49119999999999997  0.30857  1.0000
  H   H67       1.0  0.52497  0.2668  0.2258  1.0000
  H   H68       1.0  0.41173999999999994  0.8063299999999999  0.20732  1.0000
  H   H69       1.0  0.61245  0.81401  0.2111  1.0000
  H   H70       1.0  0.7415299999999999  0.7688699999999999  0.14012  1.0000
  H   H71       1.0  0.9960600000000002  0.13143  0.14272  1.0000
  H   H72       1.0  0.6892099999999999  0.7164699999999998  0.03182  1.0000
  H   H73       1.0  0.9552  0.09636  0.03462  1.0000
  H   H74       1.0  0.733  0.6800899999999999  0.9384199999999999  1.0000
  H   H75       1.0  0.8393100000000001  0.06247999999999992  0.9538999999999999  1.0000
  H   H76       1.0  0.70645  0.65032  0.82998  1.0000
  H   H77       1.0  0.80521  0.01504000000000005  0.84512  1.0000
  H   H78       1.0  0.8762400000000002  0.69702  0.11307  1.0000
  H   H79       1.0  0.23414000000000001  0.7847599999999999  0.12947  1.0000
  H   H80       1.0  0.85283  0.62385  0.0032599999999999994  1.0000
  H   H81       1.0  0.22512000000000001  0.70868  0.02027  1.0000
  H   H82       1.0  0.09479  0.58945  0.9229600000000001  1.0000
  H   H83       1.0  0.9377800000000001  0.5416099999999999  0.91656  1.0000
  H   H84       1.0  0.047409999999999966  0.6942899999999999  0.9145399999999999  1.0000
  C   C1        1.0  0.9144100000000002  0.68974  0.73809  1.0000
  C   C2        1.0  0.91512  0.57897  0.74836  1.0000
  C   C3        1.0  0.01871  0.59097  0.7772900000000001  1.0000
  C   C4        1.0  0.8133  0.45970000000000005  0.72949  1.0000
  C   C5        1.0  0.016069999999999963  0.48664999999999997  0.78656  1.0000
  C   C6        1.0  0.81852  0.36009  0.74003  1.0000
  C   C7        1.0  0.39675999999999995  0.8921799999999998  0.72652  1.0000
  C   C8        1.0  0.28951  0.89521  0.72799  1.0000
  C   C9        1.0  0.05143000000000001  0.83806  0.61488  1.0000
  C   C10       1.0  0.11357000000000002  0.04092999999999999  0.61639  1.0000
  C   C11       1.0  0.050389999999999976  0.80928  0.55409  1.0000
  C   C12       1.0  0.11775  0.020629999999999992  0.55592  1.0000
  C   C13       1.0  0.08415000000000002  0.90124  0.52161  1.0000
  C   C14       1.0  0.08348000000000003  0.8758  0.45793  1.0000
  C   C15       1.0  0.007249999999999959  0.75682  0.42031  1.0000
  C   C16       1.0  0.1585200000000001  0.96938  0.42876999999999993  1.0000
  C   C17       1.0  0.004289999999999946  0.73917  0.35945  1.0000
  C   C18       1.0  0.1519999999999999  0.9436299999999999  0.3678600000000001  1.0000
  C   C19       1.0  0.74771  0.69911  0.5903  1.0000
  C   C20       1.0  0.59526  0.7464499999999997  0.59928  1.0000
  C   C21       1.0  0.7180699999999999  0.6573099999999997  0.5291  1.0000
  C   C22       1.0  0.55952  0.70479  0.53843  1.0000
  C   C23       1.0  0.6219299999999999  0.65958  0.50139  1.0000
  C   C24       1.0  0.58946  0.61826  0.4353099999999999  1.0000
  C   C25       1.0  0.22475  0.31018  0.76251  1.0000
  C   C26       1.0  0.33592000000000005  0.4207699999999999  0.75194  1.0000
  C   C27       1.0  0.42733  0.40882  0.72286  1.0000
  C   C28       1.0  0.35317  0.53984  0.77077  1.0000
  C   C29       1.0  0.52881  0.5132499999999999  0.7134299999999999  1.0000
  C   C30       1.0  0.45771999999999996  0.6395099999999999  0.7599699999999999  1.0000
  C   C31       1.0  0.50442  0.10809999999999993  0.7737199999999999  1.0000
  C   C32       1.0  0.39348  0.10382999999999991  0.7723699999999999  1.0000
  C   C33       1.0  0.2128299999999999  0.16161999999999987  0.8851899999999999  1.0000
  C   C34       1.0  0.07210999999999997  0.95859  0.88362  1.0000
  C   C35       1.0  0.24086000000000005  0.19035  0.94597  1.0000
  C   C36       1.0  0.09689999999999999  0.97884  0.94407  1.0000
  C   C37       1.0  0.18275999999999998  0.09830999999999994  0.9784599999999999  1.0000
  C   C38       1.0  0.20744999999999997  0.12363999999999999  0.04216  1.0000
  C   C39       1.0  0.25023  0.24249  0.07991  1.0000
  C   C40       1.0  0.18864  0.03005  0.07136  1.0000
  C   C41       1.0  0.2648499999999999  0.2600299999999999  0.14077  1.0000
  C   C42       1.0  0.20787999999999998  0.055659999999999994  0.13228  1.0000
  C   C43       1.0  0.04861  0.30079  0.9095899999999999  1.0000
  C   C44       1.0  0.84868  0.25323  0.90044  1.0000
  C   C45       1.0  0.06088  0.34268  0.97077  1.0000
  C   C46       1.0  0.85466  0.29501000000000005  0.96127  1.0000
  C   C47       1.0  0.96238  0.34028  0.99837  1.0000
  C   C48       1.0  0.97114  0.38148999999999994  0.06442  1.0000
  C   C49       1.0  0.08560000000000002  0.31026  0.26191  1.0000
  C   C50       1.0  0.08488999999999997  0.42102999999999996  0.25164  1.0000
  C   C51       1.0  0.9813000000000002  0.40902999999999995  0.22271  1.0000
  C   C52       1.0  0.18670000000000006  0.5403  0.27051  1.0000
  C   C53       1.0  0.9839400000000004  0.51335  0.21344000000000002  1.0000
  C   C54       1.0  0.18149  0.63991  0.25997  1.0000
  C   C55       1.0  0.6032500000000001  0.10782  0.27348  1.0000
  C   C56       1.0  0.7104900000000002  0.10478999999999998  0.27201  1.0000
  C   C57       1.0  0.9485700000000002  0.16193999999999995  0.38512  1.0000
  C   C58       1.0  0.8864400000000002  0.9590599999999999  0.38361  1.0000
  C   C59       1.0  0.9496100000000002  0.19072  0.44591  1.0000
  C   C60       1.0  0.8822500000000001  0.9793699999999999  0.4440799999999999  1.0000
  C   C61       1.0  0.9158599999999999  0.09875999999999997  0.47839  1.0000
  C   C62       1.0  0.9165300000000001  0.12419999999999999  0.54207  1.0000
  C   C63       1.0  0.99276  0.24318  0.57969  1.0000
  C   C64       1.0  0.8414900000000001  0.030620000000000015  0.57123  1.0000
  C   C65       1.0  0.99572  0.26083  0.64055  1.0000
  C   C66       1.0  0.8480100000000003  0.05635999999999999  0.63214  1.0000
  C   C67       1.0  0.2523  0.3008899999999999  0.40969999999999995  1.0000
  C   C68       1.0  0.4047400000000001  0.25355  0.40072  1.0000
  C   C69       1.0  0.28194000000000013  0.34269  0.4709  1.0000
  C   C70       1.0  0.44048000000000004  0.29521  0.46157  1.0000
  C   C71       1.0  0.3780700000000001  0.34041999999999994  0.49861  1.0000
  C   C72       1.0  0.41054  0.38173  0.56469  1.0000
  C   C73       1.0  0.77526  0.6898199999999999  0.23748999999999998  1.0000
  C   C74       1.0  0.66409  0.57923  0.24806  1.0000
  C   C75       1.0  0.5726700000000001  0.59118  0.27714  1.0000
  C   C76       1.0  0.64683  0.46015999999999996  0.22923  1.0000
  C   C77       1.0  0.47120000000000006  0.48675  0.28657  1.0000
  C   C78       1.0  0.54229  0.36049  0.24002999999999997  1.0000
  C   C79       1.0  0.49558000000000013  0.8919  0.22627999999999998  1.0000
  C   C80       1.0  0.60652  0.8961699999999998  0.22763  1.0000
  C   C81       1.0  0.78718  0.83838  0.11481  1.0000
  C   C82       1.0  0.9279000000000001  0.04141  0.11638  1.0000
  C   C83       1.0  0.7591500000000002  0.80965  0.05403  1.0000
  C   C84       1.0  0.9031100000000002  0.02116  0.05593  1.0000
  C   C85       1.0  0.8172499999999999  0.9016899999999998  0.02154  1.0000
  C   C86       1.0  0.79255  0.8763599999999999  0.9578399999999999  1.0000
  C   C87       1.0  0.7497800000000001  0.7575  0.9200899999999999  1.0000
  C   C88       1.0  0.8113699999999999  0.9699499999999998  0.9286399999999999  1.0000
  C   C89       1.0  0.73516  0.7399699999999999  0.8592299999999999  1.0000
  C   C90       1.0  0.7921300000000001  0.9443399999999997  0.86772  1.0000
  C   C91       1.0  0.9514000000000002  0.69921  0.09041  1.0000
  C   C92       1.0  0.15131999999999987  0.7467699999999998  0.09956  1.0000
  C   C93       1.0  0.9391300000000001  0.65732  0.029229999999999996  1.0000
  C   C94       1.0  0.14534999999999995  0.7049899999999999  0.03873  1.0000
  C   C95       1.0  0.03762999999999997  0.65972  0.0016299999999999997  1.0000
  C   C96       1.0  0.02887000000000004  0.61851  0.93558  1.0000
  C   C97       1.0  0.62556  0.00032999999999999816  0.74895  1.0000
  C   C98       1.0  0.50777  0.0004299999999998917  0.7498299999999999  1.0000
  C   C99       1.0  0.37444  0.9996599999999999  0.25105  1.0000
  C   C100      1.0  0.4922300000000001  0.9995700000000001  0.25017  1.0000
  N   N1        1.0  0.9177600000000001  0.37218  0.76854  1.0000
  N   N2        1.0  0.08067999999999996  0.9518099999999999  0.6469  1.0000
  N   N3        1.0  0.07439000000000003  0.8307499999999999  0.33228  1.0000
  N   N4        1.0  0.6887000000000001  0.74457  0.62526  1.0000
  N   N5        1.0  0.5447900000000002  0.6276  0.73135  1.0000
  N   N6        1.0  0.12809000000000004  0.04784  0.85312  1.0000
  N   N7        1.0  0.24338000000000004  0.16845  0.16798  1.0000
  N   N8        1.0  0.94404  0.2551499999999999  0.87455  1.0000
  N   N9        1.0  0.08224999999999996  0.6278199999999999  0.23146  1.0000
  N   N10       1.0  0.91933  0.04818999999999997  0.3531  1.0000
  N   N11       1.0  0.92562  0.16924999999999996  0.66772  1.0000
  N   N12       1.0  0.3113000000000001  0.25543  0.37473999999999996  1.0000
  N   N13       1.0  0.45522  0.3724  0.26865  1.0000
  N   N14       1.0  0.8719200000000001  0.9521599999999998  0.14688  1.0000
  N   N15       1.0  0.7566200000000002  0.83155  0.83202  1.0000
  N   N16       1.0  0.05596000000000003  0.74485  0.12545  1.0000
  N   N17       1.0  0.28670999999999996  0.9993399999999999  0.75011  1.0000
  N   N18       1.0  0.7133  0.000650000000000003  0.24989  1.0000
  O   O1        1.0  0.013800000000000038  0.79199  0.7539  1.0000
  O   O2        1.0  0.8149099999999999  0.6720499999999999  0.71416  1.0000
  O   O3        1.0  0.61919  0.8994999999999999  0.72328  1.0000
  O   O4        1.0  0.22093999999999997  0.20767999999999995  0.7458999999999999  1.0000
  O   O5        1.0  0.14387  0.3278899999999999  0.78756  1.0000
  O   O6        1.0  0.7207900000000003  0.10113999999999992  0.77394  1.0000
  O   O7        1.0  0.9862000000000001  0.20799999999999993  0.2461  1.0000
  O   O8        1.0  0.18509  0.32795  0.28584  1.0000
  O   O9        1.0  0.3808100000000001  0.1005  0.27672  1.0000
  O   O10       1.0  0.77907  0.79232  0.2541  1.0000
  O   O11       1.0  0.85614  0.67211  0.21244  1.0000
  O   O12       1.0  0.27922  0.89885  0.22605999999999998  1.0000
  F   F1        1.0  0.91513  0.99998  0.7486499999999999  1.0000
  F   F2        1.0  0.08486999999999999  1.9999999999986646e-05  0.25135  1.0000
