data_image0
_chemical_formula_structural       Co2Cu4H64C72N24Cl12
_chemical_formula_sum              "Co2 Cu4 H64 C72 N24 Cl12"
_cell_length_a       7.16504
_cell_length_b       11.53391
_cell_length_c       26.39437
_cell_angle_alpha    90.27575999999999
_cell_angle_beta     91.72703
_cell_angle_gamma    71.34117

_symmetry_space_group_name_H-M    'P 1'
_symmetry_Int_Tables_number       1

loop_
  _symmetry_equiv_pos_as_xyz
  'x,y,z'

loop_
  _atom_site_type_symbol
  _atom_site_label
  _atom_site_symmetry_multiplicity
  _atom_site_fract_x
  _atom_site_fract_y
  _atom_site_fract_z
  _atom_site_occupancy
  Co  Co1       1.0  0.08956999999999998  0.7775399999999999  0.24759  1.0000
  Co  Co2       1.0  0.8907199999999998  0.22210999999999997  0.75057  1.0000
  Cu  Cu1       1.0  0.4202099999999999  0.12597  0.02908  1.0000
  Cu  Cu2       1.0  0.46844999999999987  0.12857  0.4708799999999999  1.0000
  Cu  Cu3       1.0  0.58577  0.8716599999999998  0.97038  1.0000
  Cu  Cu4       1.0  0.55021  0.88148  0.53349  1.0000
  H   H1        1.0  0.46395000000000014  0.9367699999999998  0.11848  1.0000
  H   H2        1.0  0.7381599999999997  0.9113899999999998  0.1988  1.0000
  H   H3        1.0  0.9590999999999997  0.05270999999999999  0.16962  1.0000
  H   H4        1.0  0.8218999999999997  0.16554  0.04233999999999999  1.0000
  H   H5        1.0  0.9566099999999998  0.18358999999999995  0.09785  1.0000
  H   H6        1.0  0.7997799999999998  0.37628  0.02246  1.0000
  H   H7        1.0  0.5016100000000001  0.7001799999999999  0.01292  1.0000
  H   H8        1.0  0.6772499999999998  0.57839  0.98244  1.0000
  H   H9        1.0  0.98063  0.4990299999999999  0.9307599999999998  1.0000
  H   H10       1.0  0.02459  0.11927  0.96182  1.0000
  H   H11       1.0  0.53397  0.30304  0.15711  1.0000
  H   H12       1.0  0.4135299999999998  0.4840899999999999  0.21135999999999994  1.0000
  H   H13       1.0  0.35628  0.63467  0.1841  1.0000
  H   H14       1.0  0.09936  0.39584  0.15329999999999994  1.0000
  H   H15       1.0  0.7088199999999998  0.50195  0.17648  1.0000
  H   H16       1.0  0.7004900000000001  0.7228  0.21885999999999997  1.0000
  H   H17       1.0  0.6122400000000001  0.9342299999999998  0.38163  1.0000
  H   H18       1.0  0.35845  0.9048199999999998  0.30368  1.0000
  H   H19       1.0  0.9957899999999998  0.046889999999999994  0.3335599999999999  1.0000
  H   H20       1.0  0.017310000000000006  0.1626  0.45963  1.0000
  H   H21       1.0  0.8698699999999999  0.17383999999999997  0.40335  1.0000
  H   H22       1.0  0.8358899999999998  0.37012999999999996  0.47974  1.0000
  H   H23       1.0  0.8175599999999997  0.6893099999999999  0.48749999999999993  1.0000
  H   H24       1.0  0.7476299999999998  0.57337  0.51643  1.0000
  H   H25       1.0  0.51355  0.50154  0.56822  1.0000
  H   H26       1.0  0.8649199999999998  0.12112999999999997  0.5414  1.0000
  H   H27       1.0  0.14828999999999998  0.29538  0.3404699999999999  1.0000
  H   H28       1.0  0.07635000000000002  0.47293  0.28235  1.0000
  H   H29       1.0  0.9771399999999999  0.6267299999999999  0.30647  1.0000
  H   H30       1.0  0.47509999999999986  0.38484999999999997  0.3438899999999999  1.0000
  H   H31       1.0  0.7594199999999995  0.4894499999999999  0.32285  1.0000
  H   H32       1.0  0.5489699999999997  0.70927  0.27725  1.0000
  H   H33       1.0  0.53618  0.06561  0.88125  1.0000
  H   H34       1.0  0.26106  0.08904999999999999  0.8014199999999998  1.0000
  H   H35       1.0  0.042560000000000105  0.9471899999999999  0.83115  1.0000
  H   H36       1.0  0.17921000000000006  0.8325299999999998  0.95769  1.0000
  H   H37       1.0  0.047010000000000184  0.8176599999999998  0.90119  1.0000
  H   H38       1.0  0.20289999999999989  0.6249499999999999  0.97647  1.0000
  H   H39       1.0  0.4994399999999999  0.3012599999999999  0.9861599999999998  1.0000
  H   H40       1.0  0.32603999999999994  0.4230599999999999  0.01675  1.0000
  H   H41       1.0  0.017250000000000012  0.49609  0.06769  1.0000
  H   H42       1.0  0.98588  0.8752699999999998  0.040169999999999983  1.0000
  H   H43       1.0  0.46335999999999994  0.69723  0.84106  1.0000
  H   H44       1.0  0.57608  0.51447  0.78627  1.0000
  H   H45       1.0  0.6368199999999998  0.3639899999999999  0.81413  1.0000
  H   H46       1.0  0.89353  0.6017699999999999  0.8476099999999999  1.0000
  H   H47       1.0  0.2836999999999999  0.4957099999999999  0.82362  1.0000
  H   H48       1.0  0.28738  0.28019  0.77711  1.0000
  H   H49       1.0  0.41304  0.06726999999999998  0.62332  1.0000
  H   H50       1.0  0.6700999999999996  0.08723  0.70239  1.0000
  H   H51       1.0  0.030379999999999966  0.94563  0.67111  1.0000
  H   H52       1.0  0.006449999999999974  0.83701  0.54443  1.0000
  H   H53       1.0  0.15153  0.81382  0.60178  1.0000
  H   H54       1.0  0.17737999999999993  0.62806  0.52277  1.0000
  H   H55       1.0  0.20338000000000003  0.3035599999999999  0.51279  1.0000
  H   H56       1.0  0.25005  0.42385  0.48089  1.0000
  H   H57       1.0  0.47079999999999994  0.53258  0.42388  1.0000
  H   H58       1.0  0.1580399999999999  0.9079099999999998  0.4685899999999999  1.0000
  H   H59       1.0  0.85485  0.69543  0.65989  1.0000
  H   H60       1.0  0.8994399999999997  0.52231  0.7111699999999999  1.0000
  H   H61       1.0  0.0014600000000000227  0.3695399999999999  0.68697  1.0000
  H   H62       1.0  0.49634000000000006  0.60505  0.6535399999999999  1.0000
  H   H63       1.0  0.2188899999999999  0.49424  0.6767599999999999  1.0000
  H   H64       1.0  0.4425099999999998  0.27619999999999995  0.7213499999999999  1.0000
  C   C1        1.0  0.5753199999999999  0.9812399999999998  0.12497  1.0000
  C   C2        1.0  0.7179699999999996  0.9663  0.16454  1.0000
  C   C3        1.0  0.8267899999999999  0.04005  0.15218  1.0000
  C   C4        1.0  0.8069899999999998  0.19089  0.08261999999999997  1.0000
  C   C5        1.0  0.66999  0.32143  0.08732  1.0000
  C   C6        1.0  0.6911400000000001  0.40552  0.05197  1.0000
  C   C7        1.0  0.5771099999999998  0.52997  0.05371999999999998  1.0000
  C   C8        1.0  0.6286299999999997  0.61796  0.0195  1.0000
  C   C9        1.0  0.027180000000000062  0.4016899999999999  0.93997  1.0000
  C   C10       1.0  0.9189799999999998  0.32092  0.93806  1.0000
  C   C11       1.0  0.047530000000000024  0.20691999999999997  0.9564  1.0000
  C   C12       1.0  0.42867  0.564  0.08939  1.0000
  C   C13       1.0  0.4221999999999999  0.48945999999999995  0.12983  1.0000
  C   C14       1.0  0.5416500000000001  0.36546999999999985  0.12691  1.0000
  C   C15       1.0  0.33409999999999995  0.54432  0.17957  1.0000
  C   C16       1.0  0.02517000000000004  0.4829799999999999  0.17079  1.0000
  C   C17       1.0  0.8303299999999998  0.5372499999999999  0.18303  1.0000
  C   C18       1.0  0.8208899999999999  0.65156  0.20291  1.0000
  C   C19       1.0  0.45505999999999996  0.9772199999999998  0.37619  1.0000
  C   C20       1.0  0.3253899999999999  0.95989  0.3375099999999999  1.0000
  C   C21       1.0  0.14049  0.03416  0.3505999999999999  1.0000
  C   C22       1.0  0.008160000000000008  0.18535  0.41894  1.0000
  C   C23       1.0  0.002820000000000029  0.31686999999999993  0.41189  1.0000
  C   C24       1.0  0.90092  0.40083  0.44788  1.0000
  C   C25       1.0  0.8705499999999999  0.52677  0.4423699999999999  1.0000
  C   C26       1.0  0.7530599999999997  0.61666  0.4799  1.0000
  C   C27       1.0  0.5707399999999999  0.40463999999999994  0.55919  1.0000
  C   C28       1.0  0.7617199999999997  0.3238  0.56304  1.0000
  C   C29       1.0  0.75176  0.20933999999999997  0.54529  1.0000
  C   C30       1.0  0.95209  0.5608199999999999  0.40069  1.0000
  C   C31       1.0  0.048670000000000026  0.48482999999999987  0.3629499999999999  1.0000
  C   C32       1.0  0.07485999999999995  0.35912  0.36975  1.0000
  C   C33       1.0  0.08824000000000007  0.5359799999999999  0.31321  1.0000
  C   C34       1.0  0.46064999999999984  0.4721399999999999  0.32589999999999997  1.0000
  C   C35       1.0  0.60249  0.5250399999999998  0.31453  1.0000
  C   C36       1.0  0.49817  0.6390099999999999  0.29309  1.0000
  C   C37       1.0  0.4263099999999999  0.019759999999999993  0.8750599999999998  1.0000
  C   C38       1.0  0.2823  0.03466  0.83584  1.0000
  C   C39       1.0  0.17476000000000005  0.9604599999999998  0.8484099999999999  1.0000
  C   C40       1.0  0.19602999999999998  0.80911  0.91719  1.0000
  C   C41       1.0  0.3320200000000001  0.6787999999999998  0.9116499999999997  1.0000
  C   C42       1.0  0.31066000000000005  0.5948  0.94692  1.0000
  C   C43       1.0  0.41971  0.46987  0.9445799999999998  1.0000
  C   C44       1.0  0.37122  0.3826799999999999  0.9796499999999998  1.0000
  C   C45       1.0  0.97338  0.59405  0.05941999999999999  1.0000
  C   C46       1.0  0.08686999999999998  0.67201  0.061439999999999995  1.0000
  C   C47       1.0  0.95878  0.7883399999999999  0.0446  1.0000
  C   C48       1.0  0.5620000000000003  0.4352499999999999  0.90777  1.0000
  C   C49       1.0  0.5706999999999998  0.51026  0.8678399999999997  1.0000
  C   C50       1.0  0.45669  0.63493  0.87143  1.0000
  C   C51       1.0  0.6569499999999999  0.4551199999999999  0.8181799999999998  1.0000
  C   C52       1.0  0.9662199999999996  0.5161099999999998  0.82874  1.0000
  C   C53       1.0  0.16067000000000006  0.4622499999999999  0.81594  1.0000
  C   C54       1.0  0.16794  0.35025  0.79394  1.0000
  C   C55       1.0  0.56997  0.022849999999999992  0.6287  1.0000
  C   C56       1.0  0.70141  0.03518  0.66782  1.0000
  C   C57       1.0  0.88496  0.9595499999999999  0.65432  1.0000
  C   C58       1.0  0.009909999999999985  0.80988  0.58469  1.0000
  C   C59       1.0  0.9996399999999999  0.6804699999999998  0.58856  1.0000
  C   C60       1.0  0.10034000000000004  0.5974599999999999  0.55228  1.0000
  C   C61       1.0  0.11100000000000003  0.4732099999999999  0.55363  1.0000
  C   C62       1.0  0.24760999999999989  0.38521  0.51857  1.0000
  C   C63       1.0  0.42301999999999984  0.6259899999999999  0.4375899999999999  1.0000
  C   C64       1.0  0.24115999999999999  0.71501  0.43711999999999995  1.0000
  C   C65       1.0  0.26265999999999984  0.81953  0.46019999999999994  1.0000
  C   C66       1.0  0.9988699999999999  0.43912  0.5897  1.0000
  C   C67       1.0  0.92001  0.51209  0.6306199999999998  1.0000
  C   C68       1.0  0.9188599999999998  0.6353999999999999  0.62851  1.0000
  C   C69       1.0  0.8855700000000001  0.45887  0.6806399999999999  1.0000
  C   C70       1.0  0.5137599999999999  0.5171  0.6712799999999998  1.0000
  C   C71       1.0  0.37684999999999996  0.46125999999999995  0.68375  1.0000
  C   C72       1.0  0.48722  0.34836  0.7049899999999999  1.0000
  N   N1        1.0  0.5948100000000001  0.06125999999999999  0.09049999999999998  1.0000
  N   N2        1.0  0.7485099999999998  0.09816999999999997  0.10791999999999999  1.0000
  N   N3        1.0  0.21439000000000008  0.3363399999999999  0.95877  1.0000
  N   N4        1.0  0.22652999999999993  0.21817999999999996  0.9701099999999998  1.0000
  N   N5        1.0  0.1227  0.56402  0.18253999999999998  1.0000
  N   N6        1.0  0.99853  0.66786  0.20289  1.0000
  N   N7        1.0  0.3564999999999999  0.05861999999999997  0.41044  1.0000
  N   N8        1.0  0.16347999999999993  0.0935  0.3941299999999999  1.0000
  N   N9        1.0  0.45346999999999976  0.33951999999999993  0.53936  1.0000
  N   N10       1.0  0.5630799999999998  0.22094999999999998  0.52972  1.0000
  N   N11       1.0  0.2819199999999998  0.55426  0.31255  1.0000
  N   N12       1.0  0.30315  0.65682  0.29109999999999997  1.0000
  N   N13       1.0  0.40938  0.93867  0.90948  1.0000
  N   N14       1.0  0.25491000000000025  0.9020899999999997  0.89244  1.0000
  N   N15       1.0  0.78593  0.66269  0.04164  1.0000
  N   N16       1.0  0.7767799999999999  0.78086  0.03113  1.0000
  N   N17       1.0  0.8676899999999997  0.43647  0.81551  1.0000
  N   N18       1.0  0.9896699999999996  0.33476  0.7931999999999999  1.0000
  N   N19       1.0  0.66645  0.9431699999999998  0.59378  1.0000
  N   N20       1.0  0.8593799999999997  0.9037499999999999  0.61006  1.0000
  N   N21       1.0  0.5506399999999998  0.6785  0.46105999999999997  1.0000
  N   N22       1.0  0.45469999999999994  0.79534  0.4754  1.0000
  N   N23       1.0  0.69547  0.43763999999999986  0.6836699999999999  1.0000
  N   N24       1.0  0.6806999999999997  0.33408999999999994  0.70563  1.0000
  Cl  Cl1       1.0  0.27677  0.8602699999999999  0.20594  1.0000
  Cl  Cl2       1.0  0.21114999999999992  0.26505  0.08162  1.0000
  Cl  Cl3       1.0  0.6852999999999999  0.06288  0.9749699999999998  1.0000
  Cl  Cl4       1.0  0.8401399999999997  0.86859  0.29414  1.0000
  Cl  Cl5       1.0  0.5284499999999999  0.26348  0.4161999999999999  1.0000
  Cl  Cl6       1.0  0.26845  0.06851  0.52719  1.0000
  Cl  Cl7       1.0  0.7277499999999999  0.13045  0.7954299999999999  1.0000
  Cl  Cl8       1.0  0.7961799999999999  0.7345199999999998  0.91811  1.0000
  Cl  Cl9       1.0  0.3175799999999998  0.9393099999999999  0.02482  1.0000
  Cl  Cl10      1.0  0.14910999999999996  0.13810999999999998  0.7050999999999997  1.0000
  Cl  Cl11      1.0  0.4839199999999998  0.74365  0.58747  1.0000
  Cl  Cl12      1.0  0.7600999999999998  0.9392599999999999  0.47702  1.0000
