data_image0
_chemical_formula_structural       Mn12H48C48O48
_chemical_formula_sum              "Mn12 H48 C48 O48"
_cell_length_a       10.45561
_cell_length_b       12.56653
_cell_length_c       15.79558
_cell_angle_alpha    90.02222
_cell_angle_beta     89.92169000000001
_cell_angle_gamma    90.08163

_space_group_name_H-M_alt    "P 1"
_space_group_IT_number       1

loop_
  _space_group_symop_operation_xyz
  'x, y, z'

loop_
  _atom_site_type_symbol
  _atom_site_label
  _atom_site_symmetry_multiplicity
  _atom_site_fract_x
  _atom_site_fract_y
  _atom_site_fract_z
  _atom_site_occupancy
  Mn  Mn1       1.0  0.03772  0.25032  0.63052  1.0000
  Mn  Mn2       1.0  0.31806  0.25137  0.7107199999999998  1.0000
  Mn  Mn3       1.0  0.46117  0.74921  0.13098  1.0000
  Mn  Mn4       1.0  0.18231  0.7494300000000002  0.21117  1.0000
  Mn  Mn5       1.0  0.96201  0.7484300000000003  0.37006  1.0000
  Mn  Mn6       1.0  0.68333  0.74767  0.28795  1.0000
  Mn  Mn7       1.0  0.53912  0.25089  0.86878  1.0000
  Mn  Mn8       1.0  0.81838  0.25035  0.7891099999999998  1.0000
  Mn  Mn9       1.0  0.99791  0.99528  0.50039  1.0000
  Mn  Mn10      1.0  0.50008  7e-05  0.00013  1.0000
  Mn  Mn11      1.0  0.00079  0.5017  0.49844  1.0000
  Mn  Mn12      1.0  0.50012  0.5  8.999999999999998e-05  1.0000
  H   H1        1.0  0.38385  0.57024  0.59991  1.0000
  H   H2        1.0  0.4219800000000001  0.45518  0.66224  1.0000
  H   H3        1.0  0.4516899999999999  0.4553100000000001  0.55218  1.0000
  H   H4        1.0  0.69753  0.51293  0.63172  1.0000
  H   H5        1.0  0.68889  0.45143  0.73386  1.0000
  H   H6        1.0  0.75914  0.58037  0.72093  1.0000
  H   H7        1.0  0.11619  0.4298200000000001  0.10027  1.0000
  H   H8        1.0  0.07678  0.54499  0.16243  1.0000
  H   H9        1.0  0.04886  0.54475  0.05221  1.0000
  H   H10       1.0  0.80241  0.4869400000000001  0.13127  1.0000
  H   H11       1.0  0.81048  0.54855  0.23329  1.0000
  H   H12       1.0  0.74104  0.4193  0.22066999999999998  1.0000
  H   H13       1.0  0.61984  0.06872  0.3994799999999999  1.0000
  H   H14       1.0  0.57856  0.95411  0.33724  1.0000
  H   H15       1.0  0.54808  0.95527  0.44735  1.0000
  H   H16       1.0  0.3009  0.011900000000000003  0.3685599999999999  1.0000
  H   H17       1.0  0.31166  0.95137  0.26594  1.0000
  H   H18       1.0  0.23793  0.07883  0.27952  1.0000
  H   H19       1.0  0.8809  0.9300900000000001  0.90025  1.0000
  H   H20       1.0  0.9221499999999999  0.04442  0.83776  1.0000
  H   H21       1.0  0.9513299999999999  0.0443  0.94793  1.0000
  H   H22       1.0  0.19879  0.9881700000000001  0.86873  1.0000
  H   H23       1.0  0.18915  0.048600000000000004  0.76611  1.0000
  H   H24       1.0  0.26263  0.92113  0.77985  1.0000
  H   H25       1.0  0.61581  0.43035  0.39891  1.0000
  H   H26       1.0  0.577  0.54562  0.33721  1.0000
  H   H27       1.0  0.54736  0.54462  0.44726  1.0000
  H   H28       1.0  0.3022  0.4870600000000001  0.36841  1.0000
  H   H29       1.0  0.3118  0.54824  0.26623  1.0000
  H   H30       1.0  0.24160999999999996  0.4191  0.27902  1.0000
  H   H31       1.0  0.88366  0.57034  0.89994  1.0000
  H   H32       1.0  0.9230799999999999  0.45538  0.83765  1.0000
  H   H33       1.0  0.9511899999999999  0.4555100000000001  0.94795  1.0000
  H   H34       1.0  0.19754  0.51314  0.8687  1.0000
  H   H35       1.0  0.18946  0.4519000000000001  0.76652  1.0000
  H   H36       1.0  0.25918  0.58098  0.77952  1.0000
  H   H37       1.0  0.38067  0.93046  0.5994  1.0000
  H   H38       1.0  0.42023999999999995  0.04496000000000001  0.66189  1.0000
  H   H39       1.0  0.45142  0.044740000000000016  0.55214  1.0000
  H   H40       1.0  0.6976200000000001  0.98719  0.6318399999999997  1.0000
  H   H41       1.0  0.6888  0.04866  0.73418  1.0000
  H   H42       1.0  0.75922  0.9197200000000001  0.7209699999999998  1.0000
  H   H43       1.0  0.1191  0.06957  0.10001  1.0000
  H   H44       1.0  0.07773  0.9550600000000001  0.16239  1.0000
  H   H45       1.0  0.048760000000000005  0.9553300000000002  0.05224  1.0000
  H   H46       1.0  0.80116  0.01182  0.13126  1.0000
  H   H47       1.0  0.81087  0.9509400000000002  0.23363  1.0000
  H   H48       1.0  0.73763  0.07868  0.22033  1.0000
  C   C1        1.0  0.2542  0.4393  0.58331  1.0000
  C   C2        1.0  0.3855700000000001  0.48309000000000013  0.60155  1.0000
  C   C3        1.0  0.87588  0.45363  0.67219  1.0000
  C   C4        1.0  0.74727  0.50134  0.69238  1.0000
  C   C5        1.0  0.24561  0.5608200000000001  0.08415  1.0000
  C   C6        1.0  0.11411  0.51697  0.10194  1.0000
  C   C7        1.0  0.62414  0.54545  0.17218999999999995  1.0000
  C   C8        1.0  0.75263  0.49822  0.192  1.0000
  C   C9        1.0  0.74561  0.93644  0.41636  1.0000
  C   C10       1.0  0.61527  0.9815900000000001  0.39802  1.0000
  C   C11       1.0  0.12368  0.9512700000000002  0.3271  1.0000
  C   C12       1.0  0.252  0.9999  0.30761  1.0000
  C   C13       1.0  0.75433  0.06222  0.9166699999999998  1.0000
  C   C14       1.0  0.8849000000000001  0.017250000000000005  0.8985099999999998  1.0000
  C   C15       1.0  0.37598  0.04904  0.82769  1.0000
  C   C16       1.0  0.2482  5.999999999999997e-05  0.8079  1.0000
  C   C17       1.0  0.74537  0.56077  0.4159099999999999  1.0000
  C   C18       1.0  0.61364  0.5175  0.39777  1.0000
  C   C19       1.0  0.12428  0.5453200000000001  0.32652  1.0000
  C   C20       1.0  0.2532  0.49818  0.30742999999999987  1.0000
  C   C21       1.0  0.75428  0.43931  0.9160499999999999  1.0000
  C   C22       1.0  0.88582  0.48318  0.8982399999999998  1.0000
  C   C23       1.0  0.37573  0.4543  0.8276999999999999  1.0000
  C   C24       1.0  0.24738  0.50195  0.80797  1.0000
  C   C25       1.0  0.25296  0.0625  0.5826  1.0000
  C   C26       1.0  0.38381999999999994  0.01763  0.60095  1.0000
  C   C27       1.0  0.87575  0.04639  0.67265  1.0000
  C   C28       1.0  0.74701  0.99872  0.6926599999999998  1.0000
  C   C29       1.0  0.24565  0.93746  0.08359  1.0000
  C   C30       1.0  0.11508999999999998  0.98241  0.10171999999999999  1.0000
  C   C31       1.0  0.62384  0.9511100000000001  0.17226999999999995  1.0000
  C   C32       1.0  0.75179  0.9998000000000001  0.1921  1.0000
  C   C33       1.0  0.9472399999999999  0.2487  0.47173  1.0000
  C   C34       1.0  0.89356  0.2497  0.38898  1.0000
  C   C35       1.0  0.09554000000000004  0.24956  0.83939  1.0000
  C   C36       1.0  0.149  0.25051  0.92099  1.0000
  C   C37       1.0  0.54851  0.75022  0.97175  1.0000
  C   C38       1.0  0.60559  0.75072  0.88989  1.0000
  C   C39       1.0  0.40482999999999997  0.75025  0.3395  1.0000
  C   C40       1.0  0.35278  0.7493500000000002  0.42157  1.0000
  C   C41       1.0  0.05192999999999999  0.75006  0.52809  1.0000
  C   C42       1.0  0.10476999999999999  0.75012  0.60852  1.0000
  C   C43       1.0  0.90617  0.75068  0.15721  1.0000
  C   C44       1.0  0.83666  0.7504700000000002  0.08013  1.0000
  C   C45       1.0  0.45254  0.24982  0.028269999999999993  1.0000
  C   C46       1.0  0.39689  0.24933  0.11058  1.0000
  C   C47       1.0  0.59568  0.24958  0.66027  1.0000
  C   C48       1.0  0.6491  0.25052  0.57859  1.0000
  O   O1        1.0  0.21293  0.3592200000000001  0.6269699999999998  1.0000
  O   O2        1.0  0.95698  0.50688  0.63148  1.0000
  O   O3        1.0  0.19195  0.48264  0.52408  1.0000
  O   O4        1.0  0.89895  0.35542  0.69596  1.0000
  O   O5        1.0  0.97205  0.16124  0.51251  1.0000
  O   O6        1.0  0.28653  0.64081  0.12818999999999994  1.0000
  O   O7        1.0  0.54313  0.49179000000000006  0.13166  1.0000
  O   O8        1.0  0.30853  0.51735  0.02513  1.0000
  O   O9        1.0  0.60008  0.64322  0.19585  1.0000
  O   O10       1.0  0.52161  0.8367900000000001  0.013259999999999996  1.0000
  O   O11       1.0  0.7874800000000001  0.85723  0.37239  1.0000
  O   O12       1.0  0.04177  0.004839999999999999  0.3667299999999999  1.0000
  O   O13       1.0  0.8073000000000001  0.97957  0.47649  1.0000
  O   O14       1.0  0.10125000000000002  0.85276  0.30387  1.0000
  O   O15       1.0  0.01675  0.6646300000000002  0.4854499999999999  1.0000
  O   O16       1.0  0.7131  0.1416  0.87229  1.0000
  O   O17       1.0  0.4575  0.99568  0.8676  1.0000
  O   O18       1.0  0.69211  0.01971  0.97654  1.0000
  O   O19       1.0  0.39868  0.14738  0.8043999999999998  1.0000
  O   O20       1.0  0.47918  0.33607000000000004  0.98612  1.0000
  O   O21       1.0  0.7869399999999999  0.6405300000000003  0.37167  1.0000
  O   O22       1.0  0.04257  0.49141000000000007  0.36643  1.0000
  O   O23       1.0  0.8077  0.51669  0.47462  1.0000
  O   O24       1.0  0.10089  0.6433800000000001  0.30344  1.0000
  O   O25       1.0  0.03594  0.8381400000000002  0.48365  1.0000
  O   O26       1.0  0.71336  0.35940000000000005  0.87196  1.0000
  O   O27       1.0  0.45680999999999994  0.50781  0.8683099999999998  1.0000
  O   O28       1.0  0.69159  0.4826900000000001  0.97517  1.0000
  O   O29       1.0  0.39931  0.35638  0.80399  1.0000
  O   O30       1.0  0.4782699999999999  0.16329  0.98627  1.0000
  O   O31       1.0  0.21252999999999997  0.14253  0.62666  1.0000
  O   O32       1.0  0.9574999999999998  0.99286  0.63277  1.0000
  O   O33       1.0  0.18965  0.01989  0.52334  1.0000
  O   O34       1.0  0.8985300000000002  0.14476  0.69543  1.0000
  O   O35       1.0  0.97359  0.33528  0.51346  1.0000
  O   O36       1.0  0.28683  0.8579300000000002  0.12789  1.0000
  O   O37       1.0  0.5424  0.004760000000000001  0.13245  1.0000
  O   O38       1.0  0.30807  0.98013  0.023869999999999992  1.0000
  O   O39       1.0  0.60073  0.85289  0.19554  1.0000
  O   O40       1.0  0.52065  0.66393  0.013399999999999997  1.0000
  O   O41       1.0  0.13185  0.24869  0.7624399999999999  1.0000
  O   O42       1.0  0.976  0.24848  0.86529  1.0000
  O   O43       1.0  0.36692  0.75116  0.26276  1.0000
  O   O44       1.0  0.52492  0.7516  0.36364  1.0000
  O   O45       1.0  0.8687499999999999  0.7511400000000003  0.23464  1.0000
  O   O46       1.0  0.02577  0.75112  0.13377999999999995  1.0000
  O   O47       1.0  0.63224  0.24862  0.73713  1.0000
  O   O48       1.0  0.47607999999999995  0.24851  0.63468  1.0000
