data_image0
_chemical_formula_structural       Nd4Cu6H60C48N12O48
_chemical_formula_sum              "Nd4 Cu6 H60 C48 N12 O48"
_cell_length_a       13.43825
_cell_length_b       13.43988
_cell_length_c       14.80058
_cell_angle_alpha    89.98193
_cell_angle_beta     90.02434
_cell_angle_gamma    120.1631

_space_group_name_H-M_alt    "P 1"
_space_group_IT_number       1

loop_
  _space_group_symop_operation_xyz
  'x, y, z'

loop_
  _atom_site_type_symbol
  _atom_site_label
  _atom_site_symmetry_multiplicity
  _atom_site_fract_x
  _atom_site_fract_y
  _atom_site_fract_z
  _atom_site_occupancy
  Nd  Nd1       1.0  0.6666499999999997  0.33368999999999993  0.33373000000000014  1.0000
  Nd  Nd2       1.0  0.33297  0.66651  0.16794000000000006  1.0000
  Nd  Nd3       1.0  0.33285  0.66576  0.66787  1.0000
  Nd  Nd4       1.0  0.66664  0.33329  0.83381  1.0000
  Cu  Cu1       1.0  0.5  0.9999699999999999  0.5002200000000001  1.0000
  Cu  Cu2       1.0  2.999999999997774e-05  0.50001  0.50017  1.0000
  Cu  Cu3       1.0  0.5  0.50006  0.5002200000000001  1.0000
  Cu  Cu4       1.0  1.9999999999930084e-05  0.4999399999999999  0.00035  1.0000
  Cu  Cu5       1.0  0.4998899999999999  0.9999999999999999  0.00034000000000000013  1.0000
  Cu  Cu6       1.0  0.50006  0.50013  0.00032  1.0000
  H   H1        1.0  0.3209099999999999  0.96146  0.5814600000000001  1.0000
  H   H2        1.0  0.30596999999999996  0.13742  0.5243  1.0000
  H   H3        1.0  0.28788  0.02827  0.4473300000000001  1.0000
  H   H4        1.0  0.39447  0.07974  0.7014500000000002  1.0000
  H   H5        1.0  0.4621199999999998  0.20090999999999998  0.6313900000000002  1.0000
  H   H6        1.0  0.03803999999999996  0.3594  0.58143  1.0000
  H   H7        1.0  0.86159  0.16801  0.52404  1.0000
  H   H8        1.0  0.97105  0.25982  0.44720000000000004  1.0000
  H   H9        1.0  0.92  0.31461  0.7017300000000002  1.0000
  H   H10       1.0  0.79862  0.2602  0.6317  1.0000
  H   H11       1.0  0.6413399999999998  0.67938  0.5815500000000002  1.0000
  H   H12       1.0  0.8324499999999996  0.6946099999999997  0.52411  1.0000
  H   H13       1.0  0.74073  0.7119499999999999  0.44708  1.0000
  H   H14       1.0  0.6854299999999999  0.60551  0.70172  1.0000
  H   H15       1.0  0.7393699999999999  0.5383799999999999  0.63159  1.0000
  H   H16       1.0  0.9615899999999998  0.32098999999999994  0.9188500000000001  1.0000
  H   H17       1.0  0.13772999999999996  0.3063199999999999  0.97585  1.0000
  H   H18       1.0  0.02851  0.28826  0.05294000000000001  1.0000
  H   H19       1.0  0.07954999999999995  0.39434  0.79871  1.0000
  H   H20       1.0  0.20082999999999998  0.4621  0.8687100000000002  1.0000
  H   H21       1.0  0.35937  0.03785  0.9187100000000002  1.0000
  H   H22       1.0  0.16793999999999992  0.8613799999999998  0.9759  1.0000
  H   H23       1.0  0.25988999999999984  0.9709599999999999  0.05286000000000001  1.0000
  H   H24       1.0  0.3147399999999998  0.9199599999999998  0.79832  1.0000
  H   H25       1.0  0.26032  0.79859  0.8682900000000002  1.0000
  H   H26       1.0  0.6791999999999998  0.64142  0.91874  1.0000
  H   H27       1.0  0.6943099999999998  0.8322899999999999  0.97607  1.0000
  H   H28       1.0  0.71177  0.7407799999999999  0.0531  1.0000
  H   H29       1.0  0.6054799999999997  0.6853599999999999  0.7984600000000002  1.0000
  H   H30       1.0  0.5383099999999997  0.7393  0.8684800000000003  1.0000
  H   H31       1.0  0.67896  0.03837  0.41878  1.0000
  H   H32       1.0  0.69381  0.86231  0.4757600000000001  1.0000
  H   H33       1.0  0.7119  0.97154  0.5528000000000002  1.0000
  H   H34       1.0  0.60551  0.9202599999999997  0.29864  1.0000
  H   H35       1.0  0.5378299999999998  0.7990999999999999  0.3686300000000001  1.0000
  H   H36       1.0  0.96217  0.64061  0.41885  1.0000
  H   H37       1.0  0.13862999999999992  0.8319799999999999  0.4760600000000001  1.0000
  H   H38       1.0  0.02922  0.74015  0.55294  1.0000
  H   H39       1.0  0.07994999999999997  0.68534  0.2984000000000001  1.0000
  H   H40       1.0  0.20145999999999994  0.73977  0.3683000000000001  1.0000
  H   H41       1.0  0.35858  0.32077999999999995  0.41868  1.0000
  H   H42       1.0  0.16763  0.30571  0.47602  1.0000
  H   H43       1.0  0.25937  0.28837  0.55304  1.0000
  H   H44       1.0  0.31467  0.39455999999999997  0.29833  1.0000
  H   H45       1.0  0.2607  0.46171  0.36841  1.0000
  H   H46       1.0  0.03832999999999999  0.67891  0.08132000000000003  1.0000
  H   H47       1.0  0.8622999999999997  0.69373  0.024210000000000006  1.0000
  H   H48       1.0  0.9715799999999999  0.7117699999999998  0.9471800000000002  1.0000
  H   H49       1.0  0.9203299999999998  0.60573  0.20141  1.0000
  H   H50       1.0  0.7990399999999998  0.53799  0.13140000000000002  1.0000
  H   H51       1.0  0.6405499999999997  0.9621499999999998  0.08144000000000003  1.0000
  H   H52       1.0  0.83201  0.13855  0.02416  1.0000
  H   H53       1.0  0.74007  0.028959999999999996  0.94728  1.0000
  H   H54       1.0  0.68546  0.08012999999999999  0.20179  1.0000
  H   H55       1.0  0.73996  0.20155999999999996  0.13184  1.0000
  H   H56       1.0  0.32097  0.35862999999999995  0.08146  1.0000
  H   H57       1.0  0.30572999999999995  0.16771  0.024030000000000006  1.0000
  H   H58       1.0  0.28831999999999997  0.25937999999999994  0.94706  1.0000
  H   H59       1.0  0.39453999999999995  0.3144799999999999  0.20169000000000006  1.0000
  H   H60       1.0  0.46164  0.26046  0.13171  1.0000
  C   C1        1.0  0.44811  0.18192999999999998  0.43402  1.0000
  C   C2        1.0  0.3493799999999999  0.09499999999999999  0.49334  1.0000
  C   C3        1.0  0.4473999999999999  0.11330999999999997  0.6402900000000002  1.0000
  C   C4        1.0  0.56432  0.12424999999999999  0.65861  1.0000
  C   C5        1.0  0.8177399999999999  0.26606  0.4339700000000001  1.0000
  C   C6        1.0  0.90436  0.25418  0.4932900000000001  1.0000
  C   C7        1.0  0.8862599999999998  0.3335199999999999  0.64049  1.0000
  C   C8        1.0  0.8756099999999999  0.43958  0.6587100000000002  1.0000
  C   C9        1.0  0.7339899999999999  0.5520699999999998  0.4342700000000001  1.0000
  C   C10       1.0  0.7462499999999999  0.6509599999999999  0.49333  1.0000
  C   C11       1.0  0.66642  0.5529  0.64043  1.0000
  C   C12       1.0  0.56025  0.43566  0.65857  1.0000
  C   C13       1.0  0.18207999999999996  0.4481899999999999  0.06623  1.0000
  C   C14       1.0  0.09521  0.34956  0.0068600000000000015  1.0000
  C   C15       1.0  0.11317999999999999  0.44730999999999993  0.8598800000000002  1.0000
  C   C16       1.0  0.12392999999999996  0.5640699999999998  0.8417000000000002  1.0000
  C   C17       1.0  0.2661199999999999  0.8177299999999998  0.06624  1.0000
  C   C18       1.0  0.25407999999999986  0.9042  0.00677  1.0000
  C   C19       1.0  0.33367  0.8862299999999997  0.85957  1.0000
  C   C20       1.0  0.43985999999999986  0.87569  0.84149  1.0000
  C   C21       1.0  0.55192  0.73434  0.06633  1.0000
  C   C22       1.0  0.65064  0.7462699999999999  0.007020000000000002  1.0000
  C   C23       1.0  0.5529099999999999  0.6663799999999999  0.8597900000000002  1.0000
  C   C24       1.0  0.4358999999999999  0.56006  0.8418200000000001  1.0000
  C   C25       1.0  0.5518  0.8179  0.5663400000000002  1.0000
  C   C26       1.0  0.65046  0.90474  0.5068200000000002  1.0000
  C   C27       1.0  0.5525899999999998  0.8867199999999997  0.35982  1.0000
  C   C28       1.0  0.43577999999999983  0.8759499999999998  0.3415900000000001  1.0000
  C   C29       1.0  0.1825899999999999  0.7341899999999999  0.5663600000000002  1.0000
  C   C30       1.0  0.09595999999999993  0.74589  0.5069  1.0000
  C   C31       1.0  0.11375999999999993  0.6664599999999999  0.35963  1.0000
  C   C32       1.0  0.12413999999999993  0.5602499999999999  0.34155000000000013  1.0000
  C   C33       1.0  0.26586  0.44805  0.56607  1.0000
  C   C34       1.0  0.25377  0.34934  0.50685  1.0000
  C   C35       1.0  0.3336499999999999  0.44715999999999995  0.35964  1.0000
  C   C36       1.0  0.4398799999999998  0.5642999999999999  0.34161  1.0000
  C   C37       1.0  0.8181  0.5519  0.9339200000000002  1.0000
  C   C38       1.0  0.9048599999999998  0.65049  0.9932600000000003  1.0000
  C   C39       1.0  0.8866399999999995  0.5526699999999999  0.1403  1.0000
  C   C40       1.0  0.8756599999999999  0.4357699999999999  0.15867  1.0000
  C   C41       1.0  0.7338699999999998  0.18210999999999997  0.9339  1.0000
  C   C42       1.0  0.7458499999999998  0.09570999999999999  0.99335  1.0000
  C   C43       1.0  0.66656  0.11394  0.14059000000000005  1.0000
  C   C44       1.0  0.56052  0.12474999999999997  0.15877  1.0000
  C   C45       1.0  0.44796  0.26569  0.93388  1.0000
  C   C46       1.0  0.34935999999999995  0.25378  0.9931500000000002  1.0000
  C   C47       1.0  0.44717  0.33347  0.1404  1.0000
  C   C48       1.0  0.56429  0.43971999999999994  0.15851  1.0000
  N   N1        1.0  0.3880399999999999  0.04076  0.5606  1.0000
  N   N2        1.0  0.95877  0.3470899999999999  0.56073  1.0000
  N   N3        1.0  0.65331  0.6123  0.56076  1.0000
  N   N4        1.0  0.04083999999999996  0.38815999999999995  0.93966  1.0000
  N   N5        1.0  0.3470499999999999  0.95861  0.9393900000000002  1.0000
  N   N6        1.0  0.61212  0.6533199999999999  0.93957  1.0000
  N   N7        1.0  0.61183  0.95908  0.43959  1.0000
  N   N8        1.0  0.04146999999999995  0.6529599999999999  0.4394800000000001  1.0000
  N   N9        1.0  0.34673  0.38793  0.43942  1.0000
  N   N10       1.0  0.9590599999999997  0.61178  0.06052  1.0000
  N   N11       1.0  0.65294  0.041449999999999994  0.06079  1.0000
  N   N12       1.0  0.38801999999999987  0.34668999999999994  0.06064000000000001  1.0000
  O   O1        1.0  0.54461  0.18472  0.4407300000000001  1.0000
  O   O2        1.0  0.43155  0.24485  0.37993  1.0000
  O   O3        1.0  0.6033999999999999  0.07894  0.60342  1.0000
  O   O4        1.0  0.61944  0.17982  0.7277000000000002  1.0000
  O   O5        1.0  0.8153399999999998  0.3599299999999999  0.4408400000000001  1.0000
  O   O6        1.0  0.75472  0.18655  0.37969000000000014  1.0000
  O   O7        1.0  0.9214699999999998  0.5242299999999999  0.6035600000000002  1.0000
  O   O8        1.0  0.8200899999999998  0.43926999999999994  0.7277000000000002  1.0000
  O   O9        1.0  0.6397499999999999  0.4556599999999999  0.44094  1.0000
  O   O10       1.0  0.81358  0.56831  0.38034  1.0000
  O   O11       1.0  0.4755699999999999  0.39652999999999994  0.60344  1.0000
  O   O12       1.0  0.56073  0.38041  0.7275300000000002  1.0000
  O   O13       1.0  0.18477999999999994  0.5445999999999999  0.05929  1.0000
  O   O14       1.0  0.24474999999999988  0.4316299999999999  0.12066000000000003  1.0000
  O   O15       1.0  0.07870000000000002  0.6031499999999999  0.89683  1.0000
  O   O16       1.0  0.17943  0.61921  0.7725100000000001  1.0000
  O   O17       1.0  0.3599099999999999  0.8152599999999998  0.05937000000000001  1.0000
  O   O18       1.0  0.18665  0.75502  0.12072  1.0000
  O   O19       1.0  0.5244  0.92163  0.89671  1.0000
  O   O20       1.0  0.4397299999999998  0.8201499999999998  0.77254  1.0000
  O   O21       1.0  0.45535999999999993  0.6403199999999999  0.05945000000000002  1.0000
  O   O22       1.0  0.56887  0.81395  0.12055000000000003  1.0000
  O   O23       1.0  0.39685  0.47553  0.8969900000000002  1.0000
  O   O24       1.0  0.3805099999999999  0.5602199999999999  0.77274  1.0000
  O   O25       1.0  0.4552999999999998  0.8150499999999999  0.5595600000000002  1.0000
  O   O26       1.0  0.56873  0.75537  0.62066  1.0000
  O   O27       1.0  0.39676999999999985  0.9212799999999999  0.39673000000000014  1.0000
  O   O28       1.0  0.3805699999999998  0.8204099999999998  0.27246  1.0000
  O   O29       1.0  0.18514999999999998  0.64042  0.55931  1.0000
  O   O30       1.0  0.24512  0.81358  0.62096  1.0000
  O   O31       1.0  0.07835999999999992  0.47566999999999987  0.39661000000000013  1.0000
  O   O32       1.0  0.17955999999999997  0.5604  0.27249  1.0000
  O   O33       1.0  0.35998  0.54453  0.55931  1.0000
  O   O34       1.0  0.18630999999999992  0.4315099999999999  0.62024  1.0000
  O   O35       1.0  0.52448  0.6033899999999999  0.39673000000000014  1.0000
  O   O36       1.0  0.43951  0.61961  0.27262  1.0000
  O   O37       1.0  0.8155  0.45552999999999993  0.9408700000000002  1.0000
  O   O38       1.0  0.7552199999999998  0.56825  0.8795800000000003  1.0000
  O   O39       1.0  0.92088  0.39650999999999986  0.10358  1.0000
  O   O40       1.0  0.82014  0.38083999999999996  0.22782000000000005  1.0000
  O   O41       1.0  0.64001  0.18449999999999997  0.9408500000000002  1.0000
  O   O42       1.0  0.8132399999999997  0.245  0.87946  1.0000
  O   O43       1.0  0.47582  0.07906  0.10369000000000002  1.0000
  O   O44       1.0  0.5610099999999999  0.18041999999999997  0.22775  1.0000
  O   O45       1.0  0.54452  0.35977  0.9408200000000001  1.0000
  O   O46       1.0  0.4313  0.18618  0.8796900000000002  1.0000
  O   O47       1.0  0.6035299999999999  0.52429  0.10329000000000003  1.0000
  O   O48       1.0  0.6194699999999999  0.43950999999999996  0.22761  1.0000
