data_image0
_chemical_formula_structural       Cd8H36C76N28O24
_chemical_formula_sum              "Cd8 H36 C76 N28 O24"
_cell_length_a       12.89527
_cell_length_b       12.89245
_cell_length_c       20.94636
_cell_angle_alpha    83.99773
_cell_angle_beta     84.04816
_cell_angle_gamma    69.95997

_space_group_name_H-M_alt    "P 1"
_space_group_IT_number       1

loop_
  _space_group_symop_operation_xyz
  'x, y, z'

loop_
  _atom_site_type_symbol
  _atom_site_label
  _atom_site_symmetry_multiplicity
  _atom_site_fract_x
  _atom_site_fract_y
  _atom_site_fract_z
  _atom_site_occupancy
  Cd  Cd1       1.0  0.9269699999999998  0.9301200000000002  0.8219399999999999  1.0000
  Cd  Cd2       1.0  0.44606000000000007  0.44276  0.90719  1.0000
  Cd  Cd3       1.0  0.06923000000000001  0.07216  0.6784  1.0000
  Cd  Cd4       1.0  0.55756  0.55407  0.59264  1.0000
  Cd  Cd5       1.0  0.07302  0.06988000000000003  0.17807  1.0000
  Cd  Cd6       1.0  0.5539300000000001  0.5572400000000001  0.09281  1.0000
  Cd  Cd7       1.0  0.9307700000000001  0.92783  0.32161  1.0000
  Cd  Cd8       1.0  0.44243  0.44593  0.40736  1.0000
  H   H1        1.0  0.85346  0.12802000000000002  0.9014999999999999  1.0000
  H   H2        1.0  0.5373499999999999  0.27811  0.76992  1.0000
  H   H3        1.0  0.69718  0.10260000000000004  0.74286  1.0000
  H   H4        1.0  0.7760400000000002  0.7590800000000001  0.69548  1.0000
  H   H5        1.0  0.8979500000000002  0.16882000000000005  0.08312  1.0000
  H   H6        1.0  0.95064  0.93114  0.56162  1.0000
  H   H7        1.0  0.7765399999999999  0.7400700000000002  0.49144  1.0000
  H   H8        1.0  0.8940900000000002  0.29706  0.25769  1.0000
  H   H9        1.0  0.72044  0.45873  0.23005999999999996  1.0000
  H   H10       1.0  0.8718700000000001  0.14663000000000007  0.5986199999999999  1.0000
  H   H11       1.0  0.7218700000000001  0.46268  0.73004  1.0000
  H   H12       1.0  0.8974  0.30282  0.75719  1.0000
  H   H13       1.0  0.24109999999999998  0.22425000000000006  0.8037499999999997  1.0000
  H   H14       1.0  0.8312400000000001  0.10211000000000006  0.41685999999999995  1.0000
  H   H15       1.0  0.06885  0.049380000000000014  0.9374  1.0000
  H   H16       1.0  0.2597  0.22321000000000005  0.00789  1.0000
  H   H17       1.0  0.70276  0.10619  0.24231  1.0000
  H   H18       1.0  0.54104  0.27971000000000007  0.26994  1.0000
  H   H19       1.0  0.14652999999999997  0.8719800000000001  0.09850999999999999  1.0000
  H   H20       1.0  0.46264  0.72189  0.23007999999999995  1.0000
  H   H21       1.0  0.30281999999999987  0.8973900000000002  0.2571399999999999  1.0000
  H   H22       1.0  0.22394999999999987  0.24092000000000002  0.30452  1.0000
  H   H23       1.0  0.10203999999999998  0.83117  0.9168799999999999  1.0000
  H   H24       1.0  0.04935  0.06885000000000002  0.43838999999999995  1.0000
  H   H25       1.0  0.22345000000000004  0.25992  0.50856  1.0000
  H   H26       1.0  0.10589999999999995  0.7029400000000001  0.74231  1.0000
  H   H27       1.0  0.27955  0.54127  0.76995  1.0000
  H   H28       1.0  0.12811999999999993  0.8533600000000002  0.40137999999999996  1.0000
  H   H29       1.0  0.27813  0.53732  0.26997  1.0000
  H   H30       1.0  0.10258999999999993  0.6971800000000002  0.24281999999999998  1.0000
  H   H31       1.0  0.7589000000000001  0.77575  0.19625  1.0000
  H   H32       1.0  0.16874999999999996  0.8978900000000002  0.58314  1.0000
  H   H33       1.0  0.9311399999999997  0.9506100000000002  0.06261  1.0000
  H   H34       1.0  0.74029  0.77679  0.9921199999999999  1.0000
  H   H35       1.0  0.29723  0.8938  0.7576899999999999  1.0000
  H   H36       1.0  0.45895  0.7202900000000001  0.7300599999999999  1.0000
  C   C1        1.0  0.78429  0.16287000000000007  0.8710299999999999  1.0000
  C   C2        1.0  0.60959  0.24557000000000004  0.7981  1.0000
  C   C3        1.0  0.6966700000000001  0.1492  0.7834599999999999  1.0000
  C   C4        1.0  0.6950800000000003  0.25766  0.8868  1.0000
  C   C5        1.0  0.68993  0.30652  0.94685  1.0000
  C   C6        1.0  0.8018000000000002  0.78004  0.64615  1.0000
  C   C7        1.0  0.9014399999999998  0.88904  0.69089  1.0000
  C   C8        1.0  0.8681800000000001  0.84781  0.63452  1.0000
  C   C9        1.0  0.8571700000000002  0.23256  0.1166  1.0000
  C   C10       1.0  0.7614  0.32122000000000006  0.10151999999999999  1.0000
  C   C11       1.0  0.71598  0.33097  0.03982999999999999  1.0000
  C   C12       1.0  0.6951300000000001  0.67144  0.6042199999999999  1.0000
  C   C13       1.0  0.8668299999999999  0.83851  0.51948  1.0000
  C   C14       1.0  0.9004899999999997  0.87749  0.57108  1.0000
  C   C15       1.0  0.8021099999999999  0.7700100000000001  0.53162  1.0000
  C   C16       1.0  0.76859  0.7409000000000002  0.59471  1.0000
  C   C17       1.0  0.8546500000000002  0.30441  0.21308  1.0000
  C   C18       1.0  0.75876  0.39218  0.19826999999999997  1.0000
  C   C19       1.0  0.8956400000000002  0.87055  0.4508499999999999  1.0000
  C   C20       1.0  0.8369999999999999  0.21578000000000003  0.62905  1.0000
  C   C21       1.0  0.75438  0.39046000000000003  0.70189  1.0000
  C   C22       1.0  0.8507200000000003  0.3033600000000001  0.71659  1.0000
  C   C23       1.0  0.7422200000000001  0.305  0.61321  1.0000
  C   C24       1.0  0.6933999999999999  0.31012000000000006  0.55314  1.0000
  C   C25       1.0  0.22001000000000007  0.19826000000000008  0.8530199999999998  1.0000
  C   C26       1.0  0.11103000000000003  0.09894  0.8081199999999998  1.0000
  C   C27       1.0  0.15225000000000005  0.13189000000000003  0.8645399999999999  1.0000
  C   C28       1.0  0.76742  0.14297000000000004  0.3834099999999999  1.0000
  C   C29       1.0  0.67872  0.23863000000000006  0.3985  1.0000
  C   C30       1.0  0.66898  0.28402  0.46017  1.0000
  C   C31       1.0  0.32852  0.3049  0.89464  1.0000
  C   C32       1.0  0.16139999999999996  0.13311000000000003  0.97957  1.0000
  C   C33       1.0  0.12251999999999996  0.09950000000000003  0.92794  1.0000
  C   C34       1.0  0.22991  0.19783999999999996  0.96758  1.0000
  C   C35       1.0  0.2590700000000001  0.23139999999999997  0.9044899999999999  1.0000
  C   C36       1.0  0.69544  0.14561  0.28692  1.0000
  C   C37       1.0  0.60764  0.24139000000000005  0.30174  1.0000
  C   C38       1.0  0.12911  0.10408000000000003  0.048089999999999994  1.0000
  C   C39       1.0  0.21569999999999995  0.8371300000000003  0.12896999999999997  1.0000
  C   C40       1.0  0.3904000000000001  0.75443  0.20190999999999998  1.0000
  C   C41       1.0  0.3033199999999999  0.8508000000000001  0.21653999999999998  1.0000
  C   C42       1.0  0.30491000000000007  0.74234  0.1132  1.0000
  C   C43       1.0  0.31007000000000007  0.6934800000000001  0.053149999999999996  1.0000
  C   C44       1.0  0.1981999999999999  0.21995000000000006  0.35386  1.0000
  C   C45       1.0  0.09855999999999995  0.11096000000000003  0.30911  1.0000
  C   C46       1.0  0.13180999999999998  0.15219000000000002  0.36548  1.0000
  C   C47       1.0  0.14283  0.7674400000000001  0.88341  1.0000
  C   C48       1.0  0.2385899999999999  0.67877  0.8984899999999999  1.0000
  C   C49       1.0  0.2840099999999999  0.6690300000000002  0.96017  1.0000
  C   C50       1.0  0.30486  0.32855  0.39579  1.0000
  C   C51       1.0  0.13315999999999997  0.16149000000000002  0.48052  1.0000
  C   C52       1.0  0.0995  0.12251  0.42892  1.0000
  C   C53       1.0  0.19788000000000003  0.22999000000000003  0.46838  1.0000
  C   C54       1.0  0.2314  0.25910000000000005  0.40529  1.0000
  C   C55       1.0  0.14534999999999998  0.6955900000000002  0.7869299999999999  1.0000
  C   C56       1.0  0.24123000000000003  0.60782  0.80173  1.0000
  C   C57       1.0  0.10435  0.12945  0.54916  1.0000
  C   C58       1.0  0.16299  0.78422  0.37095  1.0000
  C   C59       1.0  0.24561999999999992  0.6095400000000001  0.29811  1.0000
  C   C60       1.0  0.14926999999999993  0.6966400000000003  0.28341  1.0000
  C   C61       1.0  0.25777  0.695  0.38679  1.0000
  C   C62       1.0  0.30659999999999993  0.68988  0.44686  1.0000
  C   C63       1.0  0.7799800000000002  0.8017400000000001  0.14698  1.0000
  C   C64       1.0  0.8889700000000003  0.90105  0.19188  1.0000
  C   C65       1.0  0.84775  0.86811  0.13545999999999997  1.0000
  C   C66       1.0  0.23257  0.8570300000000002  0.6165999999999999  1.0000
  C   C67       1.0  0.3212700000000002  0.7613699999999999  0.60151  1.0000
  C   C68       1.0  0.3310099999999999  0.7159800000000002  0.53983  1.0000
  C   C69       1.0  0.6714699999999998  0.6950900000000002  0.10536999999999998  1.0000
  C   C70       1.0  0.8386  0.86689  0.02043  1.0000
  C   C71       1.0  0.87747  0.9005000000000002  0.07206  1.0000
  C   C72       1.0  0.7700799999999999  0.8021500000000003  0.03242  1.0000
  C   C73       1.0  0.74092  0.7686000000000002  0.09551  1.0000
  C   C74       1.0  0.30455  0.85439  0.71309  1.0000
  C   C75       1.0  0.39235  0.75861  0.6982699999999998  1.0000
  C   C76       1.0  0.8708900000000004  0.8959100000000001  0.95191  1.0000
  N   N1        1.0  0.78426  0.10913  0.8197699999999999  1.0000
  N   N2        1.0  0.60862  0.3004700000000002  0.8494799999999999  1.0000
  N   N3        1.0  0.6041599999999999  0.39645000000000014  0.9644299999999999  1.0000
  N   N4        1.0  0.7625700000000001  0.26267000000000007  0.9924199999999999  1.0000
  N   N5        1.0  0.62096  0.41205  0.02478  1.0000
  N   N6        1.0  0.90263  0.22431  0.17228  1.0000
  N   N7        1.0  0.7106300000000001  0.3999700000000001  0.14308999999999997  1.0000
  N   N8        1.0  0.8907  0.21574000000000002  0.68036  1.0000
  N   N9        1.0  0.6994100000000001  0.3914200000000001  0.65051  1.0000
  N   N10       1.0  0.6035  0.39589000000000013  0.53548  1.0000
  N   N11       1.0  0.73725  0.23743000000000006  0.5076399999999999  1.0000
  N   N12       1.0  0.58792  0.37907000000000013  0.47512  1.0000
  N   N13       1.0  0.77564  0.09767  0.3277  1.0000
  N   N14       1.0  0.59991  0.28943000000000013  0.35689999999999994  1.0000
  N   N15       1.0  0.21572999999999992  0.8908700000000003  0.18024  1.0000
  N   N16       1.0  0.3913699999999999  0.69953  0.15052  1.0000
  N   N17       1.0  0.39582999999999996  0.60355  0.03558  1.0000
  N   N18       1.0  0.23742  0.73733  0.00758  1.0000
  N   N19       1.0  0.37903  0.58795  0.97522  1.0000
  N   N20       1.0  0.09736999999999998  0.77569  0.82772  1.0000
  N   N21       1.0  0.28936000000000006  0.60002  0.85691  1.0000
  N   N22       1.0  0.10928999999999998  0.7842500000000001  0.31964999999999993  1.0000
  N   N23       1.0  0.3005900000000001  0.60858  0.34948999999999997  1.0000
  N   N24       1.0  0.39649  0.6041  0.46452  1.0000
  N   N25       1.0  0.2627400000000001  0.76256  0.49236  1.0000
  N   N26       1.0  0.41207  0.62093  0.52488  1.0000
  N   N27       1.0  0.22435  0.9023200000000002  0.6723099999999999  1.0000
  N   N28       1.0  0.40009000000000006  0.7105700000000003  0.6431  1.0000
  O   O1        1.0  0.8623  0.86221  0.74658  1.0000
  O   O2        1.0  0.96527  0.9465200000000001  0.68249  1.0000
  O   O3        1.0  0.9502999999999999  0.9372900000000001  0.43816999999999995  1.0000
  O   O4        1.0  0.6567600000000002  0.6461000000000002  0.6597099999999999  1.0000
  O   O5        1.0  0.6722999999999999  0.6407100000000002  0.55205  1.0000
  O   O6        1.0  0.86228  0.83081  0.40661  1.0000
  O   O7        1.0  0.13823000000000002  0.13792  0.75245  1.0000
  O   O8        1.0  0.05300000000000002  0.035540000000000044  0.8161699999999998  1.0000
  O   O9        1.0  0.06244999999999999  0.04941000000000003  0.06056  1.0000
  O   O10       1.0  0.3535499999999999  0.34300000000000014  0.83909  1.0000
  O   O11       1.0  0.35941  0.32782  0.94674  1.0000
  O   O12       1.0  0.16888  0.1375  0.09233999999999999  1.0000
  O   O13       1.0  0.1377  0.13779  0.25342  1.0000
  O   O14       1.0  0.034719999999999994  0.053480000000000014  0.31751  1.0000
  O   O15       1.0  0.049699999999999994  0.0627  0.56184  1.0000
  O   O16       1.0  0.34323  0.3538900000000001  0.34029  1.0000
  O   O17       1.0  0.3277  0.35929  0.44795  1.0000
  O   O18       1.0  0.13772000000000004  0.16919  0.5933899999999999  1.0000
  O   O19       1.0  0.8617599999999999  0.8620800000000002  0.24754999999999996  1.0000
  O   O20       1.0  0.9469900000000001  0.96445  0.18383  1.0000
  O   O21       1.0  0.93754  0.9505900000000003  0.93944  1.0000
  O   O22       1.0  0.64644  0.6570000000000001  0.16091  1.0000
  O   O23       1.0  0.6405799999999999  0.67217  0.05327  1.0000
  O   O24       1.0  0.8311099999999999  0.8625  0.9076599999999999  1.0000
