data_image0
_chemical_formula_structural       Ba6Co6H60C60O60
_chemical_formula_sum              "Ba6 Co6 H60 C60 O60"
_cell_length_a       12.9126
_cell_length_b       16.0001
_cell_length_c       16.03995
_cell_angle_alpha    114.09794
_cell_angle_beta     105.11562999999998
_cell_angle_gamma    105.49417

_space_group_name_H-M_alt    "P 1"
_space_group_IT_number       1

loop_
  _space_group_symop_operation_xyz
  'x, y, z'

loop_
  _atom_site_type_symbol
  _atom_site_label
  _atom_site_symmetry_multiplicity
  _atom_site_fract_x
  _atom_site_fract_y
  _atom_site_fract_z
  _atom_site_occupancy
  Ba  Ba1       1.0  0.6978099999999999  0.6910300000000003  0.37638000000000005  1.0000
  Ba  Ba2       1.0  0.6828600000000001  0.3711400000000002  0.6797900000000001  1.0000
  Ba  Ba3       1.0  0.0030800000000000766  0.6791500000000003  0.30275  1.0000
  Ba  Ba4       1.0  0.005470000000000088  0.3236600000000001  0.7004500000000001  1.0000
  Ba  Ba5       1.0  0.31588000000000005  0.3159500000000001  0.62497  1.0000
  Ba  Ba6       1.0  0.33001000000000014  0.6290300000000002  0.33008  1.0000
  Co  Co1       1.0  0.2318  0.37167  0.0042  1.0000
  Co  Co2       1.0  0.77521  0.63012  0.99566  1.0000
  Co  Co3       1.0  0.77871  0.99967  0.63578  1.0000
  Co  Co4       1.0  0.8570299999999998  0.6306500000000003  0.63018  1.0000
  Co  Co5       1.0  0.14458000000000004  0.36918  0.3697900000000001  1.0000
  Co  Co6       1.0  0.22948000000000002  0.9997600000000001  0.36832  1.0000
  H   H1        1.0  0.51983  0.658  0.72853  1.0000
  H   H2        1.0  0.15067000000000008  0.6596400000000001  0.9280500000000003  1.0000
  H   H3        1.0  0.70335  0.17973000000000003  0.53429  1.0000
  H   H4        1.0  0.43566  0.92499  0.16064  1.0000
  H   H5        1.0  0.10513999999999997  0.37238  0.5406  1.0000
  H   H6        1.0  0.2829500000000001  0.8424200000000002  0.7757800000000001  1.0000
  H   H7        1.0  0.21043000000000003  0.74194  0.06686  1.0000
  H   H8        1.0  0.79465  0.9328400000000002  0.26047  1.0000
  H   H9        1.0  0.7362500000000001  0.6250300000000002  0.16473  1.0000
  H   H10       1.0  0.2817400000000001  0.7718700000000002  0.84325  1.0000
  H   H11       1.0  0.89699  0.46086000000000005  0.62646  1.0000
  H   H12       1.0  0.66267  0.3598700000000001  0.06801  1.0000
  H   H13       1.0  0.29827000000000004  0.7050600000000002  0.6376700000000001  1.0000
  H   H14       1.0  0.26556000000000013  0.83083  0.36839000000000005  1.0000
  H   H15       1.0  0.15148000000000003  0.9335200000000002  0.65892  1.0000
  H   H16       1.0  0.72404  0.16049000000000005  0.23143000000000002  1.0000
  H   H17       1.0  0.8609000000000001  0.07169999999999997  0.35167  1.0000
  H   H18       1.0  0.40924  0.7021800000000002  0.0704  1.0000
  H   H19       1.0  0.5185500000000002  0.35675000000000023  0.8208100000000003  1.0000
  H   H20       1.0  0.49992000000000014  0.9374700000000005  0.7744300000000002  1.0000
  H   H21       1.0  0.50215  0.22362  0.06049000000000001  1.0000
  H   H22       1.0  0.3045300000000002  0.8208900000000005  0.4669500000000001  1.0000
  H   H23       1.0  0.43432000000000004  0.1583800000000001  0.92176  1.0000
  H   H24       1.0  0.4745900000000001  0.2590600000000001  0.3294100000000001  1.0000
  H   H25       1.0  0.66455  0.07048000000000003  0.36042  1.0000
  H   H26       1.0  0.5945  0.29336  0.9281  1.0000
  H   H27       1.0  0.4842000000000001  0.17959000000000003  0.64724  1.0000
  H   H28       1.0  0.56751  0.07653000000000004  0.84027  1.0000
  H   H29       1.0  0.3418300000000001  0.63865  0.93043  1.0000
  H   H30       1.0  0.9030699999999999  0.63175  0.46398  1.0000
  H   H31       1.0  0.5806300000000002  0.8375100000000002  0.4680400000000001  1.0000
  H   H32       1.0  0.84368  0.3476600000000002  0.52986  1.0000
  H   H33       1.0  0.7226  0.22879999999999998  0.16143  1.0000
  H   H34       1.0  0.46624  0.32199  0.25326  1.0000
  H   H35       1.0  0.50242  0.06393  0.22708  1.0000
  H   H36       1.0  0.43739  0.5377200000000002  0.17437  1.0000
  H   H37       1.0  0.69796  0.52953  0.18024  1.0000
  H   H38       1.0  0.7079400000000001  0.29863000000000006  0.36832  1.0000
  H   H39       1.0  0.34115000000000006  0.92999  0.6384000000000001  1.0000
  H   H40       1.0  0.27168  0.37488  0.8353  1.0000
  H   H41       1.0  0.7074900000000001  0.3669600000000001  0.29909  1.0000
  H   H42       1.0  0.2979900000000001  0.6353400000000001  0.7055700000000001  1.0000
  H   H43       1.0  0.16074000000000016  0.47143000000000024  0.6520900000000002  1.0000
  H   H44       1.0  0.7991000000000001  0.26194000000000023  0.9397700000000002  1.0000
  H   H45       1.0  0.21656  0.07273999999999996  0.74274  1.0000
  H   H46       1.0  0.74233  0.16677  0.631  1.0000
  H   H47       1.0  0.42995000000000005  0.16717999999999997  0.53731  1.0000
  H   H48       1.0  0.48985  0.6475900000000002  0.18593  1.0000
  H   H49       1.0  0.5734800000000001  0.46681000000000017  0.8323000000000002  1.0000
  H   H50       1.0  0.5251  0.8235300000000002  0.35736  1.0000
  H   H51       1.0  0.84618  0.53302  0.35197  1.0000
  H   H52       1.0  0.16271000000000013  0.6542700000000002  0.4743300000000001  1.0000
  H   H53       1.0  0.59675  0.9298000000000001  0.29191  1.0000
  H   H54       1.0  0.53127  0.7394500000000003  0.67086  1.0000
  H   H55       1.0  0.31216  0.4720200000000001  0.82135  1.0000
  H   H56       1.0  0.10848000000000001  0.54121  0.37742000000000003  1.0000
  H   H57       1.0  0.40934999999999994  0.07105  0.70633  1.0000
  H   H58       1.0  0.50118  0.7778500000000003  0.94163  1.0000
  H   H59       1.0  0.86067  0.3569700000000001  0.07702  1.0000
  H   H60       1.0  0.5679  0.8404700000000003  0.08031  1.0000
  C   C1        1.0  0.42006000000000004  0.6879000000000002  0.0015900000000000005  1.0000
  C   C2        1.0  0.9876800000000001  0.9036700000000002  0.34013000000000004  1.0000
  C   C3        1.0  0.51328  0.005070000000000047  0.7695  1.0000
  C   C4        1.0  0.53857  0.42267  0.41705  1.0000
  C   C5        1.0  0.85855  0.9970400000000003  0.33485  1.0000
  C   C6        1.0  0.26398  0.77028  0.77234  1.0000
  C   C7        1.0  0.58395  0.3097500000000002  0.9973600000000001  1.0000
  C   C8        1.0  0.48404  0.39859  0.10037000000000003  1.0000
  C   C9        1.0  0.63939  0.55712  0.6542  1.0000
  C   C10       1.0  0.4721000000000001  0.32302000000000003  0.9995900000000001  1.0000
  C   C11       1.0  0.38741000000000003  0.90177  0.30507  1.0000
  C   C12       1.0  0.35723000000000005  0.33626  0.43532  1.0000
  C   C13       1.0  0.47146  0.32444  0.32361  1.0000
  C   C14       1.0  0.41961  0.00139999999999997  0.68895  1.0000
  C   C15       1.0  0.12391000000000003  0.014130000000000002  0.58051  1.0000
  C   C16       1.0  0.27178000000000013  0.6883400000000002  0.69001  1.0000
  C   C17       1.0  0.5256800000000004  0.6052000000000004  0.8993900000000002  1.0000
  C   C18       1.0  0.024530000000000104  0.6204900000000002  0.9935400000000001  1.0000
  C   C19       1.0  0.7411599999999999  0.23168000000000005  0.23299  1.0000
  C   C20       1.0  0.5333100000000001  0.6770500000000002  0.9997200000000002  1.0000
  C   C21       1.0  0.09031000000000008  0.44726000000000016  0.10823000000000003  1.0000
  C   C22       1.0  0.8837200000000001  0.9839400000000003  0.42176000000000013  1.0000
  C   C23       1.0  0.8861  0.42305  0.98612  1.0000
  C   C24       1.0  0.8607200000000002  0.33796  0.00284  1.0000
  C   C25       1.0  0.47414000000000006  0.9997400000000001  0.32484  1.0000
  C   C26       1.0  0.98539  0.38528  0.01074  1.0000
  C   C27       1.0  0.5325100000000001  0.0008100000000001036  0.6769800000000002  1.0000
  C   C28       1.0  0.02875000000000001  0.001809999999999967  0.62357  1.0000
  C   C29       1.0  0.6190000000000001  0.6940900000000002  0.09556  1.0000
  C   C30       1.0  0.99174  0.3436700000000001  0.9138200000000001  1.0000
  C   C31       1.0  0.08459  0.10061  0.44062  1.0000
  C   C32       1.0  0.4596100000000001  0.57552  0.56614  1.0000
  C   C33       1.0  0.08184000000000011  0.6054100000000002  0.70447  1.0000
  C   C34       1.0  0.58579  0.9993700000000001  0.31049  1.0000
  C   C35       1.0  0.35771  0.4331300000000001  0.33834  1.0000
  C   C36       1.0  0.4893800000000001  0.22897999999999996  0.99336  1.0000
  C   C37       1.0  0.14892999999999995  0.68069  0.68225  1.0000
  C   C38       1.0  0.4844699999999999  0.09918  0.40198  1.0000
  C   C39       1.0  0.40131  0.37288  0.3747800000000001  1.0000
  C   C40       1.0  0.6201500000000001  0.09830000000000003  0.69678  1.0000
  C   C41       1.0  0.14737999999999998  0.66945  0.99908  1.0000
  C   C42       1.0  0.38571000000000016  0.3050100000000002  0.9033900000000002  1.0000
  C   C43       1.0  0.9253200000000001  0.9024100000000003  0.5642  1.0000
  C   C44       1.0  0.59615  0.61772  0.61715  1.0000
  C   C45       1.0  0.92118  0.39661000000000013  0.29795  1.0000
  C   C46       1.0  0.017130000000000097  0.6605100000000003  0.09118  1.0000
  C   C47       1.0  0.12091000000000002  0.57842  0.005700000000000002  1.0000
  C   C48       1.0  0.73343  0.31407  0.31495000000000006  1.0000
  C   C49       1.0  0.52453  0.90139  0.60273  1.0000
  C   C50       1.0  0.15107  0.006019999999999998  0.67037  1.0000
  C   C51       1.0  0.08438000000000007  0.7048700000000002  0.6083  1.0000
  C   C52       1.0  0.52497  0.6676000000000002  0.66544  1.0000
  C   C53       1.0  0.019770000000000024  0.09923000000000005  0.66388  1.0000
  C   C54       1.0  0.8561099999999999  0.32221  0.32213  1.0000
  C   C55       1.0  0.4905  0.9961900000000002  0.23159  1.0000
  C   C56       1.0  0.9206799999999999  0.2980800000000001  0.39628  1.0000
  C   C57       1.0  0.9810099999999999  0.0015700000000000067  0.38087  1.0000
  C   C58       1.0  0.64218  0.65636  0.5588  1.0000
  C   C59       1.0  0.92046  0.5586  0.8952600000000002  1.0000
  C   C60       1.0  0.5140500000000001  0.7708100000000002  0.00781  1.0000
  O   O1        1.0  0.08481000000000008  0.5083100000000003  0.18452000000000002  1.0000
  O   O2        1.0  0.8266  0.8937200000000002  0.57452  1.0000
  O   O3        1.0  0.9709800000000002  0.5841900000000002  0.68497  1.0000
  O   O4        1.0  0.40360000000000007  0.2720800000000002  0.82576  1.0000
  O   O5        1.0  0.57164  0.67346  0.50311  1.0000
  O   O6        1.0  0.70912  0.6726300000000002  0.09491000000000002  1.0000
  O   O7        1.0  0.42982000000000004  0.56068  0.8220900000000001  1.0000
  O   O8        1.0  0.25357  0.32662  0.43368  1.0000
  O   O9        1.0  0.07572  0.17677000000000004  0.49811  1.0000
  O   O10       1.0  0.56147  0.79558  0.39528  1.0000
  O   O11       1.0  0.89906  0.32753000000000015  0.844  1.0000
  O   O12       1.0  0.10763000000000003  0.67973  0.16349000000000005  1.0000
  O   O13       1.0  0.03198000000000006  0.4171400000000001  0.31657  1.0000
  O   O14       1.0  0.1078900000000001  0.17367000000000013  0.6825400000000003  1.0000
  O   O15       1.0  0.61818  0.58975  0.8948200000000002  1.0000
  O   O16       1.0  0.84902  0.3877100000000001  0.59818  1.0000
  O   O17       1.0  0.15391  0.4022  0.61378  1.0000
  O   O18       1.0  0.7450500000000003  0.5622  0.66759  1.0000
  O   O19       1.0  0.57024  0.50022  0.67092  1.0000
  O   O20       1.0  0.86871  0.43759  0.26178  1.0000
  O   O21       1.0  0.82076  0.56647  0.88777  1.0000
  O   O22       1.0  0.42689000000000005  0.8238200000000002  0.5541  1.0000
  O   O23       1.0  0.8669100000000001  0.26115  0.43631  1.0000
  O   O24       1.0  0.7594699999999999  0.5985400000000002  0.20996  1.0000
  O   O25       1.0  0.24459000000000014  0.7873100000000003  0.3974900000000001  1.0000
  O   O26       1.0  0.40811000000000003  0.82556  0.27551  1.0000
  O   O27       1.0  0.97347  0.6857800000000002  0.58651  1.0000
  O   O28       1.0  0.6181600000000002  0.8973900000000004  0.58952  1.0000
  O   O29       1.0  0.18841000000000002  0.4367700000000001  0.11222  1.0000
  O   O30       1.0  0.5799  0.4423900000000001  0.17654  1.0000
  O   O31       1.0  0.18395  0.10670000000000003  0.43162  1.0000
  O   O32       1.0  0.6016700000000001  0.7275200000000002  0.1736  1.0000
  O   O33       1.0  0.29235000000000005  0.8991700000000002  0.31998  1.0000
  O   O34       1.0  0.9290299999999998  0.49803  0.82002  1.0000
  O   O35       1.0  0.255  0.43364  0.32783  1.0000
  O   O36       1.0  0.8971700000000001  0.8317400000000003  0.3226  1.0000
  O   O37       1.0  0.7468900000000003  0.6707300000000003  0.56244  1.0000
  O   O38       1.0  0.71422  0.09951000000000006  0.68066  1.0000
  O   O39       1.0  0.25083  0.4031600000000001  0.79112  1.0000
  O   O40       1.0  0.42468999999999996  0.3164200000000001  0.48978000000000005  1.0000
  O   O41       1.0  0.29451000000000005  0.32541  0.90353  1.0000
  O   O42       1.0  0.93435  0.8270100000000001  0.50409  1.0000
  O   O43       1.0  0.1338200000000001  0.5631800000000002  0.7400200000000002  1.0000
  O   O44       1.0  0.45279  0.21074  0.61058  1.0000
  O   O45       1.0  0.07839000000000004  0.32805  0.89603  1.0000
  O   O46       1.0  0.9279299999999999  0.10959999999999995  0.67695  1.0000
  O   O47       1.0  0.07748000000000012  0.8897700000000002  0.3262400000000001  1.0000
  O   O48       1.0  0.13819  0.7419  0.56773  1.0000
  O   O49       1.0  0.8567200000000001  0.60334  0.39057  1.0000
  O   O50       1.0  0.39271  0.41696  0.10449  1.0000
  O   O51       1.0  0.60117  0.17544  0.72734  1.0000
  O   O52       1.0  0.55052  0.3932100000000001  0.78974  1.0000
  O   O53       1.0  0.1570100000000001  0.61436  0.4060400000000001  1.0000
  O   O54       1.0  0.4606700000000001  0.6114000000000003  0.21819000000000002  1.0000
  O   O55       1.0  0.031690000000000065  0.3172700000000001  0.41801  1.0000
  O   O56       1.0  0.42847  0.4868600000000001  0.3194  1.0000
  O   O57       1.0  0.39096000000000003  0.10170000000000005  0.4171  1.0000
  O   O58       1.0  0.9263  0.67297  0.10463  1.0000
  O   O59       1.0  0.7635899999999999  0.21189000000000005  0.60379  1.0000
  O   O60       1.0  0.58087  0.17606  0.45017  1.0000
