data_image0
_chemical_formula_structural       Eu4H60C90S6O48
_chemical_formula_sum              "Eu4 H60 C90 S6 O48"
_cell_length_a       9.27246
_cell_length_b       15.77328
_cell_length_c       22.16468
_cell_angle_alpha    103.72262
_cell_angle_beta     101.41353
_cell_angle_gamma    104.88854000000002

_space_group_name_H-M_alt    "P 1"
_space_group_IT_number       1

loop_
  _space_group_symop_operation_xyz
  'x, y, z'

loop_
  _atom_site_type_symbol
  _atom_site_label
  _atom_site_symmetry_multiplicity
  _atom_site_fract_x
  _atom_site_fract_y
  _atom_site_fract_z
  _atom_site_occupancy
  Eu  Eu1       1.0  0.5169100000000001  0.8655800000000001  0.8121500000000001  1.0000
  Eu  Eu2       1.0  0.03371999999999995  0.9111599999999999  0.85782  1.0000
  Eu  Eu3       1.0  0.48315  0.13444  0.18783  1.0000
  Eu  Eu4       1.0  0.9662900000000001  0.08888  0.14221  1.0000
  H   H1        1.0  0.8657300000000001  0.84076  0.67293  1.0000
  H   H2        1.0  0.72706  0.84441  0.566  1.0000
  H   H3        1.0  0.30031000000000013  0.9111600000000001  0.62567  1.0000
  H   H4        1.0  0.6522300000000001  0.7854900000000002  0.45031  1.0000
  H   H5        1.0  0.6633000000000001  0.9029000000000001  0.48639  1.0000
  H   H6        1.0  0.6803900000000002  0.86625  0.40576  1.0000
  H   H7        1.0  0.9673400000000001  0.8378199999999999  0.36795  1.0000
  H   H8        1.0  0.9476000000000001  0.90007  0.27301  1.0000
  H   H9        1.0  0.44348  0.013569999999999999  0.32411  1.0000
  H   H10       1.0  0.46578  0.95413  0.42032  1.0000
  H   H11       1.0  0.98594  0.66783  0.91638  1.0000
  H   H12       1.0  0.91774  0.5125500000000001  0.9333500000000001  1.0000
  H   H13       1.0  0.26842  0.4509000000000001  0.84438  1.0000
  H   H14       1.0  0.3370200000000001  0.6082900000000001  0.82972  1.0000
  H   H15       1.0  0.07286  0.24435  0.0107  1.0000
  H   H16       1.0  0.48902000000000007  0.16831000000000004  0.02415  1.0000
  H   H17       1.0  0.59875  0.28819  0.97596  1.0000
  H   H18       1.0  0.6882400000000001  0.4377600000000001  0.97364  1.0000
  H   H19       1.0  0.60127  0.35338000000000014  0.89527  1.0000
  H   H20       1.0  0.6121400000000001  0.47113  0.90523  1.0000
  H   H21       1.0  0.56656  0.56046  0.79869  1.0000
  H   H22       1.0  0.00924999999999999  0.56498  0.70245  1.0000
  H   H23       1.0  0.9285800000000001  0.7040500000000002  0.72881  1.0000
  H   H24       1.0  0.95923  0.39291  0.64591  1.0000
  H   H25       1.0  0.10256  0.45669000000000004  0.72261  1.0000
  H   H26       1.0  0.01741999999999999  0.33467  0.702  1.0000
  H   H27       1.0  0.24752  0.28153  0.79552  1.0000
  H   H28       1.0  0.2081  0.16063999999999998  0.85089  1.0000
  H   H29       1.0  0.59961  0.09117  0.80352  1.0000
  H   H30       1.0  0.6387  0.21057  0.74595  1.0000
  H   H31       1.0  0.13446  0.15927  0.3271  1.0000
  H   H32       1.0  0.27302  0.15558  0.43404  1.0000
  H   H33       1.0  0.69979  0.08881999999999997  0.37429  1.0000
  H   H34       1.0  0.34779000000000004  0.21449  0.5497  1.0000
  H   H35       1.0  0.33671000000000006  0.09709  0.51362  1.0000
  H   H36       1.0  0.31963  0.13373999999999997  0.59426  1.0000
  H   H37       1.0  0.03265000000000003  0.16216  0.63207  1.0000
  H   H38       1.0  0.05232  0.09989999999999996  0.727  1.0000
  H   H39       1.0  0.55644  0.9864199999999999  0.67587  1.0000
  H   H40       1.0  0.5341900000000003  0.04586000000000002  0.57967  1.0000
  H   H41       1.0  0.013910000000000027  0.3321600000000001  0.08362  1.0000
  H   H42       1.0  0.08218999999999999  0.48743  0.06663  1.0000
  H   H43       1.0  0.7315800000000002  0.5491700000000003  0.15563  1.0000
  H   H44       1.0  0.6629400000000001  0.39178  0.17032  1.0000
  H   H45       1.0  0.9270499999999999  0.75578  0.9892499999999999  1.0000
  H   H46       1.0  0.51078  0.83174  0.9758100000000001  1.0000
  H   H47       1.0  0.40122000000000013  0.71184  0.024  1.0000
  H   H48       1.0  0.31178999999999996  0.56226  0.026340000000000002  1.0000
  H   H49       1.0  0.3987100000000002  0.64664  0.10472  1.0000
  H   H50       1.0  0.3879400000000001  0.5289100000000002  0.09475  1.0000
  H   H51       1.0  0.43367  0.43943  0.20165999999999998  1.0000
  H   H52       1.0  0.9902100000000004  0.4349  0.2974  1.0000
  H   H53       1.0  0.07139000000000005  0.29594  0.27138  1.0000
  H   H54       1.0  0.04064000000000009  0.6071200000000002  0.35412  1.0000
  H   H55       1.0  0.89738  0.54328  0.2774  1.0000
  H   H56       1.0  0.9825800000000002  0.66533  0.29799  1.0000
  H   H57       1.0  0.7523300000000003  0.71843  0.20447  1.0000
  H   H58       1.0  0.7918300000000001  0.83939  0.14914  1.0000
  H   H59       1.0  0.40027000000000007  0.90882  0.19652  1.0000
  H   H60       1.0  0.36112000000000016  0.7893700000000001  0.25402  1.0000
  C   C1        1.0  0.17568  0.86872  0.71915  1.0000
  C   C2        1.0  0.09134000000000007  0.87447  0.65612  1.0000
  C   C3        1.0  0.92986  0.85698  0.63878  1.0000
  C   C4        1.0  0.85218  0.85932  0.57894  1.0000
  C   C5        1.0  0.93591  0.88099  0.5351  1.0000
  C   C6        1.0  0.09953999999999996  0.9019400000000001  0.55412  1.0000
  C   C7        1.0  0.17541000000000015  0.89722  0.6129  1.0000
  C   C8        1.0  0.7060600000000001  0.85772  0.45385  1.0000
  C   C9        1.0  0.21792  0.89133  0.39781  1.0000
  C   C10       1.0  0.0704600000000001  0.8755400000000002  0.35752  1.0000
  C   C11       1.0  0.059770000000000094  0.9099800000000001  0.30504  1.0000
  C   C12       1.0  0.19468  0.95896  0.29295  1.0000
  C   C13       1.0  0.34084  0.9748  0.33433  1.0000
  C   C14       1.0  0.35356  0.94154  0.38738  1.0000
  C   C15       1.0  0.18520000000000006  0.99639  0.2362  1.0000
  C   C16       1.0  0.2043100000000001  0.74035  0.86233  1.0000
  C   C17       1.0  0.16623999999999992  0.6469399999999998  0.8729099999999999  1.0000
  C   C18       1.0  0.048240000000000005  0.62032  0.90196  1.0000
  C   C19       1.0  0.009279999999999984  0.53367  0.9108999999999999  1.0000
  C   C20       1.0  0.08927000000000004  0.47359  0.88974  1.0000
  C   C21       1.0  0.20842000000000016  0.49892000000000014  0.8608100000000001  1.0000
  C   C22       1.0  0.24650000000000005  0.5861100000000001  0.85263  1.0000
  C   C23       1.0  0.25060000000000004  0.32361000000000006  0.9784800000000001  1.0000
  C   C24       1.0  0.18791  0.25451  0.0034000000000000002  1.0000
  C   C25       1.0  0.27471  0.1987  0.02071  1.0000
  C   C26       1.0  0.4229700000000001  0.21204  0.01065  1.0000
  C   C27       1.0  0.4847899999999999  0.27963000000000005  0.98407  1.0000
  C   C28       1.0  0.39886000000000005  0.3363  0.96702  1.0000
  C   C29       1.0  0.21473  0.13076  0.05393  1.0000
  C   C30       1.0  0.5973700000000001  0.41632000000000013  0.92801  1.0000
  C   C31       1.0  0.6838200000000001  0.72212  0.77847  1.0000
  C   C32       1.0  0.74082  0.64156  0.76476  1.0000
  C   C33       1.0  0.6642500000000001  0.56207  0.77837  1.0000
  C   C34       1.0  0.7128200000000001  0.48557  0.76569  1.0000
  C   C35       1.0  0.8370700000000001  0.48408000000000007  0.7374  1.0000
  C   C36       1.0  0.9131100000000001  0.56401  0.72371  1.0000
  C   C37       1.0  0.86648  0.64192  0.73802  1.0000
  C   C38       1.0  0.9965300000000001  0.3982700000000001  0.69724  1.0000
  C   C39       1.0  0.44474  0.25222  0.76779  1.0000
  C   C40       1.0  0.32334000000000007  0.23943  0.7968299999999999  1.0000
  C   C41       1.0  0.30221000000000003  0.17230000000000006  0.82825  1.0000
  C   C42       1.0  0.40257  0.11947999999999999  0.83095  1.0000
  C   C43       1.0  0.5236199999999999  0.13323999999999994  0.8013  1.0000
  C   C44       1.0  0.5452900000000002  0.19938000000000006  0.76905  1.0000
  C   C45       1.0  0.3788  0.047490000000000004  0.86529  1.0000
  C   C46       1.0  0.8243400000000002  0.13128  0.28086  1.0000
  C   C47       1.0  0.9087700000000001  0.12555000000000005  0.34389  1.0000
  C   C48       1.0  0.07027  0.14303  0.36123  1.0000
  C   C49       1.0  0.1479000000000001  0.14067000000000007  0.42108000000000007  1.0000
  C   C50       1.0  0.06414000000000004  0.11899000000000001  0.4649  1.0000
  C   C51       1.0  0.9005200000000001  0.09804  0.44586999999999993  1.0000
  C   C52       1.0  0.82469  0.10278000000000004  0.38709  1.0000
  C   C53       1.0  0.29396  0.14226000000000003  0.54616  1.0000
  C   C54       1.0  0.78206  0.10865  0.60218  1.0000
  C   C55       1.0  0.9295100000000001  0.12443999999999994  0.64248  1.0000
  C   C56       1.0  0.94017  0.08999999999999998  0.69497  1.0000
  C   C57       1.0  0.8052300000000002  0.04104  0.70705  1.0000
  C   C58       1.0  0.65909  0.025190000000000042  0.66566  1.0000
  C   C59       1.0  0.6464  0.05845000000000004  0.61261  1.0000
  C   C60       1.0  0.8147  0.0036100000000000238  0.7638  1.0000
  C   C61       1.0  0.79569  0.25969  0.13766  1.0000
  C   C62       1.0  0.83368  0.3531  0.12709  1.0000
  C   C63       1.0  0.95166  0.3797  0.09803  1.0000
  C   C64       1.0  0.9906200000000001  0.4663300000000001  0.08907  1.0000
  C   C65       1.0  0.9106400000000001  0.52642  0.11022  1.0000
  C   C66       1.0  0.7915200000000002  0.50112  0.13918  1.0000
  C   C67       1.0  0.7534400000000001  0.41393  0.14738  1.0000
  C   C68       1.0  0.74939  0.6765  0.02147  1.0000
  C   C69       1.0  0.8119700000000002  0.7456  0.99652  1.0000
  C   C70       1.0  0.72514  0.80142  0.97921  1.0000
  C   C71       1.0  0.5769000000000001  0.78802  0.98927  1.0000
  C   C72       1.0  0.51516  0.72042  0.01587  1.0000
  C   C73       1.0  0.60114  0.66378  0.03295  1.0000
  C   C74       1.0  0.7853200000000002  0.8695200000000001  0.9461100000000001  1.0000
  C   C75       1.0  0.40267  0.58372  0.07197  1.0000
  C   C76       1.0  0.3157300000000001  0.27781  0.22126999999999997  1.0000
  C   C77       1.0  0.25899  0.35841  0.23535  1.0000
  C   C78       1.0  0.33580000000000004  0.43794  0.22185  1.0000
  C   C79       1.0  0.28733000000000003  0.51446  0.23453000000000002  1.0000
  C   C80       1.0  0.16297000000000006  0.51592  0.26274  1.0000
  C   C81       1.0  0.08678999999999999  0.43597  0.27639  1.0000
  C   C82       1.0  0.13338000000000005  0.3580500000000001  0.26211  1.0000
  C   C83       1.0  0.0033900000000001308  0.6017200000000003  0.30277  1.0000
  C   C84       1.0  0.5550900000000002  0.74771  0.23216  1.0000
  C   C85       1.0  0.67651  0.76053  0.20315  1.0000
  C   C86       1.0  0.69767  0.8277000000000002  0.17175  1.0000
  C   C87       1.0  0.5973  0.8805  0.16905  1.0000
  C   C88       1.0  0.47624  0.86673  0.19871  1.0000
  C   C89       1.0  0.45453000000000005  0.80055  0.23092000000000001  1.0000
  C   C90       1.0  0.62106  0.95249  0.1347  1.0000
  S   S1        1.0  0.23278  0.8487  0.46466  1.0000
  S   S2        1.0  0.03701000000000003  0.36329  0.90036  1.0000
  S   S3        1.0  0.47195000000000004  0.33935  0.72996  1.0000
  S   S4        1.0  0.76722  0.15127000000000002  0.53531  1.0000
  S   S5        1.0  0.9629400000000001  0.6367400000000002  0.09962  1.0000
  S   S6        1.0  0.52804  0.66062  0.27003  1.0000
  O   O1        1.0  0.09985000000000005  0.8579400000000001  0.76044  1.0000
  O   O2        1.0  0.3182200000000001  0.87459  0.72742  1.0000
  O   O3        1.0  0.8733700000000002  0.8832  0.47541  1.0000
  O   O4        1.0  0.18397999999999998  0.92942  0.5125  1.0000
  O   O5        1.0  0.11380000000000007  0.7608300000000002  0.44996  1.0000
  O   O6        1.0  0.39459  0.86169  0.49408  1.0000
  O   O7        1.0  0.05298999999999998  0.98858  0.20208000000000004  1.0000
  O   O8        1.0  0.31524  0.033860000000000015  0.22717  1.0000
  O   O9        1.0  0.12194000000000008  0.78978  0.87969  1.0000
  O   O10       1.0  0.3138500000000002  0.7620000000000002  0.83698  1.0000
  O   O11       1.0  0.8898000000000003  0.3452400000000001  0.91609  1.0000
  O   O12       1.0  0.06407999999999998  0.29571  0.85061  1.0000
  O   O13       1.0  0.17430000000000004  0.38746  0.96944  1.0000
  O   O14       1.0  0.4705799999999998  0.00015999999999995537  0.8670199999999999  1.0000
  O   O15       1.0  0.26652000000000015  0.03742000000000003  0.8910200000000001  1.0000
  O   O16       1.0  0.07112  0.10816  0.05197  1.0000
  O   O17       1.0  0.3116700000000001  0.10073  0.08454  1.0000
  O   O18       1.0  0.35739  0.38651  0.73636  1.0000
  O   O19       1.0  0.6420900000000003  0.40782  0.78211  1.0000
  O   O20       1.0  0.54048  0.7074900000000002  0.77475  1.0000
  O   O21       1.0  0.4463300000000001  0.40284000000000003  0.9398800000000002  1.0000
  O   O22       1.0  0.77842  0.8041700000000002  0.79386  1.0000
  O   O23       1.0  0.87269  0.40523  0.72712  1.0000
  O   O24       1.0  0.49923000000000006  0.30771  0.6675  1.0000
  O   O25       1.0  0.90011  0.142  0.23955  1.0000
  O   O26       1.0  0.68182  0.12547  0.27262  1.0000
  O   O27       1.0  0.12665  0.11679  0.5246  1.0000
  O   O28       1.0  0.81603  0.07056000000000001  0.48748  1.0000
  O   O29       1.0  0.88618  0.23914  0.54998  1.0000
  O   O30       1.0  0.60541  0.13827  0.50591  1.0000
  O   O31       1.0  0.94689  0.011459999999999942  0.7979599999999999  1.0000
  O   O32       1.0  0.68465  0.96611  0.77281  1.0000
  O   O33       1.0  0.8781400000000001  0.21031  0.12030999999999999  1.0000
  O   O34       1.0  0.68619  0.23801000000000008  0.16302  1.0000
  O   O35       1.0  0.11017999999999993  0.6547599999999999  0.08392  1.0000
  O   O36       1.0  0.9358900000000002  0.7043000000000003  0.14938  1.0000
  O   O37       1.0  0.8257599999999999  0.61266  0.03052  1.0000
  O   O38       1.0  0.52921  0.99979  0.13296  1.0000
  O   O39       1.0  0.7333400000000001  0.9626  0.10898  1.0000
  O   O40       1.0  0.92891  0.89189  0.94802  1.0000
  O   O41       1.0  0.68868  0.89984  0.91561  1.0000
  O   O42       1.0  0.64262  0.6134800000000001  0.26362  1.0000
  O   O43       1.0  0.35788  0.59212  0.21796999999999997  1.0000
  O   O44       1.0  0.45873  0.29243  0.22426000000000001  1.0000
  O   O45       1.0  0.55374  0.59727  0.06011999999999999  1.0000
  O   O46       1.0  0.22142  0.19576  0.20624  1.0000
  O   O47       1.0  0.12723999999999996  0.59473  0.27291  1.0000
  O   O48       1.0  0.50082  0.69228  0.3325  1.0000
