data_image0
_chemical_formula_structural       Mg8H40C120N8O48
_chemical_formula_sum              "Mg8 H40 C120 N8 O48"
_cell_length_a       10.33645
_cell_length_b       17.99289
_cell_length_c       34.69602
_cell_angle_alpha    96.61500999999998
_cell_angle_beta     90.00626
_cell_angle_gamma    89.99635999999998

_space_group_name_H-M_alt    "P 1"
_space_group_IT_number       1

loop_
  _space_group_symop_operation_xyz
  'x, y, z'

loop_
  _atom_site_type_symbol
  _atom_site_label
  _atom_site_symmetry_multiplicity
  _atom_site_fract_x
  _atom_site_fract_y
  _atom_site_fract_z
  _atom_site_occupancy
  Mg  Mg1       1.0  0.94561  0.23846  0.2162  1.0000
  Mg  Mg2       1.0  0.7534499999999998  0.24625  0.2833  1.0000
  Mg  Mg3       1.0  0.94561  0.26231  0.78311  1.0000
  Mg  Mg4       1.0  0.7527  0.2534  0.71642  1.0000
  Mg  Mg5       1.0  0.054369999999999995  0.7615300000000002  0.78381  1.0000
  Mg  Mg6       1.0  0.24652  0.75375  0.71671  1.0000
  Mg  Mg7       1.0  0.05438  0.73768  0.21689  1.0000
  Mg  Mg8       1.0  0.24727999999999994  0.74659  0.28358  1.0000
  H   H1        1.0  0.03251  0.50204  0.24445000000000003  1.0000
  H   H2        1.0  0.23383  0.14434  0.12331000000000002  1.0000
  H   H3        1.0  0.10244  0.60348  0.36143  1.0000
  H   H4        1.0  0.38341  0.25157  0.2311  1.0000
  H   H5        1.0  0.6464499999999999  0.16837  0.1396  1.0000
  H   H6        1.0  0.9457899999999999  0.38109999999999994  0.34159  1.0000
  H   H7        1.0  0.44526999999999994  0.19282000000000002  0.9858800000000001  1.0000
  H   H8        1.0  0.52741  0.88458  0.07773  1.0000
  H   H9        1.0  0.25563  0.39012  0.53502  1.0000
  H   H10       1.0  0.26492999999999994  0.38476  0.46176  1.0000
  H   H11       1.0  0.03241  0.9981200000000001  0.75558  1.0000
  H   H12       1.0  0.23352  0.35672  0.87625  1.0000
  H   H13       1.0  0.10231  0.89656  0.63864  1.0000
  H   H14       1.0  0.3838  0.24859000000000003  0.76874  1.0000
  H   H15       1.0  0.64613  0.33136  0.86051  1.0000
  H   H16       1.0  0.9458099999999999  0.11900999999999999  0.65841  1.0000
  H   H17       1.0  0.44531999999999994  0.3072  0.01413  1.0000
  H   H18       1.0  0.52744  0.61538  0.92228  1.0000
  H   H19       1.0  0.25559999999999994  0.10985999999999999  0.46497999999999995  1.0000
  H   H20       1.0  0.26492  0.11522  0.53825  1.0000
  H   H21       1.0  0.9674799999999999  0.49794999999999995  0.75555  1.0000
  H   H22       1.0  0.76615  0.85564  0.8767  1.0000
  H   H23       1.0  0.89755  0.39652  0.63857  1.0000
  H   H24       1.0  0.61659  0.7484199999999999  0.76891  1.0000
  H   H25       1.0  0.35352999999999996  0.83163  0.8604  1.0000
  H   H26       1.0  0.05418999999999999  0.6189  0.65841  1.0000
  H   H27       1.0  0.5547099999999999  0.80718  0.01412  1.0000
  H   H28       1.0  0.4725799999999999  0.11540999999999998  0.92227  1.0000
  H   H29       1.0  0.74436  0.60987  0.46497999999999995  1.0000
  H   H30       1.0  0.7350499999999999  0.61523  0.53825  1.0000
  H   H31       1.0  0.9675699999999999  0.0018800000000000054  0.24443000000000004  1.0000
  H   H32       1.0  0.76646  0.64327  0.12375  1.0000
  H   H33       1.0  0.89767  0.10343  0.36137  1.0000
  H   H34       1.0  0.61619  0.7514  0.23126  1.0000
  H   H35       1.0  0.35384999999999994  0.66864  0.1395  1.0000
  H   H36       1.0  0.054179999999999985  0.88098  0.34159  1.0000
  H   H37       1.0  0.5546599999999999  0.6928000000000001  0.9858800000000001  1.0000
  H   H38       1.0  0.47254  0.38461  0.07772  1.0000
  H   H39       1.0  0.74439  0.89014  0.53502  1.0000
  H   H40       1.0  0.73506  0.88477  0.46176  1.0000
  C   C1        1.0  0.028949999999999997  0.4999100000000001  0.27567  1.0000
  C   C2        1.0  0.31610999999999995  0.1641  0.14118  1.0000
  C   C3        1.0  0.9466099999999998  0.36689  0.26432  1.0000
  C   C4        1.0  0.52713  0.21456  0.18773  1.0000
  C   C5        1.0  0.16089999999999996  0.21136  0.1939  1.0000
  C   C6        1.0  0.63774  0.23736000000000002  0.21382  1.0000
  C   C7        1.0  0.06742  0.55647  0.34178  1.0000
  C   C8        1.0  0.00249  0.49838  0.47934  1.0000
  C   C9        1.0  0.019889999999999998  0.4929  0.35601  1.0000
  C   C10       1.0  0.47027  0.10026  0.01944  1.0000
  C   C11       1.0  0.40051999999999993  0.22487999999999997  0.20185  1.0000
  C   C12       1.0  0.48368999999999995  0.03124  0.09103  1.0000
  C   C13       1.0  0.49253  0.02215  0.0183  1.0000
  C   C14       1.0  0.4423799999999999  0.15229  0.12778  1.0000
  C   C15       1.0  0.10062999999999997  0.45563999999999993  0.45861  1.0000
  C   C16       1.0  0.29512999999999995  0.20047  0.17853  1.0000
  C   C17       1.0  0.98499  0.435  0.29042  1.0000
  C   C18       1.0  0.07122  0.56046  0.30163  1.0000
  C   C19       1.0  0.54832  0.17797  0.15031  1.0000
  C   C20       1.0  0.12917  0.6297  0.28937  1.0000
  C   C21       1.0  0.10927999999999999  0.45236  0.41569  1.0000
  C   C22       1.0  0.9795  0.43185  0.33067  1.0000
  C   C23       1.0  0.46287  0.13309000000000004  0.9851100000000002  1.0000
  C   C24       1.0  0.5220399999999998  0.9103699999999999  0.0509  1.0000
  C   C25       1.0  0.50002  0.9869599999999998  0.05273  1.0000
  C   C26       1.0  0.45459  0.14713  0.05717  1.0000
  C   C27       1.0  0.91316  0.53614  0.41697  1.0000
  C   C28       1.0  0.9094499999999998  0.5382  0.45984  1.0000
  C   C29       1.0  0.18571  0.42009  0.51915  1.0000
  C   C30       1.0  0.19082  0.41708  0.4785  1.0000
  C   C31       1.0  0.02879  0.0002099999999999966  0.72435  1.0000
  C   C32       1.0  0.31586  0.33658  0.85851  1.0000
  C   C33       1.0  0.94657  0.13328  0.73569  1.0000
  C   C34       1.0  0.52712  0.28542  0.81223  1.0000
  C   C35       1.0  0.16104  0.2899  0.80539  1.0000
  C   C36       1.0  0.6377999999999999  0.26252  0.78618  1.0000
  C   C37       1.0  0.0673  0.9436  0.65827  1.0000
  C   C38       1.0  0.0025  0.0016199999999999912  0.52066  1.0000
  C   C39       1.0  0.019819999999999997  0.007169999999999985  0.64402  1.0000
  C   C40       1.0  0.47028  0.39972  0.98054  1.0000
  C   C41       1.0  0.4006199999999999  0.27539  0.79799  1.0000
  C   C42       1.0  0.4835699999999999  0.46876  0.90896  1.0000
  C   C43       1.0  0.49253  0.47784000000000004  0.9817  1.0000
  C   C44       1.0  0.44204  0.34783  0.87212  1.0000
  C   C45       1.0  0.10062999999999997  0.04435000000000003  0.54139  1.0000
  C   C46       1.0  0.29507  0.3003  0.8211  1.0000
  C   C47       1.0  0.98479  0.06512000000000003  0.7096  1.0000
  C   C48       1.0  0.07109  0.9396299999999999  0.69842  1.0000
  C   C49       1.0  0.54809  0.32192  0.84968  1.0000
  C   C50       1.0  0.12905  0.87036  0.71067  1.0000
  C   C51       1.0  0.10927999999999999  0.04764000000000002  0.58432  1.0000
  C   C52       1.0  0.9794  0.06824  0.66934  1.0000
  C   C53       1.0  0.4629099999999999  0.36692  0.01488  1.0000
  C   C54       1.0  0.52205  0.5896  0.9491199999999999  1.0000
  C   C55       1.0  0.50003  0.51302  0.94727  1.0000
  C   C56       1.0  0.45446  0.35286000000000006  0.9427900000000001  1.0000
  C   C57       1.0  0.91317  0.96387  0.58304  1.0000
  C   C58       1.0  0.9094699999999998  0.96181  0.54017  1.0000
  C   C59       1.0  0.18569  0.07989  0.48086  1.0000
  C   C60       1.0  0.19081  0.0829  0.52151  1.0000
  C   C61       1.0  0.97104  0.50008  0.72433  1.0000
  C   C62       1.0  0.68387  0.83588  0.85883  1.0000
  C   C63       1.0  0.05338  0.63311  0.73568  1.0000
  C   C64       1.0  0.47285  0.78543  0.81228  1.0000
  C   C65       1.0  0.83908  0.78863  0.80611  1.0000
  C   C66       1.0  0.36225  0.76263  0.78619  1.0000
  C   C67       1.0  0.9325599999999997  0.44352  0.65822  1.0000
  C   C68       1.0  0.9974899999999999  0.50162  0.52066  1.0000
  C   C69       1.0  0.9801  0.5071  0.644  1.0000
  C   C70       1.0  0.52971  0.89973  0.98056  1.0000
  C   C71       1.0  0.59947  0.77511  0.79816  1.0000
  C   C72       1.0  0.51629  0.9687599999999998  0.90897  1.0000
  C   C73       1.0  0.50745  0.9778400000000002  0.9817099999999999  1.0000
  C   C74       1.0  0.5576  0.84771  0.87223  1.0000
  C   C75       1.0  0.89935  0.54435  0.54139  1.0000
  C   C76       1.0  0.7048499999999999  0.79953  0.82147  1.0000
  C   C77       1.0  0.014989999999999998  0.56499  0.70959  1.0000
  C   C78       1.0  0.9287699999999999  0.4395299999999999  0.69838  1.0000
  C   C79       1.0  0.45166  0.82202  0.84969  1.0000
  C   C80       1.0  0.87082  0.37029  0.71063  1.0000
  C   C81       1.0  0.8907099999999999  0.54764  0.58431  1.0000
  C   C82       1.0  0.02048  0.56815  0.66934  1.0000
  C   C83       1.0  0.53711  0.8669  0.01489  1.0000
  C   C84       1.0  0.47795  0.08962000000000002  0.9491000000000002  1.0000
  C   C85       1.0  0.49997  0.013039999999999987  0.94728  1.0000
  C   C86       1.0  0.5454  0.85286  0.9428300000000001  1.0000
  C   C87       1.0  0.08683  0.46386000000000005  0.58303  1.0000
  C   C88       1.0  0.09054  0.4618  0.54016  1.0000
  C   C89       1.0  0.81427  0.57991  0.48086  1.0000
  C   C90       1.0  0.8091699999999998  0.58291  0.5215  1.0000
  C   C91       1.0  0.9711899999999998  0.9997900000000001  0.27565  1.0000
  C   C92       1.0  0.68413  0.66341  0.1415  1.0000
  C   C93       1.0  0.05340999999999999  0.86672  0.26431  1.0000
  C   C94       1.0  0.47286999999999996  0.71458  0.18777  1.0000
  C   C95       1.0  0.83894  0.71009  0.19461  1.0000
  C   C96       1.0  0.36218  0.73748  0.21382  1.0000
  C   C97       1.0  0.93269  0.056389999999999996  0.34174  1.0000
  C   C98       1.0  0.9974799999999999  0.9983799999999999  0.47934  1.0000
  C   C99       1.0  0.98017  0.9928200000000001  0.35599  1.0000
  C   C100      1.0  0.5297  0.60027  0.01946  1.0000
  C   C101      1.0  0.59937  0.7246  0.20202  1.0000
  C   C102      1.0  0.51642  0.53123  0.09105  1.0000
  C   C103      1.0  0.50745  0.52216  0.0183  1.0000
  C   C104      1.0  0.5579399999999999  0.65217  0.12788  1.0000
  C   C105      1.0  0.89935  0.95565  0.45861  1.0000
  C   C106      1.0  0.7049199999999999  0.69968  0.1789  1.0000
  C   C107      1.0  0.015199999999999998  0.9348800000000002  0.29041  1.0000
  C   C108      1.0  0.9288899999999999  0.06035999999999999  0.30158  1.0000
  C   C109      1.0  0.4519  0.67808  0.15032  1.0000
  C   C110      1.0  0.8709299999999998  0.12963  0.28933  1.0000
  C   C111      1.0  0.8907099999999999  0.95235  0.41568  1.0000
  C   C112      1.0  0.02059  0.93175  0.33066  1.0000
  C   C113      1.0  0.53707  0.63308  0.98512  1.0000
  C   C114      1.0  0.47793  0.4104  0.05089  1.0000
  C   C115      1.0  0.49996  0.48698  0.05273  1.0000
  C   C116      1.0  0.54552  0.64714  0.05722  1.0000
  C   C117      1.0  0.08680999999999998  0.036120000000000006  0.41696  1.0000
  C   C118      1.0  0.09051999999999999  0.038189999999999995  0.45984  1.0000
  C   C119      1.0  0.8143  0.9201  0.51915  1.0000
  C   C120      1.0  0.80918  0.9170900000000001  0.4785  1.0000
  N   N1        1.0  0.46274  0.10918  0.09051  1.0000
  N   N2        1.0  0.012239999999999997  0.49188  0.3976  1.0000
  N   N3        1.0  0.4623099999999999  0.39083  0.90945  1.0000
  N   N4        1.0  0.012219999999999998  0.008149999999999987  0.60242  1.0000
  N   N5        1.0  0.53724  0.89081  0.90949  1.0000
  N   N6        1.0  0.9877499999999998  0.50811  0.6024  1.0000
  N   N7        1.0  0.53767  0.60916  0.09056  1.0000
  N   N8        1.0  0.9877599999999999  0.9918399999999999  0.39759  1.0000
  O   O1        1.0  0.60968  0.25854  0.24984  1.0000
  O   O2        1.0  0.20240999999999998  0.66733  0.31489  1.0000
  O   O3        1.0  0.19463  0.41830000000000006  0.3965  1.0000
  O   O4        1.0  0.8365599999999997  0.57046  0.39861  1.0000
  O   O5        1.0  0.8957599999999998  0.31275  0.28126  1.0000
  O   O6        1.0  0.9669999999999997  0.35948  0.22844  1.0000
  O   O7        1.0  0.11128  0.65154  0.256  1.0000
  O   O8        1.0  0.7534999999999998  0.23312000000000002  0.20115  1.0000
  O   O9        1.0  0.06402  0.20001  0.17051  1.0000
  O   O10       1.0  0.14308999999999997  0.23241000000000003  0.22999  1.0000
  O   O11       1.0  0.43522  0.21505  0.06040999999999999  1.0000
  O   O12       1.0  0.48706999999999995  0.003930000000000003  0.12179000000000001  1.0000
  O   O13       1.0  0.6096499999999999  0.24143  0.75013  1.0000
  O   O14       1.0  0.20228999999999994  0.8327399999999999  0.68515  1.0000
  O   O15       1.0  0.19464  0.0817  0.60351  1.0000
  O   O16       1.0  0.83658  0.92954  0.60139  1.0000
  O   O17       1.0  0.8959699999999998  0.18765  0.71879  1.0000
  O   O18       1.0  0.96699  0.14062000000000002  0.77156  1.0000
  O   O19       1.0  0.11123  0.84842  0.74403  1.0000
  O   O20       1.0  0.75349  0.26669  0.79886  1.0000
  O   O21       1.0  0.06353  0.30326  0.82829  1.0000
  O   O22       1.0  0.14371  0.26719  0.76949  1.0000
  O   O23       1.0  0.43521  0.28493  0.93957  1.0000
  O   O24       1.0  0.4870799999999999  0.49609000000000003  0.8782  1.0000
  O   O25       1.0  0.39030999999999993  0.74146  0.75017  1.0000
  O   O26       1.0  0.79757  0.33267  0.68512  1.0000
  O   O27       1.0  0.8053499999999999  0.5817  0.6035  1.0000
  O   O28       1.0  0.16343  0.42954  0.60139  1.0000
  O   O29       1.0  0.10423  0.68724  0.71874  1.0000
  O   O30       1.0  0.03299  0.64052  0.77156  1.0000
  O   O31       1.0  0.8887  0.34845  0.744  1.0000
  O   O32       1.0  0.24649  0.76687  0.79885  1.0000
  O   O33       1.0  0.9359699999999999  0.79999  0.8295  1.0000
  O   O34       1.0  0.85689  0.76757  0.77002  1.0000
  O   O35       1.0  0.56476  0.78494  0.9396000000000001  1.0000
  O   O36       1.0  0.51291  0.99606  0.87821  1.0000
  O   O37       1.0  0.39032999999999995  0.75857  0.24986999999999998  1.0000
  O   O38       1.0  0.7977  0.16725  0.31486  1.0000
  O   O39       1.0  0.8053399999999998  0.9182900000000002  0.39649  1.0000
  O   O40       1.0  0.1634  0.07045  0.39862  1.0000
  O   O41       1.0  0.10401  0.81234  0.28121  1.0000
  O   O42       1.0  0.03299  0.85938  0.22845  1.0000
  O   O43       1.0  0.88875  0.15158  0.25597  1.0000
  O   O44       1.0  0.24649  0.7333  0.20115  1.0000
  O   O45       1.0  0.93645  0.69674  0.17171  1.0000
  O   O46       1.0  0.8562699999999999  0.7328  0.23052  1.0000
  O   O47       1.0  0.5647699999999999  0.71507  0.060430000000000005  1.0000
  O   O48       1.0  0.5129  0.50391  0.1218  1.0000
