data_image0
_chemical_formula_structural       Zn3H64C98N6O12
_chemical_formula_sum              "Zn3 H64 C98 N6 O12"
_cell_length_a       9.27705
_cell_length_b       17.65671
_cell_length_c       19.73914
_cell_angle_alpha    76.69448
_cell_angle_beta     83.13149000000001
_cell_angle_gamma    88.96452999999998

_space_group_name_H-M_alt    "P 1"
_space_group_IT_number       1

loop_
  _space_group_symop_operation_xyz
  'x, y, z'

loop_
  _atom_site_type_symbol
  _atom_site_label
  _atom_site_symmetry_multiplicity
  _atom_site_fract_x
  _atom_site_fract_y
  _atom_site_fract_z
  _atom_site_occupancy
  Zn  Zn1       1.0  0.13166  0.95627  0.00869  1.0000
  Zn  Zn2       1.0  0.86834  0.04375000000000001  0.99131  1.0000
  Zn  Zn3       1.0  0.0030600000000000037  0.5016100000000001  0.9996  1.0000
  H   H1        1.0  0.28523  0.043930000000000004  0.18183  1.0000
  H   H2        1.0  0.25683  0.16982  0.37334  1.0000
  H   H3        1.0  0.3449900000000001  0.12848  0.26054  1.0000
  H   H4        1.0  0.3208500000000001  0.26631000000000005  0.4394799999999999  1.0000
  H   H5        1.0  0.55234  0.88367  0.14223  1.0000
  H   H6        1.0  0.9224799999999999  0.38925  0.5703  1.0000
  H   H7        1.0  0.95923  0.26105  0.21776999999999996  1.0000
  H   H8        1.0  0.4182699999999999  0.7696  0.22126999999999997  1.0000
  H   H9        1.0  0.93849  0.7472700000000002  0.13432  1.0000
  H   H10       1.0  0.20733999999999997  0.45253  0.27285  1.0000
  H   H11       1.0  0.8310699999999998  0.36800000000000016  0.82019  1.0000
  H   H12       1.0  0.8069400000000001  0.6333900000000001  0.21222999999999997  1.0000
  H   H13       1.0  0.90108  0.17584  0.13943  1.0000
  H   H14       1.0  0.14298999999999998  0.35747000000000007  0.20687  1.0000
  H   H15       1.0  0.40647  0.68536  0.33922  1.0000
  H   H16       1.0  0.44639999999999996  0.4482200000000002  0.49852  1.0000
  H   H17       1.0  0.90313  0.34654  0.70058  1.0000
  H   H18       1.0  0.34373  0.13699000000000003  0.0319  1.0000
  H   H19       1.0  0.27472999999999986  0.4764900000000001  0.90259  1.0000
  H   H20       1.0  0.46799  0.3773000000000001  0.8943299999999998  1.0000
  H   H21       1.0  0.5131999999999999  0.4262500000000001  0.2888899999999999  1.0000
  H   H22       1.0  0.24862  0.23442000000000002  0.08557  1.0000
  H   H23       1.0  0.6677600000000001  0.3192  0.94465  1.0000
  H   H24       1.0  0.03288  0.38257  0.45126  1.0000
  H   H25       1.0  0.19219999999999995  0.54459  0.65541  1.0000
  H   H26       1.0  0.33551999999999993  0.4587600000000001  0.61601  1.0000
  H   H27       1.0  0.54276  0.04139  0.02978  1.0000
  H   H28       1.0  0.63705  0.54311  0.21333  1.0000
  H   H29       1.0  0.12245000000000003  0.56361  0.7755199999999999  1.0000
  H   H30       1.0  0.2832  0.5679600000000001  0.41564  1.0000
  H   H31       1.0  0.8494399999999998  0.21405999999999997  0.94115  1.0000
  H   H32       1.0  0.06773999999999998  0.3402600000000001  0.08588  1.0000
  H   H33       1.0  0.71478  0.9560700000000001  0.8181599999999998  1.0000
  H   H34       1.0  0.7431699999999999  0.8301800000000003  0.62666  1.0000
  H   H35       1.0  0.65502  0.8715200000000001  0.73945  1.0000
  H   H36       1.0  0.67915  0.7336900000000001  0.56052  1.0000
  H   H37       1.0  0.44766  0.11633000000000002  0.85777  1.0000
  H   H38       1.0  0.07753  0.61075  0.42971  1.0000
  H   H39       1.0  0.04077000000000001  0.7389500000000001  0.78222  1.0000
  H   H40       1.0  0.5817299999999999  0.2304  0.77873  1.0000
  H   H41       1.0  0.06152000000000006  0.2527400000000001  0.8656799999999999  1.0000
  H   H42       1.0  0.7926900000000001  0.5474599999999998  0.72715  1.0000
  H   H43       1.0  0.16913000000000003  0.6321700000000002  0.17984999999999998  1.0000
  H   H44       1.0  0.19304999999999997  0.36661  0.78777  1.0000
  H   H45       1.0  0.09894000000000004  0.82417  0.8605599999999999  1.0000
  H   H46       1.0  0.85702  0.6425200000000001  0.79312  1.0000
  H   H47       1.0  0.59354  0.3146399999999999  0.66078  1.0000
  H   H48       1.0  0.55361  0.55177  0.50147  1.0000
  H   H49       1.0  0.09689000000000002  0.6535100000000003  0.29945  1.0000
  H   H50       1.0  0.6563000000000001  0.8629700000000001  0.9681099999999999  1.0000
  H   H51       1.0  0.7263399999999999  0.52351  0.09716  1.0000
  H   H52       1.0  0.53239  0.62241  0.10552  1.0000
  H   H53       1.0  0.48680000000000007  0.57375  0.7111  1.0000
  H   H54       1.0  0.7510099999999997  0.7657200000000001  0.9142699999999999  1.0000
  H   H55       1.0  0.33229  0.68077  0.05539  1.0000
  H   H56       1.0  0.9671199999999999  0.6174300000000001  0.54874  1.0000
  H   H57       1.0  0.80791  0.45546  0.34448  1.0000
  H   H58       1.0  0.66448  0.5412300000000001  0.38398999999999994  1.0000
  H   H59       1.0  0.45729  0.95857  0.97022  1.0000
  H   H60       1.0  0.36293  0.45689  0.7866499999999998  1.0000
  H   H61       1.0  0.87777  0.43649  0.22439  1.0000
  H   H62       1.0  0.7168200000000001  0.43203  0.58436  1.0000
  H   H63       1.0  0.15059  0.78593  0.05885  1.0000
  H   H64       1.0  0.9324599999999998  0.6602600000000001  0.91391  1.0000
  C   C1        1.0  0.21425  0.09132  0.19063  1.0000
  C   C2        1.0  0.24650999999999995  0.23178  0.351  1.0000
  C   C3        1.0  0.24686999999999998  0.1385  0.23469  1.0000
  C   C4        1.0  0.28203000000000006  0.28554  0.3884699999999999  1.0000
  C   C5        1.0  0.9511199999999999  0.47518000000000005  0.8804699999999999  1.0000
  C   C6        1.0  0.60695  0.8286  0.15851  1.0000
  C   C7        1.0  0.03727999999999999  0.40277  0.55492  1.0000
  C   C8        1.0  0.031170000000000017  0.21372000000000002  0.20967999999999995  1.0000
  C   C9        1.0  0.09064999999999998  0.10550000000000001  0.15518999999999997  1.0000
  C   C10       1.0  0.53267  0.76469  0.20286  1.0000
  C   C11       1.0  0.8244599999999999  0.7516000000000003  0.1533  1.0000
  C   C12       1.0  0.21761999999999998  0.3906  0.29465  1.0000
  C   C13       1.0  0.9103099999999998  0.40646000000000004  0.7838  1.0000
  C   C14       1.0  0.19586  0.25646  0.2851  1.0000
  C   C15       1.0  0.75005  0.6877400000000001  0.19677  1.0000
  C   C16       1.0  0.99774  0.16624  0.16636  1.0000
  C   C17       1.0  0.18156000000000003  0.33685  0.25784  1.0000
  C   C18       1.0  0.75393  0.82274  0.13347  1.0000
  C   C19       1.0  0.4281  0.6288  0.32717  1.0000
  C   C20       1.0  0.24573  0.41852000000000006  0.46577999999999997  1.0000
  C   C21       1.0  0.33064  0.43796000000000007  0.51367  1.0000
  C   C22       1.0  0.06056  0.06028000000000001  0.10264  1.0000
  C   C23       1.0  0.95047  0.39479000000000003  0.7163999999999999  1.0000
  C   C24       1.0  0.4541799999999999  0.15767  0.0125  1.0000
  C   C25       1.0  0.27560000000000007  0.42245000000000005  0.9423699999999999  1.0000
  C   C26       1.0  0.38241  0.36697  0.93826  1.0000
  C   C27       1.0  0.48905999999999994  0.48308000000000006  0.29969  1.0000
  C   C28       1.0  0.4880399999999999  0.23722999999999994  0.98807  1.0000
  C   C29       1.0  0.25924  0.28689  0.04366  1.0000
  C   C30       1.0  0.63295  0.2584199999999999  0.96202  1.0000
  C   C31       1.0  0.15745  0.20152000000000003  0.24376  1.0000
  C   C32       1.0  0.6031199999999999  0.69301  0.22264999999999996  1.0000
  C   C33       1.0  0.38567  0.48887  0.35654  1.0000
  C   C34       1.0  0.5277  0.6239  0.26879  1.0000
  C   C35       1.0  0.09889999999999999  0.39864000000000005  0.48779999999999996  1.0000
  C   C36       1.0  0.11467999999999999  0.50494  0.69161  1.0000
  C   C37       1.0  0.11855000000000003  0.42854000000000003  0.60116  1.0000
  C   C38       1.0  0.26772  0.4439600000000001  0.57958  1.0000
  C   C39       1.0  0.0574  0.44228  0.66984  1.0000
  C   C40       1.0  0.97566  0.46608  0.8063599999999999  1.0000
  C   C41       1.0  0.56406  0.10345  0.01022  1.0000
  C   C42       1.0  0.37569  0.2972099999999999  0.98992  1.0000
  C   C43       1.0  0.26881  0.36547  0.36002  1.0000
  C   C44       1.0  0.55762  0.54928  0.25686  1.0000
  C   C45       1.0  0.8358499999999999  0.89056  0.086  1.0000
  C   C46       1.0  0.07557  0.51617  0.75856  1.0000
  C   C47       1.0  0.35890999999999995  0.56279  0.37055999999999994  1.0000
  C   C48       1.0  0.7359699999999999  0.20052000000000003  0.96075  1.0000
  C   C49       1.0  0.1578  0.34576  0.04435999999999999  1.0000
  C   C50       1.0  0.78576  0.90868  0.80936  1.0000
  C   C51       1.0  0.7534899999999999  0.7682199999999999  0.649  1.0000
  C   C52       1.0  0.7531299999999999  0.8615000000000003  0.7653  1.0000
  C   C53       1.0  0.71798  0.71446  0.61153  1.0000
  C   C54       1.0  0.04893000000000001  0.52474  0.11950999999999999  1.0000
  C   C55       1.0  0.39305  0.17141000000000003  0.84149  1.0000
  C   C56       1.0  0.96273  0.59724  0.44506999999999997  1.0000
  C   C57       1.0  0.9688299999999999  0.7862800000000003  0.79031  1.0000
  C   C58       1.0  0.9093600000000001  0.8944999999999999  0.8448000000000001  1.0000
  C   C59       1.0  0.46733  0.23532  0.79713  1.0000
  C   C60       1.0  0.17554000000000003  0.2484  0.8466899999999999  1.0000
  C   C61       1.0  0.7823999999999999  0.60939  0.7053499999999999  1.0000
  C   C62       1.0  0.08986999999999999  0.59366  0.21616999999999997  1.0000
  C   C63       1.0  0.80414  0.7435300000000004  0.7148999999999999  1.0000
  C   C64       1.0  0.24993999999999994  0.31226999999999994  0.80322  1.0000
  C   C65       1.0  0.0022700000000000545  0.8337600000000002  0.8336299999999998  1.0000
  C   C66       1.0  0.81844  0.66315  0.7421499999999999  1.0000
  C   C67       1.0  0.24608000000000005  0.17725999999999997  0.86652  1.0000
  C   C68       1.0  0.5719  0.3712  0.6728299999999999  1.0000
  C   C69       1.0  0.7542800000000001  0.58148  0.5342099999999999  1.0000
  C   C70       1.0  0.66938  0.5620300000000001  0.48632  1.0000
  C   C71       1.0  0.9394499999999999  0.9397200000000001  0.89736  1.0000
  C   C72       1.0  0.04958999999999997  0.60528  0.28359  1.0000
  C   C73       1.0  0.54585  0.84227  0.98752  1.0000
  C   C74       1.0  0.72528  0.57765  0.05749  1.0000
  C   C75       1.0  0.61799  0.6329200000000001  0.0616  1.0000
  C   C76       1.0  0.51094  0.51692  0.7003  1.0000
  C   C77       1.0  0.51199  0.76271  0.01196  1.0000
  C   C78       1.0  0.74066  0.7132700000000001  0.9561999999999999  1.0000
  C   C79       1.0  0.36709  0.7415500000000002  0.03802  1.0000
  C   C80       1.0  0.84255  0.79847  0.75623  1.0000
  C   C81       1.0  0.39687  0.30699000000000004  0.77734  1.0000
  C   C82       1.0  0.6143299999999999  0.51113  0.64345  1.0000
  C   C83       1.0  0.4723  0.37611  0.73121  1.0000
  C   C84       1.0  0.9011099999999999  0.6013700000000003  0.51219  1.0000
  C   C85       1.0  0.88543  0.49512999999999996  0.3083  1.0000
  C   C86       1.0  0.8814699999999999  0.57147  0.39882  1.0000
  C   C87       1.0  0.73231  0.5560300000000001  0.42041  1.0000
  C   C88       1.0  0.94265  0.55777  0.33013  1.0000
  C   C89       1.0  0.02466  0.53404  0.19355  1.0000
  C   C90       1.0  0.43598  0.8965100000000004  0.98979  1.0000
  C   C91       1.0  0.62438  0.70276  0.01003  1.0000
  C   C92       1.0  0.73122  0.6345200000000001  0.63998  1.0000
  C   C93       1.0  0.44238000000000005  0.45072  0.7431299999999998  1.0000
  C   C94       1.0  0.16415999999999997  0.10944000000000008  0.9139999999999999  1.0000
  C   C95       1.0  0.92466  0.4839300000000001  0.24135  1.0000
  C   C96       1.0  0.6411  0.43721  0.62943  1.0000
  C   C97       1.0  0.26406999999999997  0.79945  0.03926  1.0000
  C   C98       1.0  0.8425500000000001  0.65465  0.95551  1.0000
  N   N1        1.0  0.30911000000000005  0.4215  0.39616  1.0000
  N   N2        1.0  0.16534000000000001  0.41282000000000013  0.99478  1.0000
  N   N3        1.0  0.7027299999999999  0.12409000000000005  0.98441  1.0000
  N   N4        1.0  0.6909099999999999  0.5785000000000001  0.60383  1.0000
  N   N5        1.0  0.8357399999999999  0.58766  0.00514  1.0000
  N   N6        1.0  0.29731  0.87588  0.015589999999999998  1.0000
  O   O1        1.0  0.87196  0.42877000000000004  0.92776  1.0000
  O   O2        1.0  0.973  0.88297  0.07388  1.0000
  O   O3        1.0  0.9425699999999999  0.07576  0.07563  1.0000
  O   O4        1.0  0.15683  0.012040000000000002  0.08767  1.0000
  O   O5        1.0  0.7629899999999998  0.95025  0.0606  1.0000
  O   O6        1.0  0.02390000000000001  0.53194  0.8931599999999998  1.0000
  O   O7        1.0  0.12772999999999998  0.57121  0.07172  1.0000
  O   O8        1.0  0.027010000000000017  0.11703000000000002  0.9261099999999999  1.0000
  O   O9        1.0  0.05742999999999999  0.9242300000000001  0.92437  1.0000
  O   O10       1.0  0.84317  0.9879500000000001  0.91233  1.0000
  O   O11       1.0  0.23703  0.04974000000000001  0.9393999999999999  1.0000
  O   O12       1.0  0.9766300000000001  0.46807  0.10676999999999999  1.0000
