data_image0
_chemical_formula_structural       Mn4H76C96S4N16O24
_chemical_formula_sum              "Mn4 H76 C96 S4 N16 O24"
_cell_length_a       8.59404
_cell_length_b       13.03094
_cell_length_c       26.85023
_cell_angle_alpha    93.25646
_cell_angle_beta     89.94947
_cell_angle_gamma    109.02323000000001

_space_group_name_H-M_alt    "P 1"
_space_group_IT_number       1

loop_
  _space_group_symop_operation_xyz
  'x, y, z'

loop_
  _atom_site_type_symbol
  _atom_site_label
  _atom_site_symmetry_multiplicity
  _atom_site_fract_x
  _atom_site_fract_y
  _atom_site_fract_z
  _atom_site_occupancy
  Mn  Mn1       1.0  0.91015  0.54064  0.20506  1.0000
  Mn  Mn2       1.0  0.36753  0.4586099999999999  0.29501  1.0000
  Mn  Mn3       1.0  0.08983999999999995  0.4593699999999999  0.79494  1.0000
  Mn  Mn4       1.0  0.6324600000000002  0.5414  0.7049900000000002  1.0000
  H   H1        1.0  0.46782000000000007  0.50011  0.10485  1.0000
  H   H2        1.0  0.31347  0.61156  0.13551  1.0000
  H   H3        1.0  0.12872000000000003  0.50377  0.12624  1.0000
  H   H4        1.0  0.9053700000000001  0.31016  0.084  1.0000
  H   H5        1.0  0.73132  0.3313  0.01327  1.0000
  H   H6        1.0  0.85738  0.38048  0.93081  1.0000
  H   H7        1.0  0.32809  0.39083  0.98865  1.0000
  H   H8        1.0  0.93494  0.32907  0.24138000000000004  1.0000
  H   H9        1.0  0.81655  0.12972  0.22529  1.0000
  H   H10       1.0  0.49723  0.19135999999999997  0.11383000000000003  1.0000
  H   H11       1.0  0.62581  0.3853299999999999  0.13567000000000004  1.0000
  H   H12       1.0  0.75703  0.97323  0.19298  1.0000
  H   H13       1.0  0.61985  0.77623  0.17314000000000004  1.0000
  H   H14       1.0  0.23645000000000002  0.83011  0.09842  1.0000
  H   H15       1.0  0.35511  0.029520000000000005  0.11492000000000002  1.0000
  H   H16       1.0  5.999999999998894e-05  0.69593  0.29493  1.0000
  H   H17       1.0  0.11727999999999993  0.8924499999999999  0.3180600000000001  1.0000
  H   H18       1.0  0.020390000000000012  0.95186  0.16599  1.0000
  H   H19       1.0  0.9057200000000002  0.75182  0.14939  1.0000
  H   H20       1.0  0.9708  0.50211  0.3954200000000001  1.0000
  H   H21       1.0  0.7053500000000001  0.3900599999999999  0.36615  1.0000
  H   H22       1.0  0.62814  0.49893999999999994  0.37483000000000005  1.0000
  H   H23       1.0  0.59558  0.69102  0.4165500000000001  1.0000
  H   H24       1.0  0.3989300000000001  0.66886  0.48705  1.0000
  H   H25       1.0  0.4751500000000001  0.61824  0.56942  1.0000
  H   H26       1.0  0.93713  0.60961  0.51179  1.0000
  H   H27       1.0  0.6048999999999999  0.6692599999999999  0.25812000000000007  1.0000
  H   H28       1.0  0.68713  0.86866  0.27470000000000006  1.0000
  H   H29       1.0  0.30623  0.8087099999999999  0.38619  1.0000
  H   H30       1.0  0.24003  0.61468  0.36391  1.0000
  H   H31       1.0  0.78329  0.02531  0.30696  1.0000
  H   H32       1.0  0.8425200000000003  0.22243999999999997  0.32688000000000006  1.0000
  H   H33       1.0  0.40592  0.17021  0.4016700000000001  1.0000
  H   H34       1.0  0.32557000000000014  0.9707700000000002  0.38501000000000013  1.0000
  H   H35       1.0  0.30325  0.30345  0.20532000000000006  1.0000
  H   H36       1.0  0.22519  0.10703999999999998  0.18226000000000006  1.0000
  H   H37       1.0  0.06797  0.04821000000000002  0.33431000000000005  1.0000
  H   H38       1.0  0.15117000000000003  0.24833000000000002  0.3507900000000001  1.0000
  H   H39       1.0  0.53218  0.4999  0.8951500000000001  1.0000
  H   H40       1.0  0.6865399999999999  0.38843999999999995  0.86449  1.0000
  H   H41       1.0  0.87128  0.49624  0.87376  1.0000
  H   H42       1.0  0.09464000000000002  0.68985  0.9160000000000003  1.0000
  H   H43       1.0  0.2686899999999999  0.6687199999999998  0.9867200000000003  1.0000
  H   H44       1.0  0.14263000000000006  0.61953  0.06919  1.0000
  H   H45       1.0  0.67192  0.60918  0.01135  1.0000
  H   H46       1.0  0.06505999999999994  0.6709399999999999  0.7586200000000001  1.0000
  H   H47       1.0  0.18345999999999998  0.8702899999999998  0.7747100000000002  1.0000
  H   H48       1.0  0.50278  0.80864  0.88617  1.0000
  H   H49       1.0  0.37419000000000013  0.61468  0.86433  1.0000
  H   H50       1.0  0.24298  0.026780000000000026  0.8070200000000002  1.0000
  H   H51       1.0  0.38015  0.22378  0.82686  1.0000
  H   H52       1.0  0.76356  0.1699  0.90157  1.0000
  H   H53       1.0  0.6449  0.97049  0.8850800000000001  1.0000
  H   H54       1.0  0.99995  0.30406999999999995  0.70507  1.0000
  H   H55       1.0  0.88273  0.10755999999999999  0.6819400000000001  1.0000
  H   H56       1.0  0.97962  0.04814999999999998  0.83401  1.0000
  H   H57       1.0  0.09429000000000001  0.24819000000000002  0.8506100000000002  1.0000
  H   H58       1.0  0.02919999999999994  0.49790999999999996  0.6045800000000001  1.0000
  H   H59       1.0  0.2946599999999999  0.6099499999999999  0.63385  1.0000
  H   H60       1.0  0.37187  0.50107  0.6251700000000002  1.0000
  H   H61       1.0  0.40442999999999996  0.309  0.58345  1.0000
  H   H62       1.0  0.60108  0.33115  0.5129500000000001  1.0000
  H   H63       1.0  0.52485  0.38177  0.43058  1.0000
  H   H64       1.0  0.06286999999999998  0.3904  0.48821  1.0000
  H   H65       1.0  0.3951  0.33075  0.74188  1.0000
  H   H66       1.0  0.31288  0.13135  0.7253000000000002  1.0000
  H   H67       1.0  0.69378  0.1913  0.6138100000000001  1.0000
  H   H68       1.0  0.75997  0.38532999999999995  0.6360800000000002  1.0000
  H   H69       1.0  0.2167200000000001  0.9747  0.69304  1.0000
  H   H70       1.0  0.15748  0.77757  0.6731200000000002  1.0000
  H   H71       1.0  0.59409  0.8298  0.5983300000000001  1.0000
  H   H72       1.0  0.67443  0.029239999999999995  0.61499  1.0000
  H   H73       1.0  0.6967599999999999  0.6965599999999998  0.7946800000000003  1.0000
  H   H74       1.0  0.77482  0.89297  0.8177400000000002  1.0000
  H   H75       1.0  0.9320399999999998  0.9517899999999999  0.66569  1.0000
  H   H76       1.0  0.84884  0.75168  0.64921  1.0000
  C   C1        1.0  0.25129  0.51085  0.19671000000000002  1.0000
  C   C2        1.0  0.25522  0.52381  0.14074  1.0000
  C   C3        1.0  0.12606  0.34954  0.04047  1.0000
  C   C4        1.0  0.95842  0.3325699999999999  0.04782  1.0000
  C   C5        1.0  0.8617500000000002  0.34408999999999995  0.00805  1.0000
  C   C6        1.0  0.93239  0.37211999999999995  0.9618400000000003  1.0000
  C   C7        1.0  0.10083000000000003  0.38936  0.9546700000000001  1.0000
  C   C8        1.0  0.19796000000000008  0.37798000000000004  0.9943700000000002  1.0000
  C   C9        1.0  0.17910999999999996  0.41913999999999996  0.9049100000000002  1.0000
  C   C10       1.0  0.83668  0.2941  0.21369000000000005  1.0000
  C   C11       1.0  0.76964  0.18232  0.20411  1.0000
  C   C12       1.0  0.64342  0.13969  0.16791000000000006  1.0000
  C   C13       1.0  0.59199  0.21537  0.14300000000000002  1.0000
  C   C14       1.0  0.66466  0.32609  0.15478  1.0000
  C   C15       1.0  0.56747  0.02098  0.15658000000000005  1.0000
  C   C16       1.0  0.64005  0.94593  0.17259000000000005  1.0000
  C   C17       1.0  0.56369  0.83501  0.16129  1.0000
  C   C18       1.0  0.3514900000000001  0.86492  0.11973  1.0000
  C   C19       1.0  0.41885  0.97722  0.12913  1.0000
  C   C20       1.0  0.0078399999999999  0.7553799999999999  0.26749  1.0000
  C   C21       1.0  0.07261999999999989  0.8660399999999998  0.28007000000000004  1.0000
  C   C22       1.0  0.07919000000000002  0.9409500000000001  0.24397000000000002  1.0000
  C   C23       1.0  0.02032999999999992  0.8982999999999998  0.19564000000000006  1.0000
  C   C24       1.0  0.9555199999999999  0.7865899999999999  0.18606  1.0000
  C   C25       1.0  0.73872  0.48806  0.30405  1.0000
  C   C26       1.0  0.73376  0.47755  0.36019  1.0000
  C   C27       1.0  0.77639  0.65073  0.45999  1.0000
  C   C28       1.0  0.62568  0.6679599999999998  0.4526400000000001  1.0000
  C   C29       1.0  0.51668  0.65603  0.49225000000000013  1.0000
  C   C30       1.0  0.55869  0.62731  0.53837  1.0000
  C   C31       1.0  0.70993  0.61004  0.54554  1.0000
  C   C32       1.0  0.8194100000000002  0.62196  0.50602  1.0000
  C   C33       1.0  0.75791  0.57987  0.59519  1.0000
  C   C34       1.0  0.54204  0.70466  0.28595  1.0000
  C   C35       1.0  0.58735  0.81647  0.29577  1.0000
  C   C36       1.0  0.5038899999999998  0.8595999999999999  0.33205000000000007  1.0000
  C   C37       1.0  0.37675  0.78438  0.35692  1.0000
  C   C38       1.0  0.33822  0.67365  0.34491  1.0000
  C   C39       1.0  0.5464599999999998  0.9783699999999999  0.34345  1.0000
  C   C40       1.0  0.6937200000000001  0.05299  0.32743  1.0000
  C   C41       1.0  0.72796  0.16399  0.3387900000000001  1.0000
  C   C42       1.0  0.48623  0.13501  0.38037  1.0000
  C   C43       1.0  0.44155  0.02267000000000001  0.3708900000000001  1.0000
  C   C44       1.0  0.25136  0.24423  0.23278000000000001  1.0000
  C   C45       1.0  0.20639000000000002  0.13354000000000002  0.22024000000000005  1.0000
  C   C46       1.0  0.13799  0.0588  0.25634  1.0000
  C   C47       1.0  0.12134  0.10167  0.30465  1.0000
  C   C48       1.0  0.16705  0.21341999999999994  0.31417  1.0000
  C   C49       1.0  0.7487100000000001  0.48916  0.80329  1.0000
  C   C50       1.0  0.7447800000000001  0.47620000000000007  0.8592600000000002  1.0000
  C   C51       1.0  0.87395  0.65047  0.9595300000000002  1.0000
  C   C52       1.0  0.04158999999999998  0.66744  0.9521800000000002  1.0000
  C   C53       1.0  0.13826  0.65592  0.9919500000000002  1.0000
  C   C54       1.0  0.06762999999999998  0.6279  0.038160000000000006  1.0000
  C   C55       1.0  0.89918  0.61065  0.045330000000000016  1.0000
  C   C56       1.0  0.8020500000000002  0.62203  0.005620000000000002  1.0000
  C   C57       1.0  0.8209  0.58087  0.09509  1.0000
  C   C58       1.0  0.16332  0.7059  0.7863000000000002  1.0000
  C   C59       1.0  0.23037  0.81769  0.7958800000000001  1.0000
  C   C60       1.0  0.3565900000000001  0.8603200000000001  0.8320900000000002  1.0000
  C   C61       1.0  0.40802  0.78463  0.8570000000000002  1.0000
  C   C62       1.0  0.33535  0.67392  0.8452200000000002  1.0000
  C   C63       1.0  0.43253  0.97902  0.8434200000000001  1.0000
  C   C64       1.0  0.35996  0.05408000000000002  0.8274100000000001  1.0000
  C   C65       1.0  0.43632000000000015  0.16499999999999998  0.8387100000000002  1.0000
  C   C66       1.0  0.64852  0.13508  0.8802700000000001  1.0000
  C   C67       1.0  0.58115  0.022790000000000026  0.8708700000000003  1.0000
  C   C68       1.0  0.99217  0.24462  0.7325100000000002  1.0000
  C   C69       1.0  0.92739  0.13396  0.71993  1.0000
  C   C70       1.0  0.92082  0.05906000000000003  0.7560300000000001  1.0000
  C   C71       1.0  0.97967  0.10170000000000001  0.8043500000000001  1.0000
  C   C72       1.0  0.044480000000000006  0.21342000000000003  0.8139400000000002  1.0000
  C   C73       1.0  0.26128  0.51195  0.6959500000000002  1.0000
  C   C74       1.0  0.26624  0.52246  0.63981  1.0000
  C   C75       1.0  0.22362  0.34928  0.5400100000000001  1.0000
  C   C76       1.0  0.3743300000000001  0.33205  0.54736  1.0000
  C   C77       1.0  0.4833200000000001  0.34399  0.5077500000000001  1.0000
  C   C78       1.0  0.44131  0.3727  0.4616300000000001  1.0000
  C   C79       1.0  0.29008  0.38997  0.45446000000000003  1.0000
  C   C80       1.0  0.18059  0.37804999999999994  0.4939800000000001  1.0000
  C   C81       1.0  0.24209000000000003  0.42014  0.40481  1.0000
  C   C82       1.0  0.45797  0.2953499999999999  0.71405  1.0000
  C   C83       1.0  0.4126600000000001  0.18354  0.7042300000000002  1.0000
  C   C84       1.0  0.49612  0.14041  0.66795  1.0000
  C   C85       1.0  0.62326  0.21563  0.64308  1.0000
  C   C86       1.0  0.6617800000000001  0.32636  0.65509  1.0000
  C   C87       1.0  0.45355  0.021640000000000034  0.6565500000000002  1.0000
  C   C88       1.0  0.30629  0.94702  0.67257  1.0000
  C   C89       1.0  0.27204000000000006  0.83602  0.66121  1.0000
  C   C90       1.0  0.51377  0.865  0.61963  1.0000
  C   C91       1.0  0.55846  0.97734  0.62911  1.0000
  C   C92       1.0  0.74864  0.75578  0.76722  1.0000
  C   C93       1.0  0.79362  0.86647  0.7797600000000002  1.0000
  C   C94       1.0  0.86201  0.94121  0.7436500000000003  1.0000
  C   C95       1.0  0.8786599999999999  0.8983399999999998  0.69535  1.0000
  C   C96       1.0  0.8329500000000001  0.7865899999999999  0.68583  1.0000
  S   S1        1.0  0.2531999999999999  0.33954999999999996  0.09089  1.0000
  S   S2        1.0  0.91419  0.66225  0.40966  1.0000
  S   S3        1.0  0.74681  0.6604599999999999  0.9091000000000002  1.0000
  S   S4        1.0  0.08583  0.33777  0.59034  1.0000
  N   N1        1.0  0.34413  0.46392999999999995  0.11223000000000002  1.0000
  N   N2        1.0  0.7858200000000002  0.36589  0.18959  1.0000
  N   N3        1.0  0.42077  0.79336  0.13541  1.0000
  N   N4        1.0  0.94732  0.7148  0.22136000000000006  1.0000
  N   N5        1.0  0.88402  0.53876  0.38739  1.0000
  N   N6        1.0  0.41909000000000013  0.63341  0.30993  1.0000
  N   N7        1.0  0.62686  0.20615  0.36476000000000003  1.0000
  N   N8        1.0  0.2301600000000001  0.28508  0.27881  1.0000
  N   N9        1.0  0.65588  0.53608  0.88778  1.0000
  N   N10       1.0  0.21419  0.63412  0.8104  1.0000
  N   N11       1.0  0.57924  0.20665000000000003  0.8645800000000002  1.0000
  N   N12       1.0  0.05267999999999999  0.2852  0.77864  1.0000
  N   N13       1.0  0.11598999999999994  0.46125999999999995  0.6126100000000002  1.0000
  N   N14       1.0  0.58091  0.3666  0.69007  1.0000
  N   N15       1.0  0.37315  0.79386  0.6352400000000002  1.0000
  N   N16       1.0  0.7698399999999999  0.7149299999999998  0.7211900000000002  1.0000
  O   O1        1.0  0.14022000000000007  0.53511  0.22186000000000006  1.0000
  O   O2        1.0  0.36082999999999993  0.4804999999999999  0.21684000000000006  1.0000
  O   O3        1.0  0.14193  0.27981  0.12851000000000004  1.0000
  O   O4        1.0  0.38244000000000017  0.29994  0.07063  1.0000
  O   O5        1.0  0.32631  0.4240399999999999  0.8987000000000003  1.0000
  O   O6        1.0  0.08393000000000003  0.43496000000000007  0.8709800000000001  1.0000
  O   O7        1.0  0.60169  0.45995  0.27999  1.0000
  O   O8        1.0  0.87684  0.52023  0.28296  1.0000
  O   O9        1.0  0.8601999999999999  0.7223799999999998  0.3726600000000001  1.0000
  O   O10       1.0  0.08267000000000001  0.70254  0.4295800000000001  1.0000
  O   O11       1.0  0.90038  0.5754400000000001  0.6014300000000002  1.0000
  O   O12       1.0  0.64668  0.56313  0.6290600000000001  1.0000
  O   O13       1.0  0.85978  0.46490000000000004  0.7781400000000003  1.0000
  O   O14       1.0  0.63917  0.51951  0.7831600000000001  1.0000
  O   O15       1.0  0.8580699999999999  0.7201899999999999  0.8714900000000002  1.0000
  O   O16       1.0  0.61757  0.70007  0.9293700000000001  1.0000
  O   O17       1.0  0.6737000000000002  0.57597  0.1013  1.0000
  O   O18       1.0  0.91608  0.56504  0.12901  1.0000
  O   O19       1.0  0.39831  0.54006  0.72001  1.0000
  O   O20       1.0  0.12315000000000004  0.47978  0.71703  1.0000
  O   O21       1.0  0.13981  0.27763  0.62734  1.0000
  O   O22       1.0  0.91733  0.29748  0.57042  1.0000
  O   O23       1.0  0.09961000000000003  0.42456  0.39857  1.0000
  O   O24       1.0  0.35333  0.4369  0.37094  1.0000
