data_image0
_chemical_formula_structural       Ni6H64C80N4O24
_chemical_formula_sum              "Ni6 H64 C80 N4 O24"
_cell_length_a       11.33231
_cell_length_b       11.606909999999997
_cell_length_c       19.41203
_cell_angle_alpha    89.99412
_cell_angle_beta     89.99595000000001
_cell_angle_gamma    116.19195

_symmetry_space_group_name_H-M    'P 1'
_symmetry_Int_Tables_number       1

loop_
  _symmetry_equiv_pos_as_xyz
  'x,y,z'

loop_
  _atom_site_type_symbol
  _atom_site_label
  _atom_site_symmetry_multiplicity
  _atom_site_fract_x
  _atom_site_fract_y
  _atom_site_fract_z
  _atom_site_occupancy
  Ni  Ni1       1.0  0.16407  0.82475  0.00929  1.0000
  Ni  Ni2       1.0  0.33647  0.67684  0.5093000000000001  1.0000
  Ni  Ni3       1.0  0.8359399999999999  0.17525  0.99071  1.0000
  Ni  Ni4       1.0  0.66352  0.32308  0.4907  1.0000
  Ni  Ni5       1.0  0.0  0.5  0.0  1.0000
  Ni  Ni6       1.0  0.49948  0.99919  0.50003  1.0000
  H   H1        1.0  0.15449  0.007190000000000001  0.06735  1.0000
  H   H2        1.0  0.28180000000000005  0.5143400000000001  0.94115  1.0000
  H   H3        1.0  0.49209000000000014  0.7400200000000001  0.11541000000000001  1.0000
  H   H4        1.0  0.35791  0.36507000000000006  0.88529  1.0000
  H   H5        1.0  0.20684  0.52842  0.81616  1.0000
  H   H6        1.0  0.3545  0.5298  0.7215  1.0000
  H   H7        1.0  0.43839999999999996  0.40645000000000003  0.6432400000000001  1.0000
  H   H8        1.0  0.25853000000000004  0.9949600000000002  0.6519800000000001  1.0000
  H   H9        1.0  0.11254000000000013  0.9960900000000003  0.74761  1.0000
  H   H10       1.0  0.04306000000000001  0.11809000000000001  0.82921  1.0000
  H   H11       1.0  0.37388  0.18462000000000003  0.06839  1.0000
  H   H12       1.0  0.36686  0.0341  0.09620000000000001  1.0000
  H   H13       1.0  0.42178  0.09147000000000001  0.01163  1.0000
  H   H14       1.0  0.20321  0.18174  0.98683  1.0000
  H   H15       1.0  0.2484  0.09225  0.92635  1.0000
  H   H16       1.0  0.08328  0.029530000000000004  0.95564  1.0000
  H   H17       1.0  0.34543  0.49309  0.56732  1.0000
  H   H18       1.0  0.2181500000000001  0.9854500000000002  0.44133999999999995  1.0000
  H   H19       1.0  0.007599999999999984  0.7601  0.6156600000000001  1.0000
  H   H20       1.0  0.14249  0.13468  0.38525  1.0000
  H   H21       1.0  0.29280999999999996  0.9713500000000002  0.31617  1.0000
  H   H22       1.0  0.14542999999999998  0.9703200000000001  0.22137  1.0000
  H   H23       1.0  0.06203  0.09366  0.14321  1.0000
  H   H24       1.0  0.24178999999999998  0.50517  0.15186  1.0000
  H   H25       1.0  0.3874  0.50397  0.24765  1.0000
  H   H26       1.0  0.45674  0.38157  0.32945  1.0000
  H   H27       1.0  0.12618000000000001  0.31567000000000006  0.56838  1.0000
  H   H28       1.0  0.133  0.46603  0.59616  1.0000
  H   H29       1.0  0.07824000000000003  0.40866  0.51162  1.0000
  H   H30       1.0  0.29687  0.31864  0.48693  1.0000
  H   H31       1.0  0.25168  0.40792  0.42637  1.0000
  H   H32       1.0  0.41673  0.47067  0.45566  1.0000
  H   H33       1.0  0.84551  0.99281  0.93265  1.0000
  H   H34       1.0  0.7182  0.48566  0.05885  1.0000
  H   H35       1.0  0.50791  0.25998  0.8845800000000001  1.0000
  H   H36       1.0  0.64209  0.6349300000000001  0.11471  1.0000
  H   H37       1.0  0.79316  0.47158  0.18383  1.0000
  H   H38       1.0  0.6455  0.4702000000000001  0.2785  1.0000
  H   H39       1.0  0.5616  0.59355  0.35676  1.0000
  H   H40       1.0  0.7414699999999997  0.005040000000000001  0.34801  1.0000
  H   H41       1.0  0.88746  0.00391  0.25238  1.0000
  H   H42       1.0  0.9569399999999999  0.8819100000000001  0.17079  1.0000
  H   H43       1.0  0.6261100000000002  0.8153800000000001  0.9316100000000002  1.0000
  H   H44       1.0  0.6331400000000001  0.9659000000000002  0.9038000000000002  1.0000
  H   H45       1.0  0.57822  0.9085300000000002  0.9883700000000001  1.0000
  H   H46       1.0  0.79679  0.81826  0.01317  1.0000
  H   H47       1.0  0.7516  0.9077500000000001  0.07365  1.0000
  H   H48       1.0  0.9167199999999998  0.97047  0.04436  1.0000
  H   H49       1.0  0.65456  0.50688  0.43268000000000006  1.0000
  H   H50       1.0  0.78185  0.014560000000000003  0.55866  1.0000
  H   H51       1.0  0.9923899999999999  0.2399  0.38434  1.0000
  H   H52       1.0  0.8575000000000002  0.8653200000000001  0.61475  1.0000
  H   H53       1.0  0.70719  0.028650000000000005  0.68383  1.0000
  H   H54       1.0  0.8545699999999999  0.029680000000000005  0.77862  1.0000
  H   H55       1.0  0.9379699999999999  0.9063400000000003  0.8567800000000001  1.0000
  H   H56       1.0  0.75821  0.4948300000000001  0.84813  1.0000
  H   H57       1.0  0.6126  0.49603  0.7523500000000001  1.0000
  H   H58       1.0  0.54326  0.61843  0.6705500000000001  1.0000
  H   H59       1.0  0.87382  0.6843300000000001  0.43162000000000006  1.0000
  H   H60       1.0  0.867  0.53397  0.40384  1.0000
  H   H61       1.0  0.92176  0.59134  0.48838  1.0000
  H   H62       1.0  0.70314  0.68135  0.51307  1.0000
  H   H63       1.0  0.74831  0.59207  0.57363  1.0000
  H   H64       1.0  0.58327  0.52932  0.54434  1.0000
  C   C1        1.0  0.29794  0.70399  0.025830000000000002  1.0000
  C   C2        1.0  0.37913000000000013  0.6333200000000001  0.027500000000000004  1.0000
  C   C3        1.0  0.36176  0.5408  0.97809  1.0000
  C   C4        1.0  0.44799  0.48225  0.9750700000000001  1.0000
  C   C5        1.0  0.48154999999999987  0.66778  0.07708  1.0000
  C   C6        1.0  0.4351699999999999  0.38983  0.92374  1.0000
  C   C7        1.0  0.030549999999999997  0.32242  0.8871800000000001  1.0000
  C   C8        1.0  0.11532999999999997  0.32206  0.82796  1.0000
  C   C9        1.0  0.20439  0.43933  0.79701  1.0000
  C   C10       1.0  0.28614  0.4391900000000001  0.74442  1.0000
  C   C11       1.0  0.36554  0.31772  0.66599  1.0000
  C   C12       1.0  0.35664  0.20139000000000004  0.64238  1.0000
  C   C13       1.0  0.26386  0.08444000000000002  0.67205  1.0000
  C   C14       1.0  0.1835  0.08567  0.72481  1.0000
  C   C15       1.0  0.19086  0.20352000000000003  0.7500800000000001  1.0000
  C   C16       1.0  0.28253  0.32229  0.71951  1.0000
  C   C17       1.0  0.11005  0.20718  0.8046400000000001  1.0000
  C   C18       1.0  0.44336999999999993  0.19542  0.5855  1.0000
  C   C19       1.0  0.35304  0.08663  0.05253  1.0000
  C   C20       1.0  0.18602  0.08491000000000001  0.9708200000000001  1.0000
  C   C21       1.0  0.20244  0.79717  0.52593  1.0000
  C   C22       1.0  0.12069999999999999  0.86702  0.52779  1.0000
  C   C23       1.0  0.13812  0.95925  0.47822  1.0000
  C   C24       1.0  0.05198  0.01771  0.47505  1.0000
  C   C25       1.0  0.01815  0.83232  0.5773  1.0000
  C   C26       1.0  0.06513  0.11012000000000001  0.4236500000000001  1.0000
  C   C27       1.0  0.46875999999999995  0.17666  0.38708  1.0000
  C   C28       1.0  0.38416  0.17757  0.328  1.0000
  C   C29       1.0  0.29526  0.06042  0.297  1.0000
  C   C30       1.0  0.21381000000000006  0.0608  0.24434000000000003  1.0000
  C   C31       1.0  0.13472  0.18244  0.16594000000000003  1.0000
  C   C32       1.0  0.14343  0.29875000000000007  0.1423  1.0000
  C   C33       1.0  0.23628999999999992  0.4156500000000001  0.17199  1.0000
  C   C34       1.0  0.3166  0.4143900000000001  0.22479  1.0000
  C   C35       1.0  0.30923  0.29653  0.2501  1.0000
  C   C36       1.0  0.21766000000000005  0.17782000000000003  0.21947000000000003  1.0000
  C   C37       1.0  0.38969999999999994  0.29262  0.30477  1.0000
  C   C38       1.0  0.05614000000000003  0.3047500000000001  0.08558  1.0000
  C   C39       1.0  0.14702999999999994  0.41367  0.5525  1.0000
  C   C40       1.0  0.31401000000000007  0.41546000000000005  0.47088  1.0000
  C   C41       1.0  0.70206  0.29601  0.97417  1.0000
  C   C42       1.0  0.62087  0.36668000000000006  0.9725000000000001  1.0000
  C   C43       1.0  0.63824  0.4592  0.02191  1.0000
  C   C44       1.0  0.55201  0.5177500000000002  0.02493  1.0000
  C   C45       1.0  0.51845  0.33222  0.92292  1.0000
  C   C46       1.0  0.56483  0.61017  0.07626  1.0000
  C   C47       1.0  0.9694499999999999  0.6775800000000001  0.11282  1.0000
  C   C48       1.0  0.8846699999999998  0.67794  0.17204  1.0000
  C   C49       1.0  0.7956099999999999  0.56067  0.20299  1.0000
  C   C50       1.0  0.7138599999999999  0.5608  0.25558  1.0000
  C   C51       1.0  0.6344700000000001  0.6822700000000002  0.334  1.0000
  C   C52       1.0  0.64336  0.7985900000000001  0.35761  1.0000
  C   C53       1.0  0.73614  0.9155600000000002  0.32795  1.0000
  C   C54       1.0  0.8164999999999999  0.9143300000000001  0.27519  1.0000
  C   C55       1.0  0.80914  0.79648  0.24991  1.0000
  C   C56       1.0  0.71747  0.67771  0.28048  1.0000
  C   C57       1.0  0.88995  0.79282  0.19535  1.0000
  C   C58       1.0  0.55662  0.8045  0.41448  1.0000
  C   C59       1.0  0.6469599999999999  0.9133700000000002  0.9474600000000001  1.0000
  C   C60       1.0  0.81398  0.91509  0.029180000000000005  1.0000
  C   C61       1.0  0.79746  0.20277  0.47409  1.0000
  C   C62       1.0  0.8792899999999999  0.13298000000000001  0.47222  1.0000
  C   C63       1.0  0.8618799999999999  0.04075000000000001  0.52178  1.0000
  C   C64       1.0  0.94802  0.9822900000000001  0.52495  1.0000
  C   C65       1.0  0.98184  0.16768000000000002  0.4227000000000001  1.0000
  C   C66       1.0  0.9348700000000001  0.8898800000000001  0.57635  1.0000
  C   C67       1.0  0.53122  0.82327  0.61294  1.0000
  C   C68       1.0  0.61584  0.82242  0.67201  1.0000
  C   C69       1.0  0.7047399999999999  0.9395800000000001  0.7030000000000001  1.0000
  C   C70       1.0  0.7861899999999999  0.9392  0.75566  1.0000
  C   C71       1.0  0.86528  0.8175600000000001  0.83406  1.0000
  C   C72       1.0  0.8565699999999998  0.70125  0.8577  1.0000
  C   C73       1.0  0.7637  0.58435  0.82801  1.0000
  C   C74       1.0  0.6833999999999999  0.58561  0.77521  1.0000
  C   C75       1.0  0.69077  0.70346  0.7499000000000001  1.0000
  C   C76       1.0  0.78234  0.82218  0.78053  1.0000
  C   C77       1.0  0.6103  0.70737  0.69523  1.0000
  C   C78       1.0  0.94386  0.69525  0.9144200000000001  1.0000
  C   C79       1.0  0.8529599999999999  0.58632  0.44750000000000006  1.0000
  C   C80       1.0  0.68599  0.58454  0.52912  1.0000
  N   N1        1.0  0.21615999999999996  0.01601  0.027  1.0000
  N   N2        1.0  0.28389000000000003  0.4845800000000001  0.5269700000000002  1.0000
  N   N3        1.0  0.7838399999999999  0.98399  0.9730000000000001  1.0000
  N   N4        1.0  0.71611  0.51541  0.47303  1.0000
  O   O1        1.0  0.33601  0.8117600000000001  0.055689999999999996  1.0000
  O   O2        1.0  0.18993999999999997  0.66224  0.98944  1.0000
  O   O3        1.0  0.05422000000000001  0.43023000000000006  0.91323  1.0000
  O   O4        1.0  0.94256  0.21160000000000004  0.9062300000000001  1.0000
  O   O5        1.0  0.42111999999999983  0.08383000000000002  0.5657100000000002  1.0000
  O   O6        1.0  0.5304899999999999  0.30324  0.56228  1.0000
  O   O7        1.0  0.16557  0.6894500000000001  0.55574  1.0000
  O   O8        1.0  0.3099799999999999  0.8394700000000002  0.48923  1.0000
  O   O9        1.0  0.44602  0.06867  0.41262  1.0000
  O   O10       1.0  0.55572  0.28754  0.40659000000000006  1.0000
  O   O11       1.0  0.07779  0.41636  0.06597  1.0000
  O   O12       1.0  0.96926  0.19678  0.06234  1.0000
  O   O13       1.0  0.664  0.18824  0.94431  1.0000
  O   O14       1.0  0.8100599999999999  0.33776000000000006  0.01056  1.0000
  O   O15       1.0  0.94578  0.56977  0.08677  1.0000
  O   O16       1.0  0.05744000000000007  0.7884000000000001  0.09377  1.0000
  O   O17       1.0  0.5788000000000001  0.9160600000000001  0.43428  1.0000
  O   O18       1.0  0.4694899999999999  0.6967  0.43771  1.0000
  O   O19       1.0  0.8343899999999999  0.31053  0.44428000000000006  1.0000
  O   O20       1.0  0.68991  0.16037000000000004  0.51073  1.0000
  O   O21       1.0  0.55392  0.93124  0.58738  1.0000
  O   O22       1.0  0.44426  0.71241  0.59342  1.0000
  O   O23       1.0  0.92221  0.58364  0.9340300000000001  1.0000
  O   O24       1.0  0.03073999999999998  0.80322  0.93765  1.0000
