data_image0
_chemical_formula_structural       Mn8H40C88O32
_chemical_formula_sum              "Mn8 H40 C88 O32"
_cell_length_a       9.17154
_cell_length_b       14.22044
_cell_length_c       20.38076
_cell_angle_alpha    97.63671
_cell_angle_beta     101.16816
_cell_angle_gamma    106.83832

_symmetry_space_group_name_H-M    'P 1'
_symmetry_Int_Tables_number       1

loop_
  _symmetry_equiv_pos_as_xyz
  'x,y,z'

loop_
  _atom_site_type_symbol
  _atom_site_label
  _atom_site_symmetry_multiplicity
  _atom_site_fract_x
  _atom_site_fract_y
  _atom_site_fract_z
  _atom_site_occupancy
  Mn  Mn1       1.0  0.009489999999999974  0.56022  0.08024  1.0000
  Mn  Mn2       1.0  0.48374000000000017  0.9371400000000001  0.41805000000000003  1.0000
  Mn  Mn3       1.0  0.24684999999999999  0.74514  0.24832  1.0000
  Mn  Mn4       1.0  0.98928  0.4391799999999999  0.92024  1.0000
  Mn  Mn5       1.0  0.506  0.06248  0.57996  1.0000
  Mn  Mn6       1.0  0.7510800000000003  0.25446  0.75125  1.0000
  Mn  Mn7       1.0  0.49871  0.49947  0.00035  1.0000
  Mn  Mn8       1.0  0.9956700000000002  0.0011799999999999938  0.5003  1.0000
  H   H1        1.0  0.54726  0.66109  0.38726  1.0000
  H   H2        1.0  0.55282  0.48793  0.3903  1.0000
  H   H3        1.0  0.8728300000000001  0.59414  0.58921  1.0000
  H   H4        1.0  0.8692300000000001  0.76816  0.58531  1.0000
  H   H5        1.0  0.79924  0.23317  0.3998  1.0000
  H   H6        1.0  0.7014  0.43408  0.59243  1.0000
  H   H7        1.0  0.9374000000000001  0.56108  0.43683  1.0000
  H   H8        1.0  0.66807  0.28056  0.29818  1.0000
  H   H9        1.0  0.7522200000000003  0.35509999999999997  0.20224  1.0000
  H   H10       1.0  0.9986900000000001  0.63676  0.33953  1.0000
  H   H11       1.0  0.80168  0.06644999999999994  0.90627  1.0000
  H   H12       1.0  0.6831  0.26019  0.09603  1.0000
  H   H13       1.0  0.8111100000000001  0.21267  0.1977  1.0000
  H   H14       1.0  0.72956  0.13537  0.29305  1.0000
  H   H15       1.0  0.49962999999999996  0.8525599999999999  0.15543  1.0000
  H   H16       1.0  0.55592  0.9301699999999999  0.05841  1.0000
  H   H17       1.0  0.9390800000000001  0.009909999999999999  0.10776  1.0000
  H   H18       1.0  0.9451400000000001  0.83654  0.11064999999999998  1.0000
  H   H19       1.0  0.63177  0.73023  0.91089  1.0000
  H   H20       1.0  0.6273100000000001  0.90436  0.9067900000000001  1.0000
  H   H21       1.0  0.45038  0.34251  0.61429  1.0000
  H   H22       1.0  0.44437000000000004  0.51575  0.61055  1.0000
  H   H23       1.0  0.12309  0.40735  0.41187000000000007  1.0000
  H   H24       1.0  0.12686000000000003  0.23335  0.4169900000000001  1.0000
  H   H25       1.0  0.19252  0.76814  0.59913  1.0000
  H   H26       1.0  0.2954400000000001  0.56705  0.40797  1.0000
  H   H27       1.0  0.05509999999999997  0.44112999999999997  0.56213  1.0000
  H   H28       1.0  0.32976  0.71899  0.70223  1.0000
  H   H29       1.0  0.25048  0.64214  0.79812  1.0000
  H   H30       1.0  0.99714  0.36296  0.65887  1.0000
  H   H31       1.0  0.19557999999999992  0.9331699999999998  0.09314  1.0000
  H   H32       1.0  0.31519  0.7389599999999998  0.90394  1.0000
  H   H33       1.0  0.18627  0.78644  0.80236  1.0000
  H   H34       1.0  0.26808000000000004  0.86308  0.7068  1.0000
  H   H35       1.0  0.50124  0.14584  0.84446  1.0000
  H   H36       1.0  0.4442300000000002  0.06818000000000005  0.9415500000000001  1.0000
  H   H37       1.0  0.060700000000000254  0.9893200000000001  0.8911500000000001  1.0000
  H   H38       1.0  0.053220000000000066  0.16239000000000006  0.8878500000000001  1.0000
  H   H39       1.0  0.36472  0.26925  0.08821  1.0000
  H   H40       1.0  0.36927000000000004  0.09542999999999997  0.09264  1.0000
  C   C1        1.0  0.70834  0.82871  0.48134000000000005  1.0000
  C   C2        1.0  0.70839  0.7254299999999999  0.48601999999999995  1.0000
  C   C3        1.0  0.61781  0.64568  0.43132999999999994  1.0000
  C   C4        1.0  0.6208600000000002  0.54902  0.43324000000000007  1.0000
  C   C5        1.0  0.7144700000000002  0.52961  0.48968  1.0000
  C   C6        1.0  0.79974  0.6088299999999999  0.54551  1.0000
  C   C7        1.0  0.79876  0.70614  0.54334  1.0000
  C   C8        1.0  0.7296800000000001  0.42891999999999997  0.49000000000000005  1.0000
  C   C9        1.0  0.7609500000000003  0.37192  0.43478  1.0000
  C   C10       1.0  0.7706300000000004  0.27634  0.44069  1.0000
  C   C11       1.0  0.7512600000000001  0.23572  0.49860999999999994  1.0000
  C   C12       1.0  0.7256900000000001  0.29428  0.55407  1.0000
  C   C13       1.0  0.71735  0.38952  0.54853  1.0000
  C   C14       1.0  0.71813  0.26484  0.62078  1.0000
  C   C15       1.0  0.7574000000000001  0.13082  0.49681000000000003  1.0000
  C   C16       1.0  0.8929400000000001  0.51556  0.38557  1.0000
  C   C17       1.0  0.7986600000000001  0.41463  0.37519  1.0000
  C   C18       1.0  0.74583  0.3577  0.308  1.0000
  C   C19       1.0  0.7910300000000002  0.39959  0.25386  1.0000
  C   C20       1.0  0.88593  0.50017  0.265  1.0000
  C   C21       1.0  0.9310900000000001  0.55809  0.33122  1.0000
  C   C22       1.0  0.94789  0.5461  0.21011999999999997  1.0000
  C   C23       1.0  0.7332600000000001  0.36588  0.0005  1.0000
  C   C24       1.0  0.74042  0.26122  0.99902  1.0000
  C   C25       1.0  0.7720600000000002  0.20478000000000002  0.94435  1.0000
  C   C26       1.0  0.7810400000000001  0.10958000000000005  0.9495300000000001  1.0000
  C   C27       1.0  0.7641300000000002  0.06845  0.00706  1.0000
  C   C28       1.0  0.72664  0.12300999999999997  0.06144  1.0000
  C   C29       1.0  0.71584  0.21854  0.05579  1.0000
  C   C30       1.0  0.7832  0.23539  0.87822  1.0000
  C   C31       1.0  0.6874  0.07819  0.12017999999999998  1.0000
  C   C32       1.0  0.73683  0.13467  0.18748  1.0000
  C   C33       1.0  0.6933000000000002  0.09137999999999999  0.24134  1.0000
  C   C34       1.0  0.6036900000000002  0.9896500000000001  0.22987000000000002  1.0000
  C   C35       1.0  0.5623  0.9321499999999999  0.16372  1.0000
  C   C36       1.0  0.59824  0.97605  0.10954000000000001  1.0000
  C   C37       1.0  0.7814000000000002  0.96832  0.007299999999999999  1.0000
  C   C38       1.0  0.8733600000000001  0.9491  0.06433  1.0000
  C   C39       1.0  0.87664  0.8525799999999999  0.06628  1.0000
  C   C40       1.0  0.7880800000000002  0.77319  0.0112  1.0000
  C   C41       1.0  0.7002  0.7923  0.95314  1.0000
  C   C42       1.0  0.6989800000000002  0.88951  0.9508600000000001  1.0000
  C   C43       1.0  0.7865600000000003  0.67018  0.01687  1.0000
  C   C44       1.0  0.54312  0.94193  0.28441  1.0000
  C   C45       1.0  0.2861300000000001  0.17469  0.52161  1.0000
  C   C46       1.0  0.28804  0.27774  0.51601  1.0000
  C   C47       1.0  0.37959999999999994  0.3578  0.57024  1.0000
  C   C48       1.0  0.3765  0.45429  0.56783  1.0000
  C   C49       1.0  0.28224999999999995  0.4728200000000001  0.51119  1.0000
  C   C50       1.0  0.19668000000000005  0.39321  0.45565  1.0000
  C   C51       1.0  0.19753999999999994  0.2961  0.45841  1.0000
  C   C52       1.0  0.26559  0.57295  0.5102  1.0000
  C   C53       1.0  0.2325399999999999  0.62975  0.5649  1.0000
  C   C54       1.0  0.2213200000000001  0.72485  0.55835  1.0000
  C   C55       1.0  0.23973  0.7647099999999999  0.49998  1.0000
  C   C56       1.0  0.26709  0.70605  0.4450299999999999  1.0000
  C   C57       1.0  0.27766000000000013  0.61156  0.45141000000000003  1.0000
  C   C58       1.0  0.27582  0.7342  0.37801  1.0000
  C   C59       1.0  0.23213000000000003  0.86922  0.50064  1.0000
  C   C60       1.0  0.10124999999999998  0.48556999999999995  0.61365  1.0000
  C   C61       1.0  0.19592  0.5865  0.6245  1.0000
  C   C62       1.0  0.2515799999999999  0.64196  0.69204  1.0000
  C   C63       1.0  0.20915  0.59868  0.74616  1.0000
  C   C64       1.0  0.11412  0.49804  0.73457  1.0000
  C   C65       1.0  0.06534999999999999  0.44162  0.66778  1.0000
  C   C66       1.0  0.05471999999999998  0.45076  0.78957  1.0000
  C   C67       1.0  0.26485  0.63359  0.00045  1.0000
  C   C68       1.0  0.25705  0.73805  0.0008700000000000001  1.0000
  C   C69       1.0  0.22562000000000004  0.79499  0.055349999999999996  1.0000
  C   C70       1.0  0.21674  0.89015  0.05  1.0000
  C   C71       1.0  0.23393000000000008  0.93104  0.9924200000000001  1.0000
  C   C72       1.0  0.27171000000000006  0.87612  0.9383299999999999  1.0000
  C   C73       1.0  0.28203  0.78052  0.94407  1.0000
  C   C74       1.0  0.21525  0.76489  0.12163  1.0000
  C   C75       1.0  0.3116300000000002  0.92067  0.87966  1.0000
  C   C76       1.0  0.26145999999999997  0.86423  0.81238  1.0000
  C   C77       1.0  0.30487000000000003  0.9073999999999999  0.75843  1.0000
  C   C78       1.0  0.3947700000000001  0.009129999999999985  0.76978  1.0000
  C   C79       1.0  0.43766  0.06638999999999998  0.8361000000000001  1.0000
  C   C80       1.0  0.40171999999999997  0.022589999999999954  0.8903299999999998  1.0000
  C   C81       1.0  0.2167399999999999  0.031149999999999956  0.9918499999999999  1.0000
  C   C82       1.0  0.12554  0.050299999999999956  0.93456  1.0000
  C   C83       1.0  0.12178999999999997  0.14671  0.93239  1.0000
  C   C84       1.0  0.20962000000000008  0.22620000000000004  0.9875900000000001  1.0000
  C   C85       1.0  0.29688  0.20718999999999999  0.04586  1.0000
  C   C86       1.0  0.29822  0.11006  0.0483  1.0000
  C   C87       1.0  0.21079999999999996  0.32913  0.98196  1.0000
  C   C88       1.0  0.45341000000000026  0.057409999999999996  0.71494  1.0000
  O   O1        1.0  0.6008800000000001  0.83783  0.43502  1.0000
  O   O2        1.0  0.8162500000000004  0.9040500000000002  0.52284  1.0000
  O   O3        1.0  0.70966  0.32789  0.66937  1.0000
  O   O4        1.0  0.7264400000000002  0.17792  0.63018  1.0000
  O   O5        1.0  0.6286900000000001  0.062480000000000015  0.49740000000000006  1.0000
  O   O6        1.0  0.8819700000000001  0.11422000000000002  0.49006000000000005  1.0000
  O   O7        1.0  0.014279999999999947  0.6408599999999999  0.2212  1.0000
  O   O8        1.0  0.9332500000000001  0.48721  0.15349  1.0000
  O   O9        1.0  0.6077900000000002  0.38181  0.00657  1.0000
  O   O10       1.0  0.8619500000000002  0.4346  0.0  1.0000
  O   O11       1.0  0.76885  0.32101  0.86778  1.0000
  O   O12       1.0  0.7999900000000001  0.17529999999999998  0.83044  1.0000
  O   O13       1.0  0.67589  0.59509  0.97647  1.0000
  O   O14       1.0  0.8945600000000001  0.66122  0.06298  1.0000
  O   O15       1.0  0.47972000000000004  0.8469999999999998  0.27272  1.0000
  O   O16       1.0  0.55589  0.00041999999999999086  0.34091  1.0000
  O   O17       1.0  0.39274  0.16557  0.56832  1.0000
  O   O18       1.0  0.17731000000000002  0.09961000000000002  0.48041000000000006  1.0000
  O   O19       1.0  0.28934999999999994  0.6715599999999999  0.33065  1.0000
  O   O20       1.0  0.26417999999999997  0.8198599999999999  0.36691  1.0000
  O   O21       1.0  0.36105000000000004  0.93761  0.49995000000000006  1.0000
  O   O22       1.0  0.10695999999999985  0.8856699999999997  0.50652  1.0000
  O   O23       1.0  0.98534  0.35631  0.7771  1.0000
  O   O24       1.0  0.07361000000000002  0.50893  0.84713  1.0000
  O   O25       1.0  0.39201999999999987  0.6184999999999999  0.9967099999999999  1.0000
  O   O26       1.0  0.13551999999999995  0.56442  2e-05  1.0000
  O   O27       1.0  0.23018  0.67948  0.13219  1.0000
  O   O28       1.0  0.19902000000000006  0.82524  0.16945  1.0000
  O   O29       1.0  0.31922000000000006  0.40453  0.0232  1.0000
  O   O30       1.0  0.10456000000000003  0.33814  0.93507  1.0000
  O   O31       1.0  0.51869  0.15226  0.72721  1.0000
  O   O32       1.0  0.4368100000000001  0.99939  0.65769  1.0000
