data_image0
_chemical_formula_structural       Cu8H56C56N40O16
_chemical_formula_sum              "Cu8 H56 C56 N40 O16"
_cell_length_a       15.44599
_cell_length_b       15.43512
_cell_length_c       15.6407
_cell_angle_alpha    119.64889
_cell_angle_beta     119.68023000000001
_cell_angle_gamma    89.94464

_space_group_name_H-M_alt    "P 1"
_space_group_IT_number       1

loop_
  _space_group_symop_operation_xyz
  'x, y, z'

loop_
  _atom_site_type_symbol
  _atom_site_label
  _atom_site_symmetry_multiplicity
  _atom_site_fract_x
  _atom_site_fract_y
  _atom_site_fract_z
  _atom_site_occupancy
  Cu  Cu1       1.0  0.40219  0.42733  0.88842  1.0000
  Cu  Cu2       1.0  0.4867300000000001  0.9618200000000001  0.88881  1.0000
  Cu  Cu3       1.0  0.92731  0.9862600000000001  0.38838  1.0000
  Cu  Cu4       1.0  0.46109  0.90194  0.38833  1.0000
  Cu  Cu5       1.0  0.59782  0.57267  0.11157999999999998  1.0000
  Cu  Cu6       1.0  0.51327  0.03817999999999999  0.11119  1.0000
  Cu  Cu7       1.0  0.07269  0.013740000000000035  0.61162  1.0000
  Cu  Cu8       1.0  0.53892  0.09806000000000001  0.61167  1.0000
  H   H1        1.0  0.177  0.44832000000000005  0.8017000000000001  1.0000
  H   H2        1.0  0.23661  0.80707  0.17622  1.0000
  H   H3        1.0  0.11798  0.71638  0.03487  1.0000
  H   H4        1.0  0.60186  0.78079  0.32318  1.0000
  H   H5        1.0  0.47370999999999996  0.60264  0.7495899999999999  1.0000
  H   H6        1.0  0.54659  0.7215000000000001  0.89667  1.0000
  H   H7        1.0  0.61193  0.63318  0.85201  1.0000
  H   H8        1.0  0.62502  0.85393  0.80233  1.0000
  H   H9        1.0  0.93956  0.86894  0.1767  1.0000
  H   H10       1.0  0.91706  0.81874  0.03583  1.0000
  H   H11       1.0  0.7205  0.04134000000000001  0.32262  1.0000
  H   H12       1.0  0.27558  0.6465100000000003  0.74837  1.0000
  H   H13       1.0  0.3498  0.67471  0.89537  1.0000
  H   H14       1.0  0.23977  0.71831  0.85066  1.0000
  H   H15       1.0  0.94805  0.12476999999999998  0.30205  1.0000
  H   H16       1.0  0.30754  0.4396  0.67657  1.0000
  H   H17       1.0  0.21670999999999996  0.41682  0.53538  1.0000
  H   H18       1.0  0.28104000000000007  0.22097  0.8228999999999999  1.0000
  H   H19       1.0  0.10249  0.77577  0.24936  1.0000
  H   H20       1.0  0.22146  0.84989  0.39642  1.0000
  H   H21       1.0  0.13318999999999998  0.7398  0.35158  1.0000
  H   H22       1.0  0.3536800000000001  0.67724  0.30217  1.0000
  H   H23       1.0  0.36909  0.73712  0.67622  1.0000
  H   H24       1.0  0.3185100000000001  0.6183400000000002  0.53509  1.0000
  H   H25       1.0  0.5421300000000002  0.10243000000000002  0.82325  1.0000
  H   H26       1.0  0.14667999999999998  0.97301  0.24886999999999998  1.0000
  H   H27       1.0  0.17489  0.04598000000000001  0.39586  1.0000
  H   H28       1.0  0.21803  0.11148  0.35111  1.0000
  H   H29       1.0  0.8230000000000002  0.55168  0.1983  1.0000
  H   H30       1.0  0.76339  0.19293  0.82379  1.0000
  H   H31       1.0  0.88202  0.2836199999999999  0.9651299999999999  1.0000
  H   H32       1.0  0.39814  0.21921000000000007  0.67682  1.0000
  H   H33       1.0  0.52629  0.39736  0.25041  1.0000
  H   H34       1.0  0.4534100000000001  0.2785  0.10333  1.0000
  H   H35       1.0  0.38807  0.36682  0.14799  1.0000
  H   H36       1.0  0.3749799999999999  0.14606999999999998  0.19766999999999998  1.0000
  H   H37       1.0  0.060450000000000004  0.13106000000000004  0.82331  1.0000
  H   H38       1.0  0.08294  0.18126000000000003  0.96417  1.0000
  H   H39       1.0  0.2795  0.95865  0.67738  1.0000
  H   H40       1.0  0.72442  0.35349  0.25163  1.0000
  H   H41       1.0  0.6502  0.32529  0.10463000000000001  1.0000
  H   H42       1.0  0.7602300000000001  0.28168  0.14934  1.0000
  H   H43       1.0  0.051949999999999996  0.87523  0.69795  1.0000
  H   H44       1.0  0.69246  0.5604  0.32343  1.0000
  H   H45       1.0  0.7832900000000003  0.58318  0.46463  1.0000
  H   H46       1.0  0.71896  0.77903  0.1771  1.0000
  H   H47       1.0  0.89751  0.22423000000000007  0.75064  1.0000
  H   H48       1.0  0.7785400000000002  0.15010999999999994  0.60358  1.0000
  H   H49       1.0  0.86681  0.2602  0.64842  1.0000
  H   H50       1.0  0.64632  0.32276  0.69783  1.0000
  H   H51       1.0  0.63091  0.26288  0.32378  1.0000
  H   H52       1.0  0.6814900000000003  0.38165999999999994  0.46490999999999993  1.0000
  H   H53       1.0  0.4578700000000001  0.89757  0.17675  1.0000
  H   H54       1.0  0.85332  0.026990000000000017  0.75114  1.0000
  H   H55       1.0  0.8251100000000001  0.95402  0.60414  1.0000
  H   H56       1.0  0.78197  0.8885199999999999  0.64889  1.0000
  C   C1        1.0  0.22881999999999994  0.5178  0.893  1.0000
  C   C2        1.0  0.3933300000000001  0.61536  0.062169999999999996  1.0000
  C   C3        1.0  0.35415  0.6883  0.11974000000000001  1.0000
  C   C4        1.0  0.24472  0.67101  0.05240999999999999  1.0000
  C   C5        1.0  0.5229300000000001  0.73639  0.24236999999999997  1.0000
  C   C6        1.0  0.51628  0.58454  0.89371  1.0000
  C   C7        1.0  0.5372800000000001  0.63764  0.8433000000000002  1.0000
  C   C8        1.0  0.66441  0.87541  0.89347  1.0000
  C   C9        1.0  0.6686900000000001  0.94656  0.06226  1.0000
  C   C10       1.0  0.7654700000000001  0.93128  0.12005  1.0000
  C   C11       1.0  0.80767  0.88146  0.05294999999999999  1.0000
  C   C12       1.0  0.71888  0.005239999999999999  0.2421  1.0000
  C   C13       1.0  0.3771100000000001  0.8091800000000001  0.89286  1.0000
  C   C14       1.0  0.30578999999999995  0.7052599999999999  0.8420899999999999  1.0000
  C   C15       1.0  0.017740000000000013  0.16430000000000006  0.39329000000000003  1.0000
  C   C16       1.0  0.11539  0.16881999999999997  0.56227  1.0000
  C   C17       1.0  0.18854  0.26548  0.61989  1.0000
  C   C18       1.0  0.17126000000000005  0.30763  0.55274  1.0000
  C   C19       1.0  0.23659000000000005  0.21922000000000005  0.74226  1.0000
  C   C20       1.0  0.08416000000000003  0.87704  0.39335  1.0000
  C   C21       1.0  0.13759  0.80587  0.34304  1.0000
  C   C22       1.0  0.3754  0.72904  0.39339  1.0000
  C   C23       1.0  0.44696  0.89366  0.56253  1.0000
  C   C24       1.0  0.4315800000000002  0.85453  0.62006  1.0000
  C   C25       1.0  0.38153  0.7450400000000003  0.55264  1.0000
  C   C26       1.0  0.50591  0.023409999999999986  0.74255  1.0000
  C   C27       1.0  0.30912999999999996  0.01611999999999997  0.3931299999999999  1.0000
  C   C28       1.0  0.20528  0.03681000000000001  0.34257  1.0000
  C   C29       1.0  0.77118  0.4822  0.10699999999999998  1.0000
  C   C30       1.0  0.6066699999999999  0.3846399999999999  0.9378299999999999  1.0000
  C   C31       1.0  0.64586  0.3117  0.88026  1.0000
  C   C32       1.0  0.75528  0.32899  0.94759  1.0000
  C   C33       1.0  0.47707000000000005  0.26361  0.7576300000000001  1.0000
  C   C34       1.0  0.48372  0.4154600000000001  0.10629  1.0000
  C   C35       1.0  0.46272000000000013  0.36235000000000006  0.1567  1.0000
  C   C36       1.0  0.3356000000000001  0.12459  0.10653  1.0000
  C   C37       1.0  0.33131  0.05344  0.93775  1.0000
  C   C38       1.0  0.23453000000000004  0.06871  0.87995  1.0000
  C   C39       1.0  0.19233  0.11852999999999997  0.94705  1.0000
  C   C40       1.0  0.28112  0.99476  0.7579  1.0000
  C   C41       1.0  0.62289  0.19082  0.10714  1.0000
  C   C42       1.0  0.69421  0.29474  0.15791  1.0000
  C   C43       1.0  0.98227  0.8357  0.60672  1.0000
  C   C44       1.0  0.88461  0.83118  0.43773000000000006  1.0000
  C   C45       1.0  0.81146  0.73452  0.38012  1.0000
  C   C46       1.0  0.8287400000000003  0.69236  0.44726  1.0000
  C   C47       1.0  0.76341  0.78078  0.25774  1.0000
  C   C48       1.0  0.9158399999999999  0.12296000000000001  0.60665  1.0000
  C   C49       1.0  0.86241  0.19412999999999994  0.65696  1.0000
  C   C50       1.0  0.62461  0.27096  0.60661  1.0000
  C   C51       1.0  0.55304  0.10634000000000003  0.43747  1.0000
  C   C52       1.0  0.5684200000000003  0.14545999999999998  0.37993999999999994  1.0000
  C   C53       1.0  0.61847  0.25496  0.4473599999999999  1.0000
  C   C54       1.0  0.4941  0.97659  0.25745  1.0000
  C   C55       1.0  0.69087  0.98388  0.60687  1.0000
  C   C56       1.0  0.79472  0.96318  0.65743  1.0000
  N   N1        1.0  0.18395999999999996  0.5837400000000003  0.9378599999999999  1.0000
  N   N2        1.0  0.3321  0.52804  0.94852  1.0000
  N   N3        1.0  0.19597000000000003  0.73494  0.09485999999999999  1.0000
  N   N4        1.0  0.4384900000000001  0.76479  0.23555  1.0000
  N   N5        1.0  0.5001200000000002  0.6471  0.13991  1.0000
  N   N6        1.0  0.75415  0.85435  0.93853  1.0000
  N   N7        1.0  0.61651  0.92046  0.94876  1.0000
  N   N8        1.0  0.89876  0.8597800000000001  0.09545  1.0000
  N   N9        1.0  0.7967300000000003  0.9703100000000002  0.23563  1.0000
  N   N10       1.0  0.63935  0.99217  0.13966  1.0000
  N   N11       1.0  0.08385000000000005  0.25402  0.43827  1.0000
  N   N12       1.0  0.02800000000000002  0.11652999999999997  0.44869  1.0000
  N   N13       1.0  0.23539  0.3987600000000001  0.5952  1.0000
  N   N14       1.0  0.26516999999999996  0.29682000000000003  0.7355499999999999  1.0000
  N   N15       1.0  0.14710000000000012  0.13970000000000005  0.63987  1.0000
  N   N16       1.0  0.35435  0.6842  0.4382  1.0000
  N   N17       1.0  0.42057  0.83236  0.4489  1.0000
  N   N18       1.0  0.35981000000000013  0.69637  0.59493  1.0000
  N   N19       1.0  0.47077  0.93897  0.73578  1.0000
  N   N20       1.0  0.49286000000000013  0.0005099999999999655  0.64021  1.0000
  N   N21       1.0  0.81604  0.41626  0.062139999999999994  1.0000
  N   N22       1.0  0.6678999999999999  0.47196  0.05147999999999999  1.0000
  N   N23       1.0  0.8040300000000002  0.2650600000000001  0.90515  1.0000
  N   N24       1.0  0.56151  0.23521000000000006  0.76445  1.0000
  N   N25       1.0  0.4998800000000001  0.35289  0.86009  1.0000
  N   N26       1.0  0.24585  0.14565  0.06147999999999999  1.0000
  N   N27       1.0  0.38349  0.07954000000000001  0.05124000000000001  1.0000
  N   N28       1.0  0.10124  0.14022000000000004  0.90455  1.0000
  N   N29       1.0  0.20327  0.029689999999999998  0.76437  1.0000
  N   N30       1.0  0.3606499999999999  0.007829999999999933  0.8603499999999998  1.0000
  N   N31       1.0  0.91616  0.74598  0.56173  1.0000
  N   N32       1.0  0.972  0.88347  0.55131  1.0000
  N   N33       1.0  0.76461  0.60124  0.4048  1.0000
  N   N34       1.0  0.7348300000000001  0.70318  0.26446  1.0000
  N   N35       1.0  0.8529000000000001  0.8603  0.36013  1.0000
  N   N36       1.0  0.64566  0.3158  0.56181  1.0000
  N   N37       1.0  0.57943  0.16763999999999996  0.5511  1.0000
  N   N38       1.0  0.64019  0.30363  0.40507  1.0000
  N   N39       1.0  0.52924  0.06103  0.26422  1.0000
  N   N40       1.0  0.5071400000000003  0.99949  0.35979  1.0000
  O   O1        1.0  0.42912  0.5098200000000003  0.82604  1.0000
  O   O2        1.0  0.58721  0.6188  0.00137  1.0000
  O   O3        1.0  0.39693  0.81661  0.82575  1.0000
  O   O4        1.0  0.41342  0.88249  0.00047  1.0000
  O   O5        1.0  0.009459999999999991  0.89656  0.32569  1.0000
  O   O6        1.0  0.11806  0.91343  0.50078  1.0000
  O   O7        1.0  0.31619  0.92892  0.32557  1.0000
  O   O8        1.0  0.38274000000000014  0.08727  0.50063  1.0000
  O   O9        1.0  0.57088  0.49018  0.17396  1.0000
  O   O10       1.0  0.4128000000000001  0.3812  0.99863  1.0000
  O   O11       1.0  0.60308  0.18339  0.17425  1.0000
  O   O12       1.0  0.58658  0.11750999999999992  0.9995299999999999  1.0000
  O   O13       1.0  0.9905399999999999  0.10344000000000006  0.67431  1.0000
  O   O14       1.0  0.8819399999999998  0.08657  0.49923  1.0000
  O   O15       1.0  0.68381  0.07108  0.67444  1.0000
  O   O16       1.0  0.61726  0.9127299999999999  0.49937  1.0000
