data_image0
_chemical_formula_structural       Ba2Cd6H64C104N8Cl2O24
_chemical_formula_sum              "Ba2 Cd6 H64 C104 N8 Cl2 O24"
_cell_length_a       10.04741
_cell_length_b       18.56195
_cell_length_c       20.94775
_cell_angle_alpha    89.32599
_cell_angle_beta     84.67667
_cell_angle_gamma    87.19592

_symmetry_space_group_name_H-M    'P 1'
_symmetry_Int_Tables_number       1

loop_
  _symmetry_equiv_pos_as_xyz
  'x,y,z'

loop_
  _atom_site_type_symbol
  _atom_site_label
  _atom_site_symmetry_multiplicity
  _atom_site_fract_x
  _atom_site_fract_y
  _atom_site_fract_z
  _atom_site_occupancy
  Ba  Ba1       1.0  0.95967  0.18284  0.5922  1.0000
  Ba  Ba2       1.0  0.04032999999999999  0.81717  0.4078  1.0000
  Cd  Cd1       1.0  0.61382  0.45154999999999995  0.03891  1.0000
  Cd  Cd2       1.0  0.88515  0.9965199999999999  0.4746000000000001  1.0000
  Cd  Cd3       1.0  0.3861700000000001  0.54845  0.96109  1.0000
  Cd  Cd4       1.0  0.11485000000000001  0.0034799999999999987  0.5254  1.0000
  Cd  Cd5       1.0  0.37739  0.9617  0.00938  1.0000
  Cd  Cd6       1.0  0.6226099999999999  0.038299999999999994  0.9906200000000001  1.0000
  H   H1        1.0  0.12992  0.2528  0.40395  1.0000
  H   H2        1.0  0.19754  0.3214  0.30431  1.0000
  H   H3        1.0  0.93923  0.19688  0.20113000000000003  1.0000
  H   H4        1.0  0.87476  0.12772  0.30018  1.0000
  H   H5        1.0  0.30198  0.32836  0.1946  1.0000
  H   H6        1.0  0.1252  0.45095999999999997  0.04704  1.0000
  H   H7        1.0  0.8800400000000002  0.31458  0.17077  1.0000
  H   H8        1.0  0.41241  0.40542  0.79264  1.0000
  H   H9        1.0  0.42002999999999996  0.31389  0.70524  1.0000
  H   H10       1.0  0.65812  0.16916  0.81655  1.0000
  H   H11       1.0  0.6557499999999999  0.26213  0.89996  1.0000
  H   H12       1.0  0.33503  0.2034  0.68401  1.0000
  H   H13       1.0  0.53838  0.03062  0.57417  1.0000
  H   H14       1.0  0.74279  0.13908  0.71344  1.0000
  H   H15       1.0  0.8700699999999999  0.7472  0.59605  1.0000
  H   H16       1.0  0.80246  0.6786  0.69569  1.0000
  H   H17       1.0  0.060769999999999984  0.80313  0.7988700000000001  1.0000
  H   H18       1.0  0.12523999999999996  0.8722800000000002  0.69981  1.0000
  H   H19       1.0  0.6980199999999999  0.67164  0.8054000000000001  1.0000
  H   H20       1.0  0.8748000000000001  0.54904  0.95296  1.0000
  H   H21       1.0  0.11995999999999997  0.68542  0.8292300000000001  1.0000
  H   H22       1.0  0.58758  0.59458  0.20736  1.0000
  H   H23       1.0  0.57997  0.68611  0.29476  1.0000
  H   H24       1.0  0.34187999999999996  0.83084  0.18345  1.0000
  H   H25       1.0  0.34424  0.73787  0.10002999999999998  1.0000
  H   H26       1.0  0.6649599999999998  0.7966  0.31598  1.0000
  H   H27       1.0  0.46161  0.96938  0.42582  1.0000
  H   H28       1.0  0.2571999999999999  0.86092  0.28656  1.0000
  H   H29       1.0  0.9967499999999999  0.55411  0.06946  1.0000
  H   H30       1.0  0.14288  0.6083  0.06563  1.0000
  H   H31       1.0  0.03588000000000001  0.60216  0.13845  1.0000
  H   H32       1.0  0.7910500000000001  0.60422  0.057629999999999994  1.0000
  H   H33       1.0  0.64519  0.7102  0.029190000000000004  1.0000
  H   H34       1.0  0.97852  0.8454899999999999  0.04909  1.0000
  H   H35       1.0  0.11536  0.73394  0.07096  1.0000
  H   H36       1.0  0.7342100000000001  0.82595  0.16053  1.0000
  H   H37       1.0  0.61467  0.9318899999999999  0.23447  1.0000
  H   H38       1.0  0.76682  0.76416  0.9156199999999999  1.0000
  H   H39       1.0  0.6414100000000001  0.81167  0.8163800000000001  1.0000
  H   H40       1.0  0.29105  0.10256  0.24592000000000003  1.0000
  H   H41       1.0  0.2992  0.13182  0.35924  1.0000
  H   H42       1.0  0.4363099999999999  0.0851  0.45622  1.0000
  H   H43       1.0  0.46299  0.17771  0.43745000000000006  1.0000
  H   H44       1.0  0.6037  0.11573000000000001  0.44247  1.0000
  H   H45       1.0  0.70752  0.07612  0.35223  1.0000
  H   H46       1.0  0.71539  0.04349  0.23725  1.0000
  H   H47       1.0  0.0032499999999999795  0.44589  0.93054  1.0000
  H   H48       1.0  0.85712  0.3917  0.9343700000000001  1.0000
  H   H49       1.0  0.96412  0.39784  0.86155  1.0000
  H   H50       1.0  0.20894999999999997  0.39578  0.9423700000000002  1.0000
  H   H51       1.0  0.3548  0.2898  0.97081  1.0000
  H   H52       1.0  0.021480000000000027  0.15451  0.95091  1.0000
  H   H53       1.0  0.8846399999999999  0.26606  0.92903  1.0000
  H   H54       1.0  0.26579  0.17405  0.8394700000000002  1.0000
  H   H55       1.0  0.3853299999999999  0.06811  0.76553  1.0000
  H   H56       1.0  0.23317  0.23583999999999997  0.08438  1.0000
  H   H57       1.0  0.35859  0.18833  0.18361  1.0000
  H   H58       1.0  0.70895  0.89744  0.75408  1.0000
  H   H59       1.0  0.7007999999999999  0.8681800000000001  0.64075  1.0000
  H   H60       1.0  0.56369  0.9149  0.54378  1.0000
  H   H61       1.0  0.53701  0.82229  0.56255  1.0000
  H   H62       1.0  0.3962999999999999  0.8842700000000001  0.55753  1.0000
  H   H63       1.0  0.29248  0.92388  0.64777  1.0000
  H   H64       1.0  0.28461  0.9565199999999999  0.76275  1.0000
  C   C1        1.0  0.9390499999999999  0.15488  0.4209  1.0000
  C   C2        1.0  0.99415  0.18762  0.35938  1.0000
  C   C3        1.0  0.08952  0.24053999999999998  0.35915  1.0000
  C   C4        1.0  0.12744999999999998  0.27866  0.30333  1.0000
  C   C5        1.0  0.06845999999999998  0.26619  0.24631  1.0000
  C   C6        1.0  0.9808599999999998  0.20929  0.24563  1.0000
  C   C7        1.0  0.94467  0.1704  0.30116  1.0000
  C   C8        1.0  0.08847  0.31497  0.19034  1.0000
  C   C9        1.0  0.21273999999999998  0.34351  0.17085  1.0000
  C   C10       1.0  0.2265  0.3905  0.11814  1.0000
  C   C11       1.0  0.11397999999999998  0.41314  0.08705  1.0000
  C   C12       1.0  0.98892  0.38625  0.10670000000000002  1.0000
  C   C13       1.0  0.97774  0.33564  0.15676  1.0000
  C   C14       1.0  0.86587  0.41188  0.07608  1.0000
  C   C15       1.0  0.36239999999999994  0.41459  0.09391  1.0000
  C   C16       1.0  0.5287  0.3962  0.90308  1.0000
  C   C17       1.0  0.53537  0.34005  0.85098  1.0000
  C   C18       1.0  0.46697999999999995  0.35371  0.79632  1.0000
  C   C19       1.0  0.47037999999999996  0.30225  0.74829  1.0000
  C   C20       1.0  0.5405199999999999  0.23531999999999997  0.7541  1.0000
  C   C21       1.0  0.60803  0.22158  0.80921  1.0000
  C   C22       1.0  0.6059099999999998  0.27366  0.8568000000000001  1.0000
  C   C23       1.0  0.54067  0.18031  0.70375  1.0000
  C   C24       1.0  0.42623999999999995  0.17072  0.6715  1.0000
  C   C25       1.0  0.42457999999999996  0.11631000000000001  0.62587  1.0000
  C   C26       1.0  0.53934  0.07214  0.61012  1.0000
  C   C27       1.0  0.65535  0.08169  0.64035  1.0000
  C   C28       1.0  0.6543600000000002  0.13471  0.68759  1.0000
  C   C29       1.0  0.78078  0.03678  0.61994  1.0000
  C   C30       1.0  0.29885999999999996  0.10231  0.59585  1.0000
  C   C31       1.0  0.06095  0.84512  0.57909  1.0000
  C   C32       1.0  0.005839999999999992  0.81238  0.64062  1.0000
  C   C33       1.0  0.9104800000000002  0.75947  0.64085  1.0000
  C   C34       1.0  0.87254  0.72134  0.69667  1.0000
  C   C35       1.0  0.93154  0.73381  0.75369  1.0000
  C   C36       1.0  0.019139999999999987  0.79071  0.75437  1.0000
  C   C37       1.0  0.05532999999999997  0.8296  0.69883  1.0000
  C   C38       1.0  0.9115299999999997  0.68503  0.8096600000000002  1.0000
  C   C39       1.0  0.78726  0.65649  0.82914  1.0000
  C   C40       1.0  0.7735  0.60951  0.88186  1.0000
  C   C41       1.0  0.8860199999999999  0.58686  0.91295  1.0000
  C   C42       1.0  0.01108000000000003  0.61375  0.8932999999999999  1.0000
  C   C43       1.0  0.022259999999999988  0.66436  0.84324  1.0000
  C   C44       1.0  0.13412999999999994  0.58812  0.9239100000000001  1.0000
  C   C45       1.0  0.63759  0.58541  0.90609  1.0000
  C   C46       1.0  0.47130000000000005  0.6038  0.09692  1.0000
  C   C47       1.0  0.46463  0.65995  0.14902  1.0000
  C   C48       1.0  0.53302  0.64629  0.20368  1.0000
  C   C49       1.0  0.52962  0.69775  0.25171  1.0000
  C   C50       1.0  0.4594700000000001  0.76468  0.24589  1.0000
  C   C51       1.0  0.39196000000000003  0.77842  0.19079  1.0000
  C   C52       1.0  0.39409  0.72634  0.1432  1.0000
  C   C53       1.0  0.45933  0.81969  0.29625  1.0000
  C   C54       1.0  0.57376  0.82928  0.32849  1.0000
  C   C55       1.0  0.57542  0.88369  0.37412  1.0000
  C   C56       1.0  0.46066  0.92786  0.38988  1.0000
  C   C57       1.0  0.34464  0.91831  0.35964  1.0000
  C   C58       1.0  0.34564  0.8652900000000001  0.31241  1.0000
  C   C59       1.0  0.21921  0.96322  0.38006  1.0000
  C   C60       1.0  0.7011399999999999  0.89769  0.40415000000000006  1.0000
  C   C61       1.0  0.03928999999999999  0.60313  0.08598  1.0000
  C   C62       1.0  0.82778  0.65851  0.0541  1.0000
  C   C63       1.0  0.74789  0.71822  0.03897  1.0000
  C   C64       1.0  0.79826  0.78754  0.03788  1.0000
  C   C65       1.0  0.93255  0.79351  0.05022  1.0000
  C   C66       1.0  0.010109999999999996  0.73244  0.0631  1.0000
  C   C67       1.0  0.68039  0.8981199999999999  0.07987  1.0000
  C   C68       1.0  0.69272  0.87734  0.1447  1.0000
  C   C69       1.0  0.6309  0.93194  0.18273  1.0000
  C   C70       1.0  0.58334  0.98689  0.14114  1.0000
  C   C71       1.0  0.71275  0.85327  0.02613  1.0000
  C   C72       1.0  0.6701799999999999  0.86259  0.96489  1.0000
  C   C73       1.0  0.70419  0.81309  0.9134899999999999  1.0000
  C   C74       1.0  0.64174  0.8385299999999999  0.86184  1.0000
  C   C75       1.0  0.5720100000000002  0.90601  0.8796300000000001  1.0000
  C   C76       1.0  0.50554  0.05127  0.16164  1.0000
  C   C77       1.0  0.50421  0.07098  0.22824  1.0000
  C   C78       1.0  0.38695000000000007  0.09797  0.26606  1.0000
  C   C79       1.0  0.3888699999999999  0.11450000000000002  0.32951  1.0000
  C   C80       1.0  0.50155  0.12213  0.4283600000000001  1.0000
  C   C81       1.0  0.6194  0.08027  0.32574  1.0000
  C   C82       1.0  0.62093  0.06262  0.26233  1.0000
  C   C83       1.0  0.9607099999999998  0.39687  0.91402  1.0000
  C   C84       1.0  0.17222  0.34149  0.9459  1.0000
  C   C85       1.0  0.2521099999999999  0.28178  0.96102  1.0000
  C   C86       1.0  0.20174  0.21246  0.96212  1.0000
  C   C87       1.0  0.06745000000000002  0.20648999999999998  0.94978  1.0000
  C   C88       1.0  0.9898899999999999  0.26756  0.9369  1.0000
  C   C89       1.0  0.31961  0.10188  0.9201300000000001  1.0000
  C   C90       1.0  0.30727999999999994  0.12267  0.8553000000000001  1.0000
  C   C91       1.0  0.3691  0.06805999999999998  0.8172600000000001  1.0000
  C   C92       1.0  0.41666  0.013109999999999998  0.8588600000000001  1.0000
  C   C93       1.0  0.28725  0.14674  0.9738700000000001  1.0000
  C   C94       1.0  0.32982  0.13741  0.03511  1.0000
  C   C95       1.0  0.2958  0.18691  0.08651  1.0000
  C   C96       1.0  0.35825000000000007  0.16147  0.13816  1.0000
  C   C97       1.0  0.42799  0.094  0.12036  1.0000
  C   C98       1.0  0.49444999999999983  0.94873  0.83836  1.0000
  C   C99       1.0  0.49579000000000006  0.9290199999999998  0.77176  1.0000
  C   C100      1.0  0.61305  0.90203  0.73394  1.0000
  C   C101      1.0  0.61113  0.8855  0.67049  1.0000
  C   C102      1.0  0.49845000000000006  0.87787  0.57164  1.0000
  C   C103      1.0  0.3806  0.91973  0.67426  1.0000
  C   C104      1.0  0.3790700000000001  0.9373799999999999  0.73767  1.0000
  N   N1        1.0  0.58764  0.92016  0.9437800000000001  1.0000
  N   N2        1.0  0.61324  0.96568  0.07826  1.0000
  N   N3        1.0  0.95671  0.66631  0.06639  1.0000
  N   N4        1.0  0.50412  0.10648  0.3598  1.0000
  N   N5        1.0  0.41235999999999995  0.07984  0.05621  1.0000
  N   N6        1.0  0.3867599999999999  0.03432  0.9217400000000001  1.0000
  N   N7        1.0  0.04329  0.33369  0.93361  1.0000
  N   N8        1.0  0.49588  0.89353  0.64019  1.0000
  Cl  Cl1       1.0  0.23191000000000003  0.8826299999999999  0.06947  1.0000
  Cl  Cl2       1.0  0.76809  0.11737  0.9305299999999999  1.0000
  O   O1        1.0  0.85263  0.10696999999999998  0.41961000000000004  1.0000
  O   O2        1.0  0.97932  0.17858  0.47309  1.0000
  O   O3        1.0  0.7720599999999999  0.36806  0.0751  1.0000
  O   O4        1.0  0.85916  0.47602  0.05359  1.0000
  O   O5        1.0  0.37327  0.4436899999999999  0.03764  1.0000
  O   O6        1.0  0.45984  0.40320999999999996  0.12722  1.0000
  O   O7        1.0  0.6179  0.38937  0.9427400000000001  1.0000
  O   O8        1.0  0.43346  0.44358000000000003  0.9017300000000001  1.0000
  O   O9        1.0  0.89223  0.06138  0.63489  1.0000
  O   O10       1.0  0.7708799999999996  0.9812899999999999  0.58712  1.0000
  O   O11       1.0  0.29856  0.04357  0.56488  1.0000
  O   O12       1.0  0.20072000000000004  0.14887  0.60365  1.0000
  O   O13       1.0  0.14737  0.8930299999999999  0.58039  1.0000
  O   O14       1.0  0.020679999999999997  0.82142  0.52691  1.0000
  O   O15       1.0  0.22794000000000017  0.63194  0.9248999999999999  1.0000
  O   O16       1.0  0.14083999999999997  0.52398  0.94641  1.0000
  O   O17       1.0  0.6267300000000001  0.55631  0.96236  1.0000
  O   O18       1.0  0.54015  0.59679  0.87278  1.0000
  O   O19       1.0  0.38210000000000005  0.61063  0.05726  1.0000
  O   O20       1.0  0.56654  0.55642  0.09827  1.0000
  O   O21       1.0  0.10776999999999998  0.9386200000000001  0.36511  1.0000
  O   O22       1.0  0.22911  0.01871  0.41288  1.0000
  O   O23       1.0  0.7014399999999998  0.95643  0.43511999999999995  1.0000
  O   O24       1.0  0.79928  0.85113  0.39635  1.0000
