data_image0
_chemical_formula_structural       Mn16H24C72S12O54
_chemical_formula_sum              "Mn16 H24 C72 S12 O54"
_cell_length_a       13.772
_cell_length_b       13.7676
_cell_length_c       20.72431
_cell_angle_alpha    70.39941
_cell_angle_beta     70.39752
_cell_angle_gamma    59.532270000000004

_symmetry_space_group_name_H-M    'P 1'
_symmetry_Int_Tables_number       1

loop_
  _symmetry_equiv_pos_as_xyz
  'x,y,z'

loop_
  _atom_site_type_symbol
  _atom_site_label
  _atom_site_symmetry_multiplicity
  _atom_site_fract_x
  _atom_site_fract_y
  _atom_site_fract_z
  _atom_site_occupancy
  Mn  Mn1       1.0  0.6162599999999999  0.6138500000000001  0.7481700000000001  1.0000
  Mn  Mn2       1.0  0.02389999999999986  0.6164500000000003  0.74787  1.0000
  Mn  Mn3       1.0  0.60898  0.02642999999999994  0.7476100000000001  1.0000
  Mn  Mn4       1.0  0.47374  0.8907900000000001  0.75228  1.0000
  Mn  Mn5       1.0  0.2743999999999999  0.27056  0.18271  1.0000
  Mn  Mn6       1.0  0.97632  0.38400000000000006  0.25195000000000006  1.0000
  Mn  Mn7       1.0  0.3849000000000001  0.38591  0.25161  1.0000
  Mn  Mn8       1.0  0.7268799999999996  0.7288300000000001  0.81564  1.0000
  Mn  Mn9       1.0  0.7714799999999999  0.7746000000000002  0.68268  1.0000
  Mn  Mn10      1.0  0.39020999999999995  0.9744300000000002  0.25154000000000004  1.0000
  Mn  Mn11      1.0  0.8845699999999999  0.47686999999999996  0.7517500000000003  1.0000
  Mn  Mn12      1.0  0.11368999999999999  0.11541  0.24791000000000005  1.0000
  Mn  Mn13      1.0  0.11621999999999998  0.52317  0.24809000000000003  1.0000
  Mn  Mn14      1.0  0.8856299999999997  0.88554  0.7512800000000001  1.0000
  Mn  Mn15      1.0  0.52646  0.10892000000000002  0.24755  1.0000
  Mn  Mn16      1.0  0.22876999999999983  0.22768000000000008  0.3156  1.0000
  H   H1        1.0  0.33013000000000003  0.38123000000000007  0.47434000000000004  1.0000
  H   H2        1.0  0.81419  0.32944  0.47487  1.0000
  H   H3        1.0  0.61624  0.18604  0.5249  1.0000
  H   H4        1.0  0.72974  0.08831999999999997  0.89506  1.0000
  H   H5        1.0  0.11823999999999993  0.16882000000000005  0.025820000000000003  1.0000
  H   H6        1.0  0.08884  0.28052000000000005  0.89607  1.0000
  H   H7        1.0  0.6869299999999998  0.11501000000000001  0.024780000000000003  1.0000
  H   H8        1.0  0.2350099999999998  0.7834100000000003  0.3954100000000001  1.0000
  H   H9        1.0  0.3144500000000001  0.8830200000000001  0.97591  1.0000
  H   H10       1.0  0.17076999999999998  0.6867100000000002  0.02514  1.0000
  H   H11       1.0  0.18692999999999974  0.6710500000000003  0.5250000000000001  1.0000
  H   H12       1.0  0.58958  0.22958999999999996  0.39512  1.0000
  H   H13       1.0  0.8305000000000001  0.31402  0.97493  1.0000
  H   H14       1.0  0.78145  0.5874500000000002  0.39607000000000003  1.0000
  H   H15       1.0  0.21886999999999998  0.4115  0.60383  1.0000
  H   H16       1.0  0.4110599999999996  0.7689500000000002  0.60526  1.0000
  H   H17       1.0  0.2695699999999999  0.91172  0.10527000000000002  1.0000
  H   H18       1.0  0.8814499999999995  0.8303600000000001  0.9743900000000001  1.0000
  H   H19       1.0  0.7193899999999998  0.26451  0.10444000000000003  1.0000
  H   H20       1.0  0.3821  0.8145600000000001  0.47569000000000006  1.0000
  H   H21       1.0  0.7649100000000001  0.21856000000000003  0.60431  1.0000
  H   H22       1.0  0.28273999999999994  0.7352800000000002  0.89555  1.0000
  H   H23       1.0  0.6693299999999998  0.6174000000000002  0.52574  1.0000
  H   H24       1.0  0.9111299999999996  0.7186600000000001  0.10399000000000001  1.0000
  C   C1        1.0  0.049900000000000014  0.57247  0.05911000000000001  1.0000
  C   C2        1.0  0.4804299999999998  0.08945000000000006  0.63519  1.0000
  C   C3        1.0  0.41118999999999994  0.19903999999999997  0.37846  1.0000
  C   C4        1.0  0.9108799999999999  0.50973  0.8786200000000001  1.0000
  C   C5        1.0  0.3241799999999999  0.9465099999999999  0.9897600000000001  1.0000
  C   C6        1.0  0.67598  0.3659700000000001  0.93965  1.0000
  C   C7        1.0  0.7433699999999995  0.32317000000000007  0.9891700000000001  1.0000
  C   C8        1.0  0.5740599999999999  0.31729000000000007  0.05917  1.0000
  C   C9        1.0  0.49306000000000005  0.29532  0.12121  1.0000
  C   C10       1.0  0.41151999999999994  0.017889999999999916  0.8652000000000002  1.0000
  C   C11       1.0  0.20250000000000004  0.009770000000000003  0.37883  1.0000
  C   C12       1.0  0.5092700000000002  0.7024599999999999  0.87884  1.0000
  C   C13       1.0  0.6782599999999999  0.9500299999999999  0.9408200000000001  1.0000
  C   C14       1.0  0.32079  0.05031  0.059440000000000014  1.0000
  C   C15       1.0  0.5172700000000001  0.9114500000000001  0.36512  1.0000
  C   C16       1.0  0.5202399999999999  0.8656700000000002  0.43995000000000006  1.0000
  C   C17       1.0  0.9608299999999999  0.68375  0.057100000000000005  1.0000
  C   C18       1.0  0.98097  0.3253300000000001  0.06042  1.0000
  C   C19       1.0  0.29988999999999977  0.09034999999999999  0.12124  1.0000
  C   C20       1.0  0.31724  0.702  0.94265  1.0000
  C   C21       1.0  0.9910299999999999  0.59115  0.6211400000000002  1.0000
  C   C22       1.0  0.8234999999999999  0.24220000000000003  0.48914  1.0000
  C   C23       1.0  0.9848199999999999  0.29428  0.1351  1.0000
  C   C24       1.0  0.46054  0.80044  0.55801  1.0000
  C   C25       1.0  0.24254999999999993  0.4452900000000001  0.48863000000000006  1.0000
  C   C26       1.0  0.44541000000000003  0.8243  0.48974  1.0000
  C   C27       1.0  0.9284899999999997  0.45070999999999994  0.44097000000000003  1.0000
  C   C28       1.0  0.3257499999999998  0.63333  0.06043  1.0000
  C   C29       1.0  0.5490299999999999  0.8208100000000002  0.55943  1.0000
  C   C30       1.0  0.82574  0.48066000000000003  0.56055  1.0000
  C   C31       1.0  0.010159999999999964  0.41023  0.3787900000000001  1.0000
  C   C32       1.0  0.9515499999999996  0.4278199999999999  0.9407800000000001  1.0000
  C   C33       1.0  0.7070299999999999  0.4140500000000001  0.8651200000000001  1.0000
  C   C34       1.0  0.8166299999999999  0.53876  0.44293000000000005  1.0000
  C   C35       1.0  0.20543000000000006  0.51501  0.36489  1.0000
  C   C36       1.0  0.8173799999999999  0.07282  0.55929  1.0000
  C   C37       1.0  0.69877  0.9105  0.8786  1.0000
  C   C38       1.0  0.6764499999999998  0.05218000000000001  0.010720000000000002  1.0000
  C   C39       1.0  0.5392499999999999  0.19893  0.44224000000000013  1.0000
  C   C40       1.0  0.7945999999999996  0.48547000000000007  0.6350300000000001  1.0000
  C   C41       1.0  0.05513  0.25689  0.01126  1.0000
  C   C42       1.0  0.75743  0.55441  0.51126  1.0000
  C   C43       1.0  0.5893999999999999  0.7998000000000002  0.62141  1.0000
  C   C44       1.0  0.36535  0.021429999999999932  0.9397000000000001  1.0000
  C   C45       1.0  0.09055999999999995  0.49078000000000005  0.1213  1.0000
  C   C46       1.0  0.07253999999999979  0.5503500000000002  0.559  1.0000
  C   C47       1.0  0.01987999999999987  0.6745999999999998  0.9394000000000002  1.0000
  C   C48       1.0  0.9452599999999994  0.7426500000000001  0.9887000000000001  1.0000
  C   C49       1.0  0.20194  0.81775  0.44256000000000006  1.0000
  C   C50       1.0  0.014960000000000011  0.70538  0.8649  1.0000
  C   C51       1.0  0.4282199999999999  0.6808199999999999  0.9409900000000001  1.0000
  C   C52       1.0  0.039719999999999964  0.31599  0.9428300000000001  1.0000
  C   C53       1.0  0.86643  0.17492000000000005  0.43949000000000005  1.0000
  C   C54       1.0  0.29446000000000006  0.58547  0.135  1.0000
  C   C55       1.0  0.7975199999999996  0.18367  0.55741  1.0000
  C   C56       1.0  0.6989800000000002  0.038249999999999944  0.9423200000000002  1.0000
  C   C57       1.0  0.17687  0.75854  0.51084  1.0000
  C   C58       1.0  0.7952099999999996  0.9921100000000002  0.6211000000000001  1.0000
  C   C59       1.0  0.25821999999999995  0.67671  0.01093  1.0000
  C   C60       1.0  0.13357  0.8260200000000001  0.56036  1.0000
  C   C61       1.0  0.18379000000000004  0.46110999999999996  0.55699  1.0000
  C   C62       1.0  0.58979  0.9796400000000001  0.13536  1.0000
  C   C63       1.0  0.08624999999999991  0.79442  0.63504  1.0000
  C   C64       1.0  0.4777999999999998  0.13525  0.56025  1.0000
  C   C65       1.0  0.6847299999999997  0.29718  0.05745  1.0000
  C   C66       1.0  0.9146499999999996  0.20576000000000003  0.36523000000000005  1.0000
  C   C67       1.0  0.5532099999999996  0.17609  0.51069  1.0000
  C   C68       1.0  0.6353799999999998  0.9769700000000002  0.06043  1.0000
  C   C69       1.0  0.17457999999999993  0.5199900000000001  0.4393  1.0000
  C   C70       1.0  0.18068999999999996  0.92872  0.44098  1.0000
  C   C71       1.0  0.45087999999999995  0.1786  0.4406  1.0000
  C   C72       1.0  0.30071999999999993  0.96143  0.05798  1.0000
  S   S1        1.0  0.4609199999999997  0.6272000000000001  0.02329  1.0000
  S   S2        1.0  0.8710399999999998  0.040040000000000006  0.4768200000000001  1.0000
  S   S3        1.0  0.1270399999999998  0.9613500000000003  0.5233  1.0000
  S   S4        1.0  0.5413900000000001  0.37054999999999993  0.9768  1.0000
  S   S5        1.0  0.9616499999999999  0.38883  0.52315  1.0000
  S   S6        1.0  0.3868  0.12859000000000004  0.52307  1.0000
  S   S7        1.0  0.3714199999999999  0.11355000000000003  0.97663  1.0000
  S   S8        1.0  0.03945999999999987  0.6132400000000001  0.47677  1.0000
  S   S9        1.0  0.6281199999999998  0.88621  0.023310000000000008  1.0000
  S   S10       1.0  0.8892899999999997  0.4611200000000001  0.022920000000000006  1.0000
  S   S11       1.0  0.6121199999999998  0.8717300000000002  0.47683  1.0000
  S   S12       1.0  0.11277000000000006  0.5393  0.97693  1.0000
  O   O1        1.0  0.6885599999999997  0.54585  0.65953  1.0000
  O   O2        1.0  0.14308999999999997  0.24991000000000002  0.24990000000000004  1.0000
  O   O3        1.0  0.30548  0.18296  0.11425  1.0000
  O   O4        1.0  0.8183400000000001  0.6022  0.88615  1.0000
  O   O5        1.0  0.9717999999999999  0.48450000000000004  0.81802  1.0000
  O   O6        1.0  0.35979  0.14123  0.24984  1.0000
  O   O7        1.0  0.8006799999999996  0.90092  0.6141700000000001  1.0000
  O   O8        1.0  0.023659999999999973  0.87543  0.66949  1.0000
  O   O9        1.0  0.4582899999999998  0.8894700000000002  0.34067  1.0000
  O   O10       1.0  0.044189999999999986  0.18811000000000003  0.15973  1.0000
  O   O11       1.0  0.19478  0.10182999999999998  0.38621000000000005  1.0000
  O   O12       1.0  0.18849  0.6074  0.15935  1.0000
  O   O13       1.0  0.53818  0.11270000000000005  0.65974  1.0000
  O   O14       1.0  0.22854  0.98432  0.31827000000000005  1.0000
  O   O15       1.0  0.61202  0.03875  0.15955  1.0000
  O   O16       1.0  0.5280099999999995  0.7760100000000002  0.68225  1.0000
  O   O17       1.0  0.9535600000000001  0.81114  0.84048  1.0000
  O   O18       1.0  0.38995999999999953  0.9583000000000005  0.84077  1.0000
  O   O19       1.0  0.251  0.35668000000000005  0.25035  1.0000
  O   O20       1.0  0.5183299999999998  0.26989000000000013  0.18197  1.0000
  O   O21       1.0  0.42777  0.02709  0.66947  1.0000
  O   O22       1.0  0.016099999999999868  0.5295500000000001  0.6818900000000002  1.0000
  O   O23       1.0  0.4016399999999999  0.3020100000000001  0.1138  1.0000
  O   O24       1.0  0.8131199999999998  0.3916400000000001  0.84062  1.0000
  O   O25       1.0  0.52874  0.92578  0.17022  1.0000
  O   O26       1.0  0.85691  0.7503  0.74982  1.0000
  O   O27       1.0  0.48375999999999986  0.7284800000000003  0.81826  1.0000
  O   O28       1.0  0.1241399999999999  0.5689800000000002  0.33062  1.0000
  O   O29       1.0  0.9848100000000001  0.47113999999999995  0.31817  1.0000
  O   O30       1.0  0.97727  0.12461  0.33066  1.0000
  O   O31       1.0  0.6257299999999999  0.4770400000000001  0.83084  1.0000
  O   O32       1.0  0.6014599999999999  0.6944499999999999  0.8861800000000001  1.0000
  O   O33       1.0  0.37571  0.52298  0.16933  1.0000
  O   O34       1.0  0.8993999999999995  0.6843600000000001  0.61361  1.0000
  O   O35       1.0  0.57107  0.97271  0.33047  1.0000
  O   O36       1.0  0.3113800000000002  0.45381  0.34052  1.0000
  O   O37       1.0  0.47196999999999995  0.22394  0.3179  1.0000
  O   O38       1.0  0.89306  0.3118900000000001  0.34063  1.0000
  O   O39       1.0  0.06927999999999994  0.6239199999999999  0.8307300000000001  1.0000
  O   O40       1.0  0.6912099999999999  0.81869  0.8860500000000001  1.0000
  O   O41       1.0  0.6819800000000001  0.80579  0.61364  1.0000
  O   O42       1.0  0.18394000000000002  0.39934  0.11369000000000001  1.0000
  O   O43       1.0  0.7500800000000003  0.64288  0.75034  1.0000
  O   O44       1.0  0.27577  0.028699999999999996  0.18253  1.0000
  O   O45       1.0  0.028539999999999992  0.51547  0.18201000000000003  1.0000
  O   O46       1.0  0.6401599999999994  0.85943  0.74997  1.0000
  O   O47       1.0  0.7237600000000001  0.9714  0.8181200000000001  1.0000
  O   O48       1.0  0.4728099999999997  0.0716899999999999  0.8302500000000003  1.0000
  O   O49       1.0  0.7703999999999998  0.016650000000000005  0.6824  1.0000
  O   O50       1.0  0.10888999999999985  0.6882600000000001  0.6593200000000002  1.0000
  O   O51       1.0  0.8759299999999997  0.43205  0.66923  1.0000
  O   O52       1.0  0.31944999999999996  0.19129999999999997  0.3860700000000001  1.0000
  O   O53       1.0  0.9315799999999994  0.37580000000000013  0.16915000000000005  1.0000
  O   O54       1.0  0.10279999999999988  0.31777000000000005  0.38619000000000003  1.0000
