data_image0
_chemical_formula_structural       Cu8H64C112O40
_chemical_formula_sum              "Cu8 H64 C112 O40"
_cell_length_a       15.76483
_cell_length_b       15.76455
_cell_length_c       21.44844
_cell_angle_alpha    85.40915999999999
_cell_angle_beta     85.40459
_cell_angle_gamma    60.32668999999999

_space_group_name_H-M_alt    "P 1"
_space_group_IT_number       1

loop_
  _space_group_symop_operation_xyz
  'x, y, z'

loop_
  _atom_site_type_symbol
  _atom_site_label
  _atom_site_symmetry_multiplicity
  _atom_site_fract_x
  _atom_site_fract_y
  _atom_site_fract_z
  _atom_site_occupancy
  Cu  Cu1       1.0  0.50465  0.50837  0.69293  1.0000
  Cu  Cu2       1.0  0.53473  0.054200000000000005  0.9950599999999997  1.0000
  Cu  Cu3       1.0  0.49161999999999995  0.49533  0.80702  1.0000
  Cu  Cu4       1.0  0.9458000000000001  0.46525999999999995  0.50493  1.0000
  Cu  Cu5       1.0  0.4953400000000002  0.49164  0.30706  1.0000
  Cu  Cu6       1.0  0.46525999999999995  0.9458000000000001  0.00494  1.0000
  Cu  Cu7       1.0  0.50837  0.50467  0.19297999999999998  1.0000
  Cu  Cu8       1.0  0.05418999999999998  0.53474  0.49506999999999995  1.0000
  H   H1        1.0  0.19091000000000005  0.60158  0.8466  1.0000
  H   H2        1.0  0.01654999999999999  0.64116  0.8512299999999999  1.0000
  H   H3        1.0  0.04191999999999997  0.58572  0.65518  1.0000
  H   H4        1.0  0.21624999999999991  0.5458100000000001  0.65116  1.0000
  H   H5        1.0  0.7656800000000004  0.9174600000000002  0.8592399999999999  1.0000
  H   H6        1.0  0.9026200000000001  0.8042300000000001  0.78827  1.0000
  H   H7        1.0  0.78358  0.6094600000000001  0.8013899999999999  1.0000
  H   H8        1.0  0.6457200000000001  0.72411  0.8719599999999997  1.0000
  H   H9        1.0  0.34586000000000006  0.28573  0.8679899999999998  1.0000
  H   H10       1.0  0.20408000000000012  0.40783  0.80577  1.0000
  H   H11       1.0  0.07452000000000006  0.22225  0.8318599999999998  1.0000
  H   H12       1.0  0.2158100000000001  0.10112  0.89386  1.0000
  H   H13       1.0  0.7762  0.40769  0.8688399999999998  1.0000
  H   H14       1.0  0.9461899999999999  0.37741000000000025  0.8787099999999999  1.0000
  H   H15       1.0  0.9662000000000004  0.43722  0.6802399999999998  1.0000
  H   H16       1.0  0.7969400000000001  0.46748  0.67078  1.0000
  H   H17       1.0  0.3984200000000002  0.80908  0.65337  1.0000
  H   H18       1.0  0.35887  0.98344  0.64877  1.0000
  H   H19       1.0  0.41432  0.95802  0.8448299999999999  1.0000
  H   H20       1.0  0.45420000000000016  0.78369  0.8488099999999998  1.0000
  H   H21       1.0  0.08254  0.23432000000000006  0.64079  1.0000
  H   H22       1.0  0.1957700000000001  0.09738999999999999  0.71174  1.0000
  H   H23       1.0  0.39052000000000026  0.21643999999999997  0.69862  1.0000
  H   H24       1.0  0.27589  0.35429  0.62805  1.0000
  H   H25       1.0  0.7142800000000002  0.65413  0.6319799999999999  1.0000
  H   H26       1.0  0.5921800000000004  0.79592  0.69423  1.0000
  H   H27       1.0  0.7777800000000005  0.92545  0.66814  1.0000
  H   H28       1.0  0.8989000000000004  0.78416  0.6061099999999999  1.0000
  H   H29       1.0  0.5923000000000003  0.22376000000000004  0.63109  1.0000
  H   H30       1.0  0.6226400000000002  0.05374  0.6212499999999999  1.0000
  H   H31       1.0  0.5628200000000002  0.03381  0.81973  1.0000
  H   H32       1.0  0.5324900000000002  0.20312000000000002  0.8291599999999999  1.0000
  H   H33       1.0  0.8090800000000001  0.39842  0.15339999999999998  1.0000
  H   H34       1.0  0.9834400000000001  0.35884  0.14876  1.0000
  H   H35       1.0  0.95807  0.41429  0.34482  1.0000
  H   H36       1.0  0.78374  0.4542  0.34883999999999993  1.0000
  H   H37       1.0  0.2343100000000001  0.08255  0.14075999999999997  1.0000
  H   H38       1.0  0.09737000000000001  0.19577  0.21171999999999996  1.0000
  H   H39       1.0  0.21641  0.39054000000000005  0.19860999999999998  1.0000
  H   H40       1.0  0.35427  0.2759  0.12803  1.0000
  H   H41       1.0  0.6541400000000004  0.71428  0.13200999999999996  1.0000
  H   H42       1.0  0.79591  0.59218  0.19423  1.0000
  H   H43       1.0  0.9254700000000005  0.77776  0.16813  1.0000
  H   H44       1.0  0.7841800000000001  0.89889  0.10614  1.0000
  H   H45       1.0  0.22379000000000002  0.59232  0.13115  1.0000
  H   H46       1.0  0.05379999999999998  0.6225900000000001  0.12128999999999998  1.0000
  H   H47       1.0  0.03378999999999992  0.5627900000000001  0.31976  1.0000
  H   H48       1.0  0.2030500000000001  0.53253  0.32921999999999996  1.0000
  H   H49       1.0  0.6015700000000003  0.19092  0.34663  1.0000
  H   H50       1.0  0.6411200000000002  0.016569999999999998  0.35123  1.0000
  H   H51       1.0  0.58567  0.04198000000000001  0.15516999999999997  1.0000
  H   H52       1.0  0.5457900000000002  0.21631  0.15119  1.0000
  H   H53       1.0  0.91745  0.76568  0.3592099999999999  1.0000
  H   H54       1.0  0.8042300000000003  0.90262  0.28825999999999996  1.0000
  H   H55       1.0  0.6094700000000001  0.78356  0.3013799999999999  1.0000
  H   H56       1.0  0.72411  0.64572  0.37194  1.0000
  H   H57       1.0  0.28571  0.34588  0.36801999999999996  1.0000
  H   H58       1.0  0.4078100000000002  0.20409  0.30576999999999993  1.0000
  H   H59       1.0  0.22221  0.07456  0.33186  1.0000
  H   H60       1.0  0.1011  0.21585  0.39388999999999996  1.0000
  H   H61       1.0  0.4076900000000002  0.77624  0.36889999999999995  1.0000
  H   H62       1.0  0.3773500000000004  0.94627  0.37874  1.0000
  H   H63       1.0  0.43717000000000006  0.9662  0.18026999999999999  1.0000
  H   H64       1.0  0.4675000000000001  0.79689  0.17084  1.0000
  C   C1        1.0  0.31859000000000004  0.54769  0.74712  1.0000
  C   C2        1.0  0.2145100000000002  0.57208  0.74852  1.0000
  C   C3        1.0  0.15751  0.59914  0.8048599999999998  1.0000
  C   C4        1.0  0.060179999999999984  0.62149  0.8075099999999998  1.0000
  C   C5        1.0  0.01895000000000007  0.6174  0.75312  1.0000
  C   C6        1.0  0.07482  0.58944  0.6967699999999998  1.0000
  C   C7        1.0  0.17215000000000014  0.5672899999999997  0.6946799999999999  1.0000
  C   C8        1.0  0.62005  0.8926000000000002  0.91487  1.0000
  C   C9        1.0  0.6979400000000004  0.82725  0.87039  1.0000
  C   C10       1.0  0.7702800000000003  0.84996  0.84636  1.0000
  C   C11       1.0  0.8467200000000004  0.78679  0.80712  1.0000
  C   C12       1.0  0.8515400000000001  0.69946  0.79235  1.0000
  C   C13       1.0  0.7786399999999999  0.6770000000000002  0.8145  1.0000
  C   C14       1.0  0.7021700000000001  0.74098  0.85341  1.0000
  C   C15       1.0  0.37108000000000024  0.11533000000000003  0.9234899999999999  1.0000
  C   C16       1.0  0.2889400000000001  0.18626  0.8853399999999999  1.0000
  C   C17       1.0  0.28608  0.27268  0.8601699999999999  1.0000
  C   C18       1.0  0.20753000000000002  0.34083000000000013  0.8260299999999999  1.0000
  C   C19       1.0  0.13064  0.3232300000000001  0.8170099999999999  1.0000
  C   C20       1.0  0.13307  0.23659  0.84063  1.0000
  C   C21       1.0  0.21227000000000001  0.16876  0.87485  1.0000
  C   C22       1.0  0.6753700000000001  0.45678  0.76347  1.0000
  C   C23       1.0  0.7766500000000004  0.4378300000000001  0.7691599999999998  1.0000
  C   C24       1.0  0.8189800000000004  0.41263  0.82777  1.0000
  C   C25       1.0  0.9137600000000003  0.39548  0.8333299999999999  1.0000
  C   C26       1.0  0.9663700000000004  0.40343  0.77949  1.0000
  C   C27       1.0  0.92458  0.42995000000000005  0.72106  1.0000
  C   C28       1.0  0.8301200000000001  0.44686000000000003  0.7159799999999998  1.0000
  C   C29       1.0  0.4523200000000001  0.68138  0.7528399999999998  1.0000
  C   C30       1.0  0.4279200000000001  0.78547  0.75146  1.0000
  C   C31       1.0  0.4008600000000002  0.84248  0.6951199999999998  1.0000
  C   C32       1.0  0.37853  0.9398000000000002  0.6924899999999998  1.0000
  C   C33       1.0  0.3826100000000004  0.9810300000000001  0.74688  1.0000
  C   C34       1.0  0.41057000000000016  0.92515  0.80323  1.0000
  C   C35       1.0  0.4327200000000002  0.82782  0.8053  1.0000
  C   C36       1.0  0.10746000000000001  0.37989  0.5851  1.0000
  C   C37       1.0  0.17273000000000002  0.30207  0.6296499999999999  1.0000
  C   C38       1.0  0.15006000000000008  0.22971  0.6536499999999997  1.0000
  C   C39       1.0  0.21320999999999996  0.15328  0.69289  1.0000
  C   C40       1.0  0.30055  0.14846000000000006  0.70766  1.0000
  C   C41       1.0  0.32299  0.22136  0.68551  1.0000
  C   C42       1.0  0.2590300000000001  0.2978199999999999  0.64659  1.0000
  C   C43       1.0  0.8846600000000001  0.62889  0.5765  1.0000
  C   C44       1.0  0.8137400000000004  0.71105  0.61464  1.0000
  C   C45       1.0  0.7273200000000001  0.71391  0.63981  1.0000
  C   C46       1.0  0.6591799999999999  0.79246  0.67396  1.0000
  C   C47       1.0  0.6768  0.8693300000000002  0.68298  1.0000
  C   C48       1.0  0.7634400000000003  0.86691  0.65936  1.0000
  C   C49       1.0  0.8312600000000004  0.78771  0.62513  1.0000
  C   C50       1.0  0.5431600000000002  0.32464  0.73645  1.0000
  C   C51       1.0  0.56213  0.22336  0.73078  1.0000
  C   C52       1.0  0.5873600000000002  0.18100000000000002  0.6721699999999999  1.0000
  C   C53       1.0  0.60455  0.08621000000000001  0.6666299999999998  1.0000
  C   C54       1.0  0.5966000000000002  0.033620000000000004  0.7204699999999999  1.0000
  C   C55       1.0  0.57007  0.07543  0.77891  1.0000
  C   C56       1.0  0.5531200000000002  0.16991  0.78397  1.0000
  C   C57       1.0  0.6814  0.45231  0.25287  1.0000
  C   C58       1.0  0.7854900000000004  0.42792  0.2514799999999999  1.0000
  C   C59       1.0  0.8424900000000003  0.40086  0.19513999999999995  1.0000
  C   C60       1.0  0.9398100000000001  0.37852  0.19249  1.0000
  C   C61       1.0  0.9810400000000005  0.38260000000000005  0.24688  1.0000
  C   C62       1.0  0.9251700000000002  0.41056  0.30323  1.0000
  C   C63       1.0  0.8278400000000004  0.43271  0.30531999999999987  1.0000
  C   C64       1.0  0.3799400000000001  0.1074  0.08513  1.0000
  C   C65       1.0  0.3020500000000001  0.17275000000000001  0.12960999999999998  1.0000
  C   C66       1.0  0.22971  0.15005  0.15364  1.0000
  C   C67       1.0  0.15327  0.21322000000000002  0.19287999999999997  1.0000
  C   C68       1.0  0.14846  0.30054  0.20765  1.0000
  C   C69       1.0  0.2213500000000001  0.32301  0.1855  1.0000
  C   C70       1.0  0.2978200000000001  0.25903  0.14659  1.0000
  C   C71       1.0  0.6289100000000002  0.8846800000000001  0.0765  1.0000
  C   C72       1.0  0.7110500000000004  0.81374  0.11466  1.0000
  C   C73       1.0  0.71391  0.72733  0.13982999999999998  1.0000
  C   C74       1.0  0.7924600000000003  0.65917  0.17397  1.0000
  C   C75       1.0  0.8693600000000004  0.6767800000000002  0.18298999999999996  1.0000
  C   C76       1.0  0.8669300000000006  0.76341  0.15937  1.0000
  C   C77       1.0  0.7877300000000004  0.83124  0.12515  1.0000
  C   C78       1.0  0.3246200000000002  0.54323  0.23653  1.0000
  C   C79       1.0  0.22333999999999998  0.56218  0.23084  1.0000
  C   C80       1.0  0.18102  0.58738  0.17221999999999998  1.0000
  C   C81       1.0  0.08623999999999991  0.6045300000000002  0.16666  1.0000
  C   C82       1.0  0.03361999999999999  0.5965800000000001  0.22049999999999997  1.0000
  C   C83       1.0  0.0754099999999999  0.5700500000000001  0.27894  1.0000
  C   C84       1.0  0.1698800000000001  0.55315  0.28401999999999994  1.0000
  C   C85       1.0  0.5476700000000002  0.31863  0.24716  1.0000
  C   C86       1.0  0.57207  0.21454  0.24854  1.0000
  C   C87       1.0  0.59913  0.15753  0.30488  1.0000
  C   C88       1.0  0.6214600000000002  0.0602  0.30750999999999995  1.0000
  C   C89       1.0  0.6173800000000003  0.01897  0.25311999999999996  1.0000
  C   C90       1.0  0.5894200000000003  0.07486000000000001  0.19677  1.0000
  C   C91       1.0  0.56728  0.17218000000000003  0.1947  1.0000
  C   C92       1.0  0.8925300000000002  0.62012  0.4149  1.0000
  C   C93       1.0  0.8272600000000003  0.69793  0.37035  1.0000
  C   C94       1.0  0.8499300000000002  0.7703000000000002  0.34635  1.0000
  C   C95       1.0  0.7867800000000001  0.84673  0.30710999999999994  1.0000
  C   C96       1.0  0.69945  0.8515400000000001  0.29234  1.0000
  C   C97       1.0  0.67701  0.77864  0.31448999999999994  1.0000
  C   C98       1.0  0.7409600000000003  0.70219  0.35340999999999995  1.0000
  C   C99       1.0  0.11533000000000003  0.37112  0.4234999999999999  1.0000
  C   C100      1.0  0.18626000000000006  0.28896  0.3853599999999999  1.0000
  C   C101      1.0  0.2726700000000001  0.2861  0.36019  1.0000
  C   C102      1.0  0.34080999999999995  0.20755  0.32604  1.0000
  C   C103      1.0  0.32319999999999993  0.13067000000000006  0.31701999999999997  1.0000
  C   C104      1.0  0.23656000000000002  0.13309000000000007  0.34064  1.0000
  C   C105      1.0  0.1687400000000001  0.2123  0.3748699999999999  1.0000
  C   C106      1.0  0.45683  0.67536  0.26354999999999995  1.0000
  C   C107      1.0  0.43786  0.77664  0.26922  1.0000
  C   C108      1.0  0.4126300000000002  0.819  0.32783  1.0000
  C   C109      1.0  0.39544000000000007  0.9138  0.33336999999999994  1.0000
  C   C110      1.0  0.4033900000000001  0.96639  0.27953  1.0000
  C   C111      1.0  0.4299200000000004  0.92457  0.22108999999999998  1.0000
  C   C112      1.0  0.44687000000000004  0.8301  0.21602999999999997  1.0000
  O   O1        1.0  0.36627999999999994  0.53341  0.69417  1.0000
  O   O2        1.0  0.35320000000000007  0.5425  0.8004799999999999  1.0000
  O   O3        1.0  0.6212800000000002  0.97012  0.9280499999999999  1.0000
  O   O4        1.0  0.5575500000000003  0.8672  0.9375  1.0000
  O   O5        1.0  0.92427  0.6337  0.7527899999999998  1.0000
  O   O6        1.0  0.43653000000000014  0.13763  0.93421  1.0000
  O   O7        1.0  0.3709800000000001  0.03628  0.94368  1.0000
  O   O8        1.0  0.6406400000000002  0.47983  0.70888  1.0000
  O   O9        1.0  0.6297100000000002  0.44955  0.81426  1.0000
  O   O10       1.0  0.05813999999999997  0.3943  0.78071  1.0000
  O   O11       1.0  0.4666000000000001  0.6336900000000001  0.80581  1.0000
  O   O12       1.0  0.45753000000000005  0.64676  0.6994999999999999  1.0000
  O   O13       1.0  0.029890000000000017  0.37873  0.5719499999999998  1.0000
  O   O14       1.0  0.1327900000000001  0.44246  0.56251  1.0000
  O   O15       1.0  0.36630000000000007  0.07572000000000004  0.7472099999999998  1.0000
  O   O16       1.0  0.86235  0.56344  0.56578  1.0000
  O   O17       1.0  0.96374  0.62896  0.5563299999999999  1.0000
  O   O18       1.0  0.52013  0.35937  0.7910599999999998  1.0000
  O   O19       1.0  0.55033  0.3703  0.6856599999999998  1.0000
  O   O20       1.0  0.6057399999999998  0.94184  0.71928  1.0000
  O   O21       1.0  0.63371  0.4666  0.30582999999999994  1.0000
  O   O22       1.0  0.64679  0.4575100000000001  0.19952  1.0000
  O   O23       1.0  0.37871000000000005  0.029880000000000004  0.07194999999999999  1.0000
  O   O24       1.0  0.44244000000000006  0.13281  0.062499999999999986  1.0000
  O   O25       1.0  0.07572000000000001  0.36631  0.24720999999999996  1.0000
  O   O26       1.0  0.56346  0.86237  0.06578999999999999  1.0000
  O   O27       1.0  0.62901  0.9637300000000002  0.05631999999999999  1.0000
  O   O28       1.0  0.35936000000000007  0.52017  0.29112  1.0000
  O   O29       1.0  0.37028000000000005  0.55045  0.18573999999999993  1.0000
  O   O30       1.0  0.9418500000000003  0.6057  0.21927999999999997  1.0000
  O   O31       1.0  0.53339  0.36631  0.19419  1.0000
  O   O32       1.0  0.5424700000000002  0.35324  0.3005  1.0000
  O   O33       1.0  0.9701  0.62128  0.4280499999999999  1.0000
  O   O34       1.0  0.8672000000000001  0.55755  0.43749  1.0000
  O   O35       1.0  0.6336899999999999  0.92429  0.25279  1.0000
  O   O36       1.0  0.13764000000000012  0.43656  0.43421  1.0000
  O   O37       1.0  0.03625000000000004  0.37104  0.44367  1.0000
  O   O38       1.0  0.4798700000000001  0.64063  0.20893  1.0000
  O   O39       1.0  0.44966  0.6297  0.31433999999999995  1.0000
  O   O40       1.0  0.3942500000000001  0.05816000000000001  0.28071999999999997  1.0000
