data_image0
_chemical_formula_structural       Pr4H52C84O44
_chemical_formula_sum              "Pr4 H52 C84 O44"
_cell_length_a       8.97194
_cell_length_b       15.20284
_cell_length_c       16.74057
_cell_angle_alpha    89.99963
_cell_angle_beta     90.06938
_cell_angle_gamma    103.26036

_symmetry_space_group_name_H-M    'P 1'
_symmetry_Int_Tables_number       1

loop_
  _symmetry_equiv_pos_as_xyz
  'x,y,z'

loop_
  _atom_site_type_symbol
  _atom_site_label
  _atom_site_symmetry_multiplicity
  _atom_site_fract_x
  _atom_site_fract_y
  _atom_site_fract_z
  _atom_site_occupancy
  Pr  Pr1       1.0  0.44069  0.03774000000000002  0.89044  1.0000
  Pr  Pr2       1.0  0.06182000000000006  0.9623800000000002  0.39084  1.0000
  Pr  Pr3       1.0  0.5592600000000001  0.9610200000000002  0.10878  1.0000
  Pr  Pr4       1.0  0.94046  0.039820000000000015  0.60898  1.0000
  H   H1        1.0  0.9754800000000001  0.8586600000000002  0.9850900000000001  1.0000
  H   H2        1.0  0.9543399999999999  0.9144100000000002  0.07619  1.0000
  H   H3        1.0  0.14971000000000007  0.7923400000000003  0.9416200000000002  1.0000
  H   H4        1.0  0.25219000000000014  0.6669000000000003  0.89206  1.0000
  H   H5        1.0  0.13683  0.52622  0.11509000000000003  1.0000
  H   H6        1.0  0.028859999999999993  0.65013  0.16351  1.0000
  H   H7        1.0  0.12694000000000003  0.40941000000000005  0.04648  1.0000
  H   H8        1.0  0.6682200000000001  0.36471000000000003  0.75408  1.0000
  H   H9        1.0  0.57607  0.50238  0.7883500000000002  1.0000
  H   H10       1.0  0.4616199999999999  0.27823  0.058740000000000014  1.0000
  H   H11       1.0  0.2812  0.19882000000000005  0.06568  1.0000
  H   H12       1.0  0.64886  0.23935000000000006  0.7116300000000002  1.0000
  H   H13       1.0  0.7971  0.22602000000000005  0.7803700000000002  1.0000
  H   H14       1.0  0.52326  0.14099  0.48508000000000007  1.0000
  H   H15       1.0  0.54898  0.08666000000000003  0.57624  1.0000
  H   H16       1.0  0.35038  0.20768000000000006  0.4417200000000001  1.0000
  H   H17       1.0  0.24693999999999997  0.3327400000000001  0.39222  1.0000
  H   H18       1.0  0.36286000000000007  0.4738700000000001  0.61505  1.0000
  H   H19       1.0  0.47223  0.3504700000000001  0.66342  1.0000
  H   H20       1.0  0.37311  0.59097  0.54639  1.0000
  H   H21       1.0  0.8311000000000001  0.6354400000000002  0.25352  1.0000
  H   H22       1.0  0.92275  0.49752000000000013  0.28791000000000005  1.0000
  H   H23       1.0  0.036890000000000006  0.722  0.55984  1.0000
  H   H24       1.0  0.21788  0.8014  0.5658600000000003  1.0000
  H   H25       1.0  0.85018  0.76188  0.21147000000000005  1.0000
  H   H26       1.0  0.7014600000000001  0.7746600000000002  0.27986  1.0000
  H   H27       1.0  0.024290000000000027  0.14140000000000005  0.014900000000000004  1.0000
  H   H28       1.0  0.04569  0.0857  0.9237800000000003  1.0000
  H   H29       1.0  0.8500099999999998  0.20763  0.05839000000000001  1.0000
  H   H30       1.0  0.74774  0.33308  0.108  1.0000
  H   H31       1.0  0.8631400000000001  0.4738600000000001  0.885  1.0000
  H   H32       1.0  0.9710200000000001  0.34991  0.83656  1.0000
  H   H33       1.0  0.87294  0.59055  0.95359  1.0000
  H   H34       1.0  0.3318300000000001  0.6354500000000002  0.24598  1.0000
  H   H35       1.0  0.42375  0.4976700000000001  0.21176000000000003  1.0000
  H   H36       1.0  0.53828  0.7213300000000002  0.94105  1.0000
  H   H37       1.0  0.71844  0.8010100000000002  0.93401  1.0000
  H   H38       1.0  0.35146  0.76116  0.28835  1.0000
  H   H39       1.0  0.20310999999999996  0.77427  0.21960000000000005  1.0000
  H   H40       1.0  0.47809000000000007  0.8597500000000002  0.5151800000000002  1.0000
  H   H41       1.0  0.45158000000000004  0.9139200000000001  0.42407  1.0000
  H   H42       1.0  0.6502100000000001  0.7928400000000002  0.5582400000000002  1.0000
  H   H43       1.0  0.75302  0.66756  0.60776  1.0000
  H   H44       1.0  0.63691  0.52653  0.3849  1.0000
  H   H45       1.0  0.52796  0.65015  0.33651  1.0000
  H   H46       1.0  0.62705  0.40926000000000007  0.45358  1.0000
  H   H47       1.0  0.16963  0.36578  0.74666  1.0000
  H   H48       1.0  0.07691999999999999  0.50334  0.71223  1.0000
  H   H49       1.0  0.96223  0.2792600000000001  0.4406000000000001  1.0000
  H   H50       1.0  0.78155  0.19940000000000005  0.43493  1.0000
  H   H51       1.0  0.15077000000000002  0.23890000000000006  0.7886900000000002  1.0000
  H   H52       1.0  0.29953  0.22631000000000007  0.72022  1.0000
  C   C1        1.0  0.18771000000000004  0.93548  0.03605  1.0000
  C   C2        1.0  0.025829999999999968  0.87614  0.044400000000000016  1.0000
  C   C3        1.0  0.08235000000000009  0.7303600000000001  0.05697  1.0000
  C   C4        1.0  0.14486  0.73419  0.9800500000000001  1.0000
  C   C5        1.0  0.20332999999999998  0.6623900000000001  0.95162  1.0000
  C   C6        1.0  0.2031000000000001  0.5856300000000002  0.99879  1.0000
  C   C7        1.0  0.13812000000000008  0.5831900000000002  0.07566000000000003  1.0000
  C   C8        1.0  0.07812999999999996  0.65353  0.10403  1.0000
  C   C9        1.0  0.38392  0.5218  0.90646  1.0000
  C   C10       1.0  0.2674100000000001  0.5103000000000002  0.9698000000000001  1.0000
  C   C11       1.0  0.21773  0.42628  0.00241  1.0000
  C   C12       1.0  0.37767000000000006  0.3577200000000001  0.92534  1.0000
  C   C13       1.0  0.43216000000000004  0.2796400000000001  0.90995  1.0000
  C   C14       1.0  0.53322  0.28193  0.84521  1.0000
  C   C15       1.0  0.58395  0.36202000000000006  0.8010800000000002  1.0000
  C   C16       1.0  0.53436  0.4392400000000001  0.82033  1.0000
  C   C17       1.0  0.4301700000000001  0.43858000000000014  0.88295  1.0000
  C   C18       1.0  0.39749  0.21039000000000005  0.04119  1.0000
  C   C19       1.0  0.47741  0.14056000000000005  0.07459000000000003  1.0000
  C   C20       1.0  0.67775  0.20020000000000004  0.76209  1.0000
  C   C21       1.0  0.65509  0.10340000000000003  0.73229  1.0000
  C   C22       1.0  0.31389000000000006  0.06439  0.5381100000000002  1.0000
  C   C23       1.0  0.47561  0.12424000000000002  0.5449800000000002  1.0000
  C   C24       1.0  0.4188200000000001  0.2699900000000001  0.55703  1.0000
  C   C25       1.0  0.35535  0.26582000000000006  0.4802  1.0000
  C   C26       1.0  0.2963100000000001  0.33744000000000013  0.45173  1.0000
  C   C27       1.0  0.29660000000000003  0.4143600000000001  0.49874  1.0000
  C   C28       1.0  0.36192  0.41696  0.5756000000000002  1.0000
  C   C29       1.0  0.42259  0.3468600000000001  0.60397  1.0000
  C   C30       1.0  0.11641  0.4783  0.40610000000000007  1.0000
  C   C31       1.0  0.23225  0.48978  0.46985  1.0000
  C   C32       1.0  0.28186  0.57385  0.50246  1.0000
  C   C33       1.0  0.12084999999999996  0.64203  0.42543  1.0000
  C   C34       1.0  0.06563000000000012  0.7199000000000002  0.41027000000000013  1.0000
  C   C35       1.0  0.9651499999999998  0.7178900000000003  0.34515  1.0000
  C   C36       1.0  0.9150800000000001  0.6379200000000003  0.30074  1.0000
  C   C37       1.0  0.96463  0.56063  0.3200000000000001  1.0000
  C   C38       1.0  0.06887  0.56122  0.3827700000000001  1.0000
  C   C39       1.0  0.10119000000000006  0.7895400000000001  0.54172  1.0000
  C   C40       1.0  0.023050000000000105  0.8602200000000002  0.57477  1.0000
  C   C41       1.0  0.8210200000000001  0.8005400000000003  0.2622  1.0000
  C   C42       1.0  0.8456300000000002  0.8979400000000002  0.23359000000000005  1.0000
  C   C43       1.0  0.81222  0.06450000000000002  0.9637700000000001  1.0000
  C   C44       1.0  0.97411  0.12393  0.95555  1.0000
  C   C45       1.0  0.9175400000000001  0.2696800000000001  0.94308  1.0000
  C   C46       1.0  0.8549  0.26578  0.01997  1.0000
  C   C47       1.0  0.79648  0.33759000000000006  0.048410000000000016  1.0000
  C   C48       1.0  0.7968000000000001  0.41438000000000014  0.0012800000000000003  1.0000
  C   C49       1.0  0.86175  0.4168300000000001  0.92439  1.0000
  C   C50       1.0  0.9217199999999999  0.34649  0.8960300000000002  1.0000
  C   C51       1.0  0.61589  0.4781600000000001  0.0936  1.0000
  C   C52       1.0  0.73247  0.4896800000000001  0.03028  1.0000
  C   C53       1.0  0.78208  0.57368  0.9976300000000001  1.0000
  C   C54       1.0  0.62208  0.6422000000000002  0.07466  1.0000
  C   C55       1.0  0.56757  0.72028  0.08995  1.0000
  C   C56       1.0  0.46671000000000007  0.71815  0.15475000000000005  1.0000
  C   C57       1.0  0.41603000000000007  0.6380900000000003  0.19896  1.0000
  C   C58       1.0  0.46552  0.5608  0.17975  1.0000
  C   C59       1.0  0.56965  0.56138  0.11712  1.0000
  C   C60       1.0  0.6021300000000002  0.7892800000000002  0.9584900000000001  1.0000
  C   C61       1.0  0.52201  0.85901  0.9250300000000002  1.0000
  C   C62       1.0  0.3224200000000001  0.8002300000000002  0.23789000000000002  1.0000
  C   C63       1.0  0.3450700000000001  0.8971300000000002  0.26757  1.0000
  C   C64       1.0  0.6869700000000001  0.9367500000000002  0.4615400000000001  1.0000
  C   C65       1.0  0.52529  0.8764800000000003  0.4552000000000001  1.0000
  C   C66       1.0  0.58133  0.7305100000000001  0.44302  1.0000
  C   C67       1.0  0.64489  0.73462  0.51982  1.0000
  C   C68       1.0  0.7036700000000002  0.6629100000000002  0.5482600000000002  1.0000
  C   C69       1.0  0.7031400000000001  0.5859600000000003  0.50125  1.0000
  C   C70       1.0  0.63793  0.58345  0.4243600000000001  1.0000
  C   C71       1.0  0.5774100000000001  0.6536400000000002  0.39601000000000003  1.0000
  C   C72       1.0  0.88323  0.5221600000000001  0.59403  1.0000
  C   C73       1.0  0.76741  0.51056  0.5302500000000002  1.0000
  C   C74       1.0  0.71808  0.42648000000000014  0.4976300000000001  1.0000
  C   C75       1.0  0.87919  0.3585800000000001  0.5748300000000002  1.0000
  C   C76       1.0  0.93484  0.28092  0.59012  1.0000
  C   C77       1.0  0.03556000000000006  0.2830300000000001  0.65511  1.0000
  C   C78       1.0  0.08546000000000006  0.36303000000000013  0.69949  1.0000
  C   C79       1.0  0.03537000000000002  0.4401700000000001  0.68018  1.0000
  C   C80       1.0  0.9309399999999999  0.43937  0.61747  1.0000
  C   C81       1.0  0.89857  0.21151000000000006  0.45863  1.0000
  C   C82       1.0  0.97689  0.14113000000000006  0.4251200000000001  1.0000
  C   C83       1.0  0.18003  0.20025000000000007  0.73797  1.0000
  C   C84       1.0  0.15548  0.10270000000000001  0.76647  1.0000
  O   O1        1.0  0.21364000000000005  0.9827000000000002  0.97228  1.0000
  O   O2        1.0  0.2805700000000001  0.9341300000000002  0.09261000000000003  1.0000
  O   O3        1.0  0.021150000000000002  0.79612  0.09119000000000002  1.0000
  O   O4        1.0  0.44339  0.59527  0.87384  1.0000
  O   O5        1.0  0.2699500000000001  0.3515700000000001  0.9844100000000001  1.0000
  O   O6        1.0  0.3861  0.20140000000000005  0.95374  1.0000
  O   O7        1.0  0.49662  0.13336  0.14762  1.0000
  O   O8        1.0  0.52373  0.08861  0.02322  1.0000
  O   O9        1.0  0.57784  0.20334000000000005  0.82957  1.0000
  O   O10       1.0  0.74892  0.09323000000000002  0.6784  1.0000
  O   O11       1.0  0.54613  0.042720000000000015  0.75805  1.0000
  O   O12       1.0  0.28811  0.01617  0.47487  1.0000
  O   O13       1.0  0.22175  0.06613  0.59488  1.0000
  O   O14       1.0  0.48161000000000004  0.20477  0.59121  1.0000
  O   O15       1.0  0.05901000000000003  0.40476  0.373  1.0000
  O   O16       1.0  0.22907000000000005  0.6484100000000003  0.48445000000000005  1.0000
  O   O17       1.0  0.11068000000000011  0.7979400000000002  0.45434  1.0000
  O   O18       1.0  0.005750000000000122  0.8687900000000002  0.6478  1.0000
  O   O19       1.0  0.9768500000000001  0.91172  0.52297  1.0000
  O   O20       1.0  0.9200500000000003  0.7964000000000002  0.3298600000000001  1.0000
  O   O21       1.0  0.74856  0.91095  0.18243  1.0000
  O   O22       1.0  0.9600000000000001  0.9563600000000002  0.25763  1.0000
  O   O23       1.0  0.78634  0.017180000000000008  0.0275  1.0000
  O   O24       1.0  0.71947  0.06576  0.90713  1.0000
  O   O25       1.0  0.97883  0.20397  0.90882  1.0000
  O   O26       1.0  0.55643  0.40469  0.12621  1.0000
  O   O27       1.0  0.72963  0.64834  0.015540000000000002  1.0000
  O   O28       1.0  0.61369  0.79844  0.04595  1.0000
  O   O29       1.0  0.50325  0.86656  0.8520000000000002  1.0000
  O   O30       1.0  0.4754399999999999  0.9108  0.97646  1.0000
  O   O31       1.0  0.4222400000000001  0.7968100000000002  0.17036  1.0000
  O   O32       1.0  0.2510100000000001  0.9068800000000002  0.3215900000000001  1.0000
  O   O33       1.0  0.45363000000000014  0.9580600000000002  0.24181  1.0000
  O   O34       1.0  0.7125700000000001  0.9864100000000002  0.52399  1.0000
  O   O35       1.0  0.7789  0.9340300000000002  0.40489  1.0000
  O   O36       1.0  0.51861  0.7957800000000003  0.40896  1.0000
  O   O37       1.0  0.94079  0.5956800000000002  0.62704  1.0000
  O   O38       1.0  0.77102  0.35196  0.51574  1.0000
  O   O39       1.0  0.88974  0.20296  0.54606  1.0000
  O   O40       1.0  0.99422  0.13321  0.35206  1.0000
  O   O41       1.0  0.02328  0.08915  0.47652  1.0000
  O   O42       1.0  0.08074000000000003  0.20440000000000005  0.67032  1.0000
  O   O43       1.0  0.25184  0.08932  0.81776  1.0000
  O   O44       1.0  0.04157  0.04423  0.74205  1.0000
