data_image0
_chemical_formula_structural       Zn6H56C80N12O28
_chemical_formula_sum              "Zn6 H56 C80 N12 O28"
_cell_length_a       13.58352
_cell_length_b       13.412309999999998
_cell_length_c       14.657309999999999
_cell_angle_alpha    107.31687
_cell_angle_beta     107.40520999999998
_cell_angle_gamma    110.68775

_space_group_name_H-M_alt    "P 1"
_space_group_IT_number       1

loop_
  _space_group_symop_operation_xyz
  'x, y, z'

loop_
  _atom_site_type_symbol
  _atom_site_label
  _atom_site_symmetry_multiplicity
  _atom_site_fract_x
  _atom_site_fract_y
  _atom_site_fract_z
  _atom_site_occupancy
  Zn  Zn1       1.0  0.5454799999999999  0.26714  0.8997  1.0000
  Zn  Zn2       1.0  0.85361  0.63245  0.89968  1.0000
  Zn  Zn3       1.0  0.45452  0.73286  0.10030999999999998  1.0000
  Zn  Zn4       1.0  0.14639  0.3675500000000001  0.10032  1.0000
  Zn  Zn5       1.0  0.49999999999999983  0.5  0.0  1.0000
  Zn  Zn6       1.0  0.0  0.5  0.0  1.0000
  H   H1        1.0  0.5866199999999999  0.4434  0.86591  1.0000
  H   H2        1.0  0.38007  0.78149  0.8148  1.0000
  H   H3        1.0  0.4390999999999999  0.69304  0.53541  1.0000
  H   H4        1.0  0.5702  0.61877  0.6149799999999999  1.0000
  H   H5        1.0  0.3962099999999999  0.40405  0.7477099999999998  1.0000
  H   H6        1.0  0.20291999999999996  0.26379  0.58831  1.0000
  H   H7        1.0  0.05105999999999997  0.22265000000000004  0.8049299999999999  1.0000
  H   H8        1.0  0.2514  0.37133  0.95574  1.0000
  H   H9        1.0  0.9223299999999995  0.11014000000000004  0.61876  1.0000
  H   H10       1.0  0.028689999999999997  0.1447  0.4645699999999999  1.0000
  H   H11       1.0  0.7022199999999998  0.8681200000000002  0.12796  1.0000
  H   H12       1.0  0.90301  0.01853000000000003  0.27903  1.0000
  H   H13       1.0  0.74658  0.0055899999999999995  0.49547  1.0000
  H   H14       1.0  0.55411  0.8548  0.33636999999999995  1.0000
  H   H15       1.0  0.7792399999999998  0.42315  0.86774  1.0000
  H   H16       1.0  0.9345299999999997  0.03233999999999994  0.8149999999999998  1.0000
  H   H17       1.0  0.5973899999999999  0.84069  0.53525  1.0000
  H   H18       1.0  0.5468299999999998  0.9965399999999999  0.61448  1.0000
  H   H19       1.0  0.8512699999999999  0.3430500000000001  0.74788  1.0000
  H   H20       1.0  0.8848799999999999  0.32332000000000005  0.58814  1.0000
  H   H21       1.0  0.25316  0.58133  0.80413  1.0000
  H   H22       1.0  0.20403  0.58433  0.95521  1.0000
  H   H23       1.0  0.19568  0.50781  0.61836  1.0000
  H   H24       1.0  0.9351599999999999  0.32003  0.4636099999999999  1.0000
  H   H25       1.0  0.9266199999999999  0.26117  0.12771  1.0000
  H   H26       1.0  0.87619  0.26114  0.27816  1.0000
  H   H27       1.0  0.24819999999999998  0.49083  0.49522999999999995  1.0000
  H   H28       1.0  0.28261999999999987  0.4835499999999999  0.3368299999999999  1.0000
  H   H29       1.0  0.41337999999999997  0.5566000000000001  0.13409  1.0000
  H   H30       1.0  0.6199299999999998  0.21851000000000007  0.1852  1.0000
  H   H31       1.0  0.5608899999999998  0.30696  0.4645999999999999  1.0000
  H   H32       1.0  0.4297999999999999  0.38124  0.38502  1.0000
  H   H33       1.0  0.6037799999999998  0.5959500000000001  0.25229  1.0000
  H   H34       1.0  0.7970799999999999  0.7362100000000001  0.4117  1.0000
  H   H35       1.0  0.94894  0.77735  0.19507  1.0000
  H   H36       1.0  0.7486  0.62867  0.044259999999999994  1.0000
  H   H37       1.0  0.07767000000000003  0.8898600000000001  0.38124  1.0000
  H   H38       1.0  0.9713099999999999  0.8553000000000001  0.53543  1.0000
  H   H39       1.0  0.29777999999999977  0.13187999999999986  0.8720499999999998  1.0000
  H   H40       1.0  0.09699000000000008  0.98147  0.7209799999999998  1.0000
  H   H41       1.0  0.25342000000000003  0.9944200000000002  0.50453  1.0000
  H   H42       1.0  0.4458899999999999  0.14520000000000005  0.66364  1.0000
  H   H43       1.0  0.22075999999999998  0.57686  0.13227  1.0000
  H   H44       1.0  0.06547000000000003  0.9676600000000002  0.185  1.0000
  H   H45       1.0  0.4025999999999999  0.15931  0.46475  1.0000
  H   H46       1.0  0.4531699999999999  0.003470000000000026  0.38552  1.0000
  H   H47       1.0  0.14873000000000003  0.6569500000000001  0.25212999999999997  1.0000
  H   H48       1.0  0.11511999999999997  0.6766900000000001  0.41185999999999995  1.0000
  H   H49       1.0  0.74684  0.4186800000000001  0.19587  1.0000
  H   H50       1.0  0.7959699999999997  0.41567  0.04479  1.0000
  H   H51       1.0  0.8043199999999998  0.4922  0.38164  1.0000
  H   H52       1.0  0.06484000000000002  0.6799700000000001  0.53639  1.0000
  H   H53       1.0  0.07338000000000004  0.73883  0.87229  1.0000
  H   H54       1.0  0.12380999999999999  0.73886  0.72184  1.0000
  H   H55       1.0  0.7517899999999997  0.5091700000000001  0.50478  1.0000
  H   H56       1.0  0.7173799999999998  0.51646  0.66317  1.0000
  C   C1        1.0  0.5475599999999998  0.6562699999999999  0.7592999999999998  1.0000
  C   C2        1.0  0.4917999999999999  0.70096  0.8149699999999999  1.0000
  C   C3        1.0  0.4209799999999999  0.7451899999999999  0.7708299999999998  1.0000
  C   C4        1.0  0.40381000000000006  0.7420200000000001  0.67117  1.0000
  C   C5        1.0  0.45599  0.69563  0.61359  1.0000
  C   C6        1.0  0.5280899999999998  0.65382  0.6585199999999999  1.0000
  C   C7        1.0  0.6271999999999999  0.6080999999999999  0.8004699999999998  1.0000
  C   C8        1.0  0.50245  0.69687  0.91904  1.0000
  C   C9        1.0  0.3169499999999999  0.36245  0.75663  1.0000
  C   C10       1.0  0.20813999999999994  0.28281000000000006  0.6676399999999999  1.0000
  C   C11       1.0  0.10804999999999988  0.22893999999999998  0.6820999999999998  1.0000
  C   C12       1.0  0.12464999999999996  0.26039  0.78803  1.0000
  C   C13       1.0  0.23590999999999995  0.34243999999999997  0.8727999999999999  1.0000
  C   C14       1.0  0.9901599999999998  0.14540000000000006  0.59436  1.0000
  C   C15       1.0  0.9607900000000001  0.11001000000000002  0.48898  1.0000
  C   C16       1.0  0.71647  0.90209  0.21073  1.0000
  C   C17       1.0  0.8277299999999997  0.98515  0.29514  1.0000
  C   C18       1.0  0.8432399999999998  0.02483999999999997  0.40123999999999993  1.0000
  C   C19       1.0  0.7419599999999997  0.97751  0.41598  1.0000
  C   C20       1.0  0.63395  0.89466  0.32788  1.0000
  C   C21       1.0  0.7125699999999999  0.10275999999999993  0.7593099999999999  1.0000
  C   C22       1.0  0.82338  0.11332  0.81484  1.0000
  C   C23       1.0  0.8498599999999997  0.02433000000000002  0.77084  1.0000
  C   C24       1.0  0.76744  0.92724  0.67124  1.0000
  C   C25       1.0  0.6583299999999999  0.91651  0.6135599999999999  1.0000
  C   C26       1.0  0.63165  0.004219999999999976  0.65832  1.0000
  C   C27       1.0  0.6743199999999999  0.19260000000000005  0.80086  1.0000
  C   C28       1.0  0.9165899999999998  0.22204999999999991  0.9187899999999999  1.0000
  C   C29       1.0  0.9393699999999998  0.3935  0.75657  1.0000
  C   C30       1.0  0.9589899999999998  0.38377000000000006  0.66738  1.0000
  C   C31       1.0  0.07335  0.45215000000000005  0.68155  1.0000
  C   C32       1.0  0.16275999999999993  0.52676  0.78739  1.0000
  C   C33       1.0  0.13649999999999998  0.52991  0.87235  1.0000
  C   C34       1.0  0.10339000000000001  0.44823  0.59374  1.0000
  C   C35       1.0  0.027540000000000023  0.37898000000000004  0.48827  1.0000
  C   C36       1.0  0.9948299999999998  0.31  0.21050999999999995  1.0000
  C   C37       1.0  0.96757  0.31097  0.29464999999999997  1.0000
  C   C38       1.0  0.05769000000000001  0.37716000000000005  0.40077  1.0000
  C   C39       1.0  0.17369  0.43963  0.4157499999999999  1.0000
  C   C40       1.0  0.19416  0.4348800000000001  0.328  1.0000
  C   C41       1.0  0.45244  0.34374  0.24071  1.0000
  C   C42       1.0  0.5082  0.29905  0.18503  1.0000
  C   C43       1.0  0.5790199999999998  0.25482000000000005  0.22918  1.0000
  C   C44       1.0  0.5961900000000002  0.25798  0.32883  1.0000
  C   C45       1.0  0.5440099999999999  0.30437  0.38641  1.0000
  C   C46       1.0  0.47191  0.34619  0.34149  1.0000
  C   C47       1.0  0.37278999999999995  0.39191000000000004  0.19954  1.0000
  C   C48       1.0  0.4975499999999999  0.30314  0.08096999999999997  1.0000
  C   C49       1.0  0.6830399999999998  0.63755  0.24337999999999996  1.0000
  C   C50       1.0  0.7918600000000001  0.7171900000000002  0.33237  1.0000
  C   C51       1.0  0.89195  0.77106  0.31789999999999996  1.0000
  C   C52       1.0  0.8753499999999999  0.7396200000000003  0.21196999999999994  1.0000
  C   C53       1.0  0.76409  0.65757  0.1272  1.0000
  C   C54       1.0  0.009830000000000028  0.8546  0.40564  1.0000
  C   C55       1.0  0.03921000000000007  0.88999  0.51102  1.0000
  C   C56       1.0  0.28352999999999995  0.09791999999999997  0.78927  1.0000
  C   C57       1.0  0.17226  0.014849999999999976  0.70486  1.0000
  C   C58       1.0  0.15676  0.97516  0.59877  1.0000
  C   C59       1.0  0.25804  0.022490000000000017  0.58403  1.0000
  C   C60       1.0  0.3660499999999999  0.10535  0.67213  1.0000
  C   C61       1.0  0.2874300000000001  0.8972400000000003  0.24068999999999993  1.0000
  C   C62       1.0  0.17661999999999997  0.88668  0.18515999999999996  1.0000
  C   C63       1.0  0.15013999999999986  0.9756799999999999  0.22916  1.0000
  C   C64       1.0  0.23255999999999993  0.07276  0.32877  1.0000
  C   C65       1.0  0.34166  0.08349  0.38644  1.0000
  C   C66       1.0  0.36835000000000007  0.99578  0.34169  1.0000
  C   C67       1.0  0.32568  0.80741  0.19915  1.0000
  C   C68       1.0  0.08341000000000001  0.77796  0.08120999999999999  1.0000
  C   C69       1.0  0.060629999999999996  0.60651  0.24343  1.0000
  C   C70       1.0  0.04101000000000002  0.61623  0.33263  1.0000
  C   C71       1.0  0.92665  0.54786  0.31845  1.0000
  C   C72       1.0  0.83724  0.4732400000000001  0.21261  1.0000
  C   C73       1.0  0.8634999999999998  0.4701  0.12766  1.0000
  C   C74       1.0  0.89661  0.5517800000000002  0.40626  1.0000
  C   C75       1.0  0.9724599999999995  0.62102  0.51173  1.0000
  C   C76       1.0  0.0051699999999999845  0.69001  0.7894999999999999  1.0000
  C   C77       1.0  0.032430000000000014  0.68903  0.70535  1.0000
  C   C78       1.0  0.9423099999999998  0.62285  0.59924  1.0000
  C   C79       1.0  0.8263099999999998  0.5603700000000001  0.58425  1.0000
  C   C80       1.0  0.8058399999999998  0.56513  0.67201  1.0000
  N   N1        1.0  0.32821  0.78637  0.62471  1.0000
  N   N2        1.0  0.3312599999999998  0.39259999999999995  0.8580199999999998  1.0000
  N   N3        1.0  0.6204599999999999  0.8570500000000002  0.22617  1.0000
  N   N4        1.0  0.79604  0.83551  0.62473  1.0000
  N   N5        1.0  0.026489999999999937  0.46506999999999993  0.8578399999999999  1.0000
  N   N6        1.0  0.10630999999999997  0.37077  0.22627  1.0000
  N   N7        1.0  0.67179  0.21363  0.3753  1.0000
  N   N8        1.0  0.6687399999999999  0.60741  0.14199  1.0000
  N   N9        1.0  0.37953  0.14295  0.77384  1.0000
  N   N10       1.0  0.20396  0.16449000000000003  0.37527  1.0000
  N   N11       1.0  0.9735  0.53494  0.14216999999999996  1.0000
  N   N12       1.0  0.8936899999999998  0.6292400000000001  0.7737399999999999  1.0000
  O   O1        1.0  0.73475  0.68785  0.8667399999999998  1.0000
  O   O2        1.0  0.58564  0.49683  0.75953  1.0000
  O   O3        1.0  0.5561199999999997  0.6448400000000001  0.9508699999999999  1.0000
  O   O4        1.0  0.45355999999999996  0.7456200000000002  0.9660099999999998  1.0000
  O   O5        1.0  0.2738999999999999  0.81753  0.67223  1.0000
  O   O6        1.0  0.32049000000000005  0.7897500000000002  0.53871  1.0000
  O   O7        1.0  0.58084  0.42621000000000003  0.9251799999999998  1.0000
  O   O8        1.0  0.6326  0.17953000000000002  0.867  1.0000
  O   O9        1.0  0.6753599999999997  0.26273  0.7600199999999999  1.0000
  O   O10       1.0  0.8951699999999999  0.30672  0.94983  1.0000
  O   O11       1.0  0.011569999999999935  0.21979  0.9662199999999997  1.0000
  O   O12       1.0  0.89822  0.85284  0.6709  1.0000
  O   O13       1.0  0.7168899999999998  0.74446  0.54004  1.0000
  O   O14       1.0  0.8447799999999998  0.50001  0.92644  1.0000
  O   O15       1.0  0.26525  0.31215  0.13327  1.0000
  O   O16       1.0  0.4143599999999999  0.50318  0.24047  1.0000
  O   O17       1.0  0.44387999999999994  0.3551700000000001  0.04913  1.0000
  O   O18       1.0  0.5464399999999998  0.25438  0.034  1.0000
  O   O19       1.0  0.7261  0.18247000000000008  0.32778  1.0000
  O   O20       1.0  0.67951  0.21025  0.46128999999999987  1.0000
  O   O21       1.0  0.41915999999999987  0.57379  0.07482  1.0000
  O   O22       1.0  0.3674  0.82047  0.13300999999999996  1.0000
  O   O23       1.0  0.32464  0.7372800000000002  0.23997999999999994  1.0000
  O   O24       1.0  0.10482999999999996  0.69328  0.05018  1.0000
  O   O25       1.0  0.9884299999999998  0.7802100000000001  0.03379  1.0000
  O   O26       1.0  0.10176999999999997  0.14716  0.32911  1.0000
  O   O27       1.0  0.28310999999999986  0.25554000000000004  0.45996  1.0000
  O   O28       1.0  0.1552199999999999  0.49998999999999993  0.07356  1.0000
