data_image0
_chemical_formula_structural       La4P12H84C36N12O36
_chemical_formula_sum              "La4 P12 H84 C36 N12 O36"
_cell_length_a       6.33331
_cell_length_b       13.366490000000002
_cell_length_c       22.39704
_cell_angle_alpha    88.65863999999999
_cell_angle_beta     84.07022
_cell_angle_gamma    76.27301

_symmetry_space_group_name_H-M    'P 1'
_symmetry_Int_Tables_number       1

loop_
  _symmetry_equiv_pos_as_xyz
  'x,y,z'

loop_
  _atom_site_type_symbol
  _atom_site_label
  _atom_site_symmetry_multiplicity
  _atom_site_fract_x
  _atom_site_fract_y
  _atom_site_fract_z
  _atom_site_occupancy
  La  La1       1.0  0.05563999999999997  0.3776700000000001  0.94318  1.0000
  La  La2       1.0  0.04345999999999993  0.4447300000000001  0.5609  1.0000
  La  La3       1.0  0.43126  0.6221800000000001  0.44333  1.0000
  La  La4       1.0  0.48545999999999984  0.5567100000000001  0.06112  1.0000
  P   P1        1.0  0.03976000000000001  0.18547000000000002  0.6231999999999999  1.0000
  P   P2        1.0  0.58104  0.28907  0.02518  1.0000
  P   P3        1.0  0.9579600000000003  0.4614300000000001  0.11237999999999997  1.0000
  P   P4        1.0  0.9600099999999999  0.6486000000000002  0.9810799999999998  1.0000
  P   P5        1.0  0.04824999999999998  0.52981  0.3936  1.0000
  P   P6        1.0  0.32822000000000007  0.11429000000000002  0.88673  1.0000
  P   P7        1.0  0.21653999999999984  0.8147100000000003  0.12491  1.0000
  P   P8        1.0  0.86596  0.71212  0.52528  1.0000
  P   P9        1.0  0.42137000000000013  0.53823  0.6124  1.0000
  P   P10       1.0  0.6083199999999999  0.35301  0.48072999999999994  1.0000
  P   P11       1.0  0.57611  0.4701800000000001  0.89374  1.0000
  P   P12       1.0  0.43862  0.88754  0.38779  1.0000
  H   H1        1.0  0.6867200000000002  0.15079  0.66141  1.0000
  H   H2        1.0  0.6611399999999998  0.24705000000000005  0.60499  1.0000
  H   H3        1.0  0.34950000000000003  0.37107  0.7379099999999998  1.0000
  H   H4        1.0  0.3355800000000001  0.28555  0.6798499999999998  1.0000
  H   H5        1.0  0.5221200000000001  0.13421000000000002  0.7413899999999999  1.0000
  H   H6        1.0  0.28324999999999995  0.20528  0.78111  1.0000
  H   H7        1.0  0.8913700000000004  0.24634000000000006  0.82197  1.0000
  H   H8        1.0  0.88503  0.15688  0.76461  1.0000
  H   H9        1.0  0.9512900000000002  0.31830000000000014  0.7177  1.0000
  H   H10       1.0  0.71466  0.39136  0.7603299999999998  1.0000
  H   H11       1.0  0.72605  0.15198  0.09455  1.0000
  H   H12       1.0  0.44171  0.16473000000000002  0.08965  1.0000
  H   H13       1.0  0.4533600000000001  0.9899700000000001  0.07997  1.0000
  H   H14       1.0  0.7335399999999999  0.9691000000000002  0.09452999999999998  1.0000
  H   H15       1.0  0.6534999999999999  0.8158400000000002  0.04449  1.0000
  H   H16       1.0  0.5549500000000005  0.89683  0.9849799999999999  1.0000
  H   H17       1.0  0.08822000000000006  0.94866  0.9303699999999998  1.0000
  H   H18       1.0  0.80674  0.9700800000000003  0.91793  1.0000
  H   H19       1.0  0.98958  0.04038  0.027089999999999993  1.0000
  H   H20       1.0  0.89181  0.12182000000000003  0.96756  1.0000
  H   H21       1.0  0.92251  0.28520000000000006  0.11874  1.0000
  H   H22       1.0  0.20164999999999997  0.29288  0.09937999999999997  1.0000
  H   H23       1.0  0.20543000000000006  0.4320100000000001  0.19548999999999997  1.0000
  H   H24       1.0  0.41839000000000004  0.32509000000000005  0.17962999999999998  1.0000
  H   H25       1.0  0.37679  0.2688  0.2917  1.0000
  H   H26       1.0  0.39418999999999976  0.40096  0.28604  1.0000
  H   H27       1.0  0.7911999999999997  0.3296900000000001  0.3309099999999999  1.0000
  H   H28       1.0  0.029169999999999967  0.22770000000000007  0.31407  1.0000
  H   H29       1.0  0.8096000000000001  0.25493000000000005  0.22545  1.0000
  H   H30       1.0  0.8018200000000002  0.38977  0.22340999999999994  1.0000
  H   H31       1.0  0.09672  0.7762300000000001  0.91943  1.0000
  H   H32       1.0  0.8110399999999999  0.7917400000000002  0.91537  1.0000
  H   H33       1.0  0.9846500000000001  0.35989000000000004  0.40525  1.0000
  H   H34       1.0  0.2728299999999999  0.3542200000000001  0.38734  1.0000
  H   H35       1.0  0.66088  0.17514000000000002  0.89553  1.0000
  H   H36       1.0  0.7113500000000001  0.07584  0.8403799999999998  1.0000
  H   H37       1.0  0.63793  0.37384  0.66442  1.0000
  H   H38       1.0  0.50092  0.29706000000000005  0.83248  1.0000
  H   H39       1.0  0.5162799999999999  0.08284  0.98779  1.0000
  H   H40       1.0  0.024250000000000018  0.8543  0.021979999999999996  1.0000
  H   H41       1.0  0.1757  0.21571  0.19405  1.0000
  H   H42       1.0  0.0004099999999999666  0.45045  0.29881  1.0000
  H   H43       1.0  0.83112  0.84844  0.16297  1.0000
  H   H44       1.0  0.8983300000000003  0.75194  0.10647999999999998  1.0000
  H   H45       1.0  0.7130300000000003  0.6285  0.23934999999999998  1.0000
  H   H46       1.0  0.6139999999999999  0.7144100000000001  0.18152  1.0000
  H   H47       1.0  0.6472500000000001  0.8654  0.24311999999999998  1.0000
  H   H48       1.0  0.48261  0.79363  0.28323999999999994  1.0000
  H   H49       1.0  0.13198000000000007  0.7535  0.32299999999999995  1.0000
  H   H50       1.0  0.03625999999999987  0.8431800000000003  0.26587999999999995  1.0000
  H   H51       1.0  0.26293999999999995  0.6825100000000001  0.21844  1.0000
  H   H52       1.0  0.10264  0.60872  0.26152  1.0000
  H   H53       1.0  0.8839700000000003  0.84914  0.59374  1.0000
  H   H54       1.0  0.61059  0.83814  0.59061  1.0000
  H   H55       1.0  0.44911  0.01248  0.58127  1.0000
  H   H56       1.0  0.7105900000000003  0.03252  0.5938799999999999  1.0000
  H   H57       1.0  0.47356  0.18597000000000005  0.545  1.0000
  H   H58       1.0  0.4523600000000001  0.10505  0.48582  1.0000
  H   H59       1.0  0.03739000000000002  0.052150000000000016  0.4294899999999999  1.0000
  H   H60       1.0  0.77648  0.03141000000000001  0.41737  1.0000
  H   H61       1.0  0.031859999999999944  0.9614900000000002  0.5261699999999999  1.0000
  H   H62       1.0  0.014569999999999996  0.87916  0.46703999999999996  1.0000
  H   H63       1.0  0.2100000000000001  0.7141300000000002  0.61919  1.0000
  H   H64       1.0  0.49633000000000005  0.70658  0.5989699999999999  1.0000
  H   H65       1.0  0.64131  0.56782  0.69537  1.0000
  H   H66       1.0  0.7471600000000002  0.67489  0.68029  1.0000
  H   H67       1.0  0.6464700000000004  0.7306200000000003  0.7923099999999998  1.0000
  H   H68       1.0  0.7955800000000001  0.59808  0.78679  1.0000
  H   H69       1.0  0.12007999999999994  0.6718300000000001  0.83031  1.0000
  H   H70       1.0  0.25856  0.77293  0.81368  1.0000
  H   H71       1.0  0.06765999999999996  0.74549  0.7245499999999999  1.0000
  H   H72       1.0  0.19394999999999998  0.6107900000000003  0.72294  1.0000
  H   H73       1.0  0.8748300000000001  0.22553000000000006  0.41942  1.0000
  H   H74       1.0  0.6045700000000002  0.21030000000000004  0.4153  1.0000
  H   H75       1.0  0.34084  0.6402700000000001  0.90485  1.0000
  H   H76       1.0  0.6238199999999999  0.6460000000000002  0.8878499999999998  1.0000
  H   H77       1.0  0.8323100000000001  0.82668  0.39641  1.0000
  H   H78       1.0  0.78261  0.92483  0.3408999999999999  1.0000
  H   H79       1.0  0.004869999999999988  0.62511  0.16588  1.0000
  H   H80       1.0  0.7937599999999999  0.70357  0.33399  1.0000
  H   H81       1.0  0.59905  0.9195400000000001  0.4882599999999999  1.0000
  H   H82       1.0  0.8816699999999998  0.14663000000000004  0.52081  1.0000
  H   H83       1.0  0.3956299999999998  0.7838800000000001  0.6939499999999998  1.0000
  H   H84       1.0  0.44994  0.54966  0.7986  1.0000
  C   C1        1.0  0.74248  0.21893000000000007  0.64507  1.0000
  C   C2        1.0  0.43041  0.29694  0.71652  1.0000
  C   C3        1.0  0.44510999999999995  0.20971000000000004  0.76129  1.0000
  C   C4        1.0  0.80145  0.23162000000000005  0.7851099999999998  1.0000
  C   C5        1.0  0.7894300000000001  0.31654  0.73911  1.0000
  C   C6        1.0  0.59879  0.16330000000000006  0.06345  1.0000
  C   C7        1.0  0.6222899999999999  0.9785500000000001  0.05926  1.0000
  C   C8        1.0  0.6709999999999999  0.8848200000000003  0.01916  1.0000
  C   C9        1.0  0.9210899999999999  0.95995  0.9523899999999998  1.0000
  C   C10       1.0  0.8737599999999999  0.05283  0.99283  1.0000
  C   C11       1.0  0.05198  0.32192  0.12897  1.0000
  C   C12       1.0  0.26803000000000005  0.35189  0.2098  1.0000
  C   C13       1.0  0.29935  0.3459200000000001  0.27566  1.0000
  C   C14       1.0  0.94307  0.30532  0.30096  1.0000
  C   C15       1.0  0.8973799999999997  0.3129200000000001  0.23558  1.0000
  C   C16       1.0  0.9408500000000004  0.7765000000000002  0.94577  1.0000
  C   C17       1.0  0.10635000000000007  0.3912900000000001  0.37771999999999994  1.0000
  C   C18       1.0  0.5924699999999999  0.14449  0.85886  1.0000
  C   C19       1.0  0.9537499999999997  0.7799400000000001  0.1463  1.0000
  C   C20       1.0  0.7204699999999998  0.7025400000000002  0.21811  1.0000
  C   C21       1.0  0.6481799999999999  0.7897800000000003  0.26299  1.0000
  C   C22       1.0  0.027339999999999896  0.7684700000000002  0.28617  1.0000
  C   C23       1.0  0.10012  0.68346  0.24012  1.0000
  C   C24       1.0  0.7648400000000004  0.8384700000000003  0.56344  1.0000
  C   C25       1.0  0.6054500000000003  0.023310000000000008  0.55944  1.0000
  C   C26       1.0  0.5585  0.11689000000000001  0.51946  1.0000
  C   C27       1.0  0.8816400000000002  0.041080000000000005  0.4516899999999999  1.0000
  C   C28       1.0  0.9278599999999999  0.9484100000000002  0.4922  1.0000
  C   C29       1.0  0.37684000000000006  0.6776200000000002  0.6289899999999999  1.0000
  C   C30       1.0  0.6231900000000002  0.64778  0.71004  1.0000
  C   C31       1.0  0.6464700000000002  0.6535000000000002  0.7760999999999998  1.0000
  C   C32       1.0  0.24908000000000005  0.69539  0.8006299999999997  1.0000
  C   C33       1.0  0.21281000000000005  0.68755  0.7351599999999999  1.0000
  C   C34       1.0  0.71936  0.22498  0.44573  1.0000
  C   C35       1.0  0.4951800000000001  0.6087400000000001  0.87783  1.0000
  C   C36       1.0  0.73252  0.8565400000000002  0.35979999999999995  1.0000
  N   N1        1.0  0.6523599999999999  0.30463000000000007  0.68998  1.0000
  N   N2        1.0  0.5765600000000001  0.22597  0.8110299999999998  1.0000
  N   N3        1.0  0.64611  0.07192  0.02352  1.0000
  N   N4        1.0  0.8980999999999999  0.8656900000000002  0.98763  1.0000
  N   N5        1.0  0.10458999999999999  0.29357000000000005  0.19309999999999994  1.0000
  N   N6        1.0  0.08253000000000008  0.37758  0.3121999999999999  1.0000
  N   N7        1.0  0.95002  0.6945200000000002  0.19132999999999997  1.0000
  N   N8        1.0  0.7972699999999998  0.7743800000000001  0.3123099999999999  1.0000
  N   N9        1.0  0.71986  0.92967  0.5234599999999999  1.0000
  N   N10       1.0  0.7657200000000002  0.13549  0.48722  1.0000
  N   N11       1.0  0.4018399999999999  0.7061400000000002  0.6930299999999999  1.0000
  N   N12       1.0  0.45975999999999995  0.6223700000000002  0.81217  1.0000
  O   O1        1.0  0.09360000000000004  0.29402  0.62088  1.0000
  O   O2        1.0  0.05232999999999997  0.13637000000000002  0.56072  1.0000
  O   O3        1.0  0.1564500000000001  0.11602  0.6698299999999999  1.0000
  O   O4        1.0  0.80276  0.27773  0.9877099999999998  1.0000
  O   O5        1.0  0.53997  0.36329000000000006  0.07890999999999998  1.0000
  O   O6        1.0  0.38441999999999993  0.3029200000000001  0.98828  1.0000
  O   O7        1.0  0.13189999999999996  0.5163500000000001  0.12918999999999997  1.0000
  O   O8        1.0  0.7378599999999998  0.5012400000000001  0.14961  1.0000
  O   O9        1.0  0.93693  0.4541500000000001  0.045529999999999994  1.0000
  O   O10       1.0  0.7391  0.65722  0.018429999999999995  1.0000
  O   O11       1.0  0.15630999999999998  0.6355800000000003  0.01794  1.0000
  O   O12       1.0  0.000139999999999998  0.5754500000000001  0.927  1.0000
  O   O13       1.0  0.8256399999999998  0.5758800000000001  0.36974999999999997  1.0000
  O   O14       1.0  0.23285000000000008  0.5709  0.35936999999999997  1.0000
  O   O15       1.0  0.06353999999999999  0.52505  0.46105  1.0000
  O   O16       1.0  0.28167  0.03534  0.84583  1.0000
  O   O17       1.0  0.3643000000000001  0.07523  0.9514699999999998  1.0000
  O   O18       1.0  0.16733000000000012  0.22294  0.88521  1.0000
  O   O19       1.0  0.38423000000000007  0.70739  0.12116999999999997  1.0000
  O   O20       1.0  0.17764000000000005  0.86542  0.06301  1.0000
  O   O21       1.0  0.25949999999999995  0.8836500000000003  0.17253  1.0000
  O   O22       1.0  0.07158999999999996  0.7224200000000002  0.4851299999999999  1.0000
  O   O23       1.0  0.90504  0.6383700000000002  0.5789899999999999  1.0000
  O   O24       1.0  0.67666  0.6975700000000002  0.49118999999999996  1.0000
  O   O25       1.0  0.6499100000000002  0.48309000000000013  0.6294899999999999  1.0000
  O   O26       1.0  0.24052000000000012  0.4984700000000001  0.6491099999999999  1.0000
  O   O27       1.0  0.39469999999999994  0.54578  0.54546  1.0000
  O   O28       1.0  0.39696000000000015  0.34338  0.5183099999999999  1.0000
  O   O29       1.0  0.7905700000000001  0.3684100000000001  0.5172999999999999  1.0000
  O   O30       1.0  0.5730800000000001  0.42503000000000013  0.42634999999999995  1.0000
  O   O31       1.0  0.40049999999999997  0.4240500000000001  0.8694999999999998  1.0000
  O   O32       1.0  0.8028000000000001  0.42912  0.86016  1.0000
  O   O33       1.0  0.5836500000000001  0.47510000000000013  0.9613899999999997  1.0000
  O   O34       1.0  0.31257999999999997  0.9646900000000003  0.34623999999999994  1.0000
  O   O35       1.0  0.43750000000000006  0.92914  0.45188  1.0000
  O   O36       1.0  0.387  0.77854  0.3879299999999999  1.0000
