data_image0
_chemical_formula_structural       Ni4H52C84N28O16
_chemical_formula_sum              "Ni4 H52 C84 N28 O16"
_cell_length_a       11.05835
_cell_length_b       15.07039
_cell_length_c       16.77914
_cell_angle_alpha    115.96843000000001
_cell_angle_beta     89.98496999999999
_cell_angle_gamma    111.50424000000001

_space_group_name_H-M_alt    "P 1"
_space_group_IT_number       1

loop_
  _space_group_symop_operation_xyz
  'x, y, z'

loop_
  _atom_site_type_symbol
  _atom_site_label
  _atom_site_symmetry_multiplicity
  _atom_site_fract_x
  _atom_site_fract_y
  _atom_site_fract_z
  _atom_site_occupancy
  Ni  Ni1       1.0  0.9975799999999999  0.49823000000000006  0.9980400000000001  1.0000
  Ni  Ni2       1.0  0.5000899999999999  0.49878  0.4983500000000001  1.0000
  Ni  Ni3       1.0  0.50017  0.49981  0.0008800000000000002  1.0000
  Ni  Ni4       1.0  0.0022800000000000368  0.50122  0.50139  1.0000
  H   H1        1.0  0.23759000000000005  0.3343800000000001  0.6315300000000003  1.0000
  H   H2        1.0  0.01909000000000012  0.5669300000000003  0.8254400000000002  1.0000
  H   H3        1.0  0.09376000000000004  0.3063300000000001  0.9062600000000002  1.0000
  H   H4        1.0  0.70753  0.33451  0.87518  1.0000
  H   H5        1.0  0.5471  0.14607  0.83038  1.0000
  H   H6        1.0  0.81083  0.13738  0.013390000000000004  1.0000
  H   H7        1.0  0.96297  0.32490000000000013  0.047160000000000014  1.0000
  H   H8        1.0  0.6916799999999999  0.8854100000000001  0.02562  1.0000
  H   H9        1.0  0.68108  0.73843  0.06344  1.0000
  H   H10       1.0  0.33211000000000007  0.5227700000000002  0.8799200000000003  1.0000
  H   H11       1.0  0.3244600000000001  0.6577100000000001  0.8348900000000002  1.0000
  H   H12       1.0  0.31753000000000015  0.8089700000000003  0.8268400000000002  1.0000
  H   H13       1.0  0.21435000000000007  0.2750400000000001  0.77441  1.0000
  H   H14       1.0  0.90139  0.66594  0.86775  1.0000
  H   H15       1.0  0.4513999999999999  0.43181  0.67333  1.0000
  H   H16       1.0  0.7856699999999999  0.6911700000000001  0.5915700000000003  1.0000
  H   H17       1.0  0.3743699999999999  0.6636700000000002  0.62311  1.0000
  H   H18       1.0  0.4016000000000001  0.8521700000000004  0.6690900000000002  1.0000
  H   H19       1.0  0.6735199999999999  0.86305  0.48611000000000004  1.0000
  H   H20       1.0  0.63822  0.67482  0.45042  1.0000
  H   H21       1.0  0.80595  0.11497000000000006  0.4755000000000001  1.0000
  H   H22       1.0  0.94299  0.2623700000000001  0.4384600000000001  1.0000
  H   H23       1.0  0.80971  0.47793000000000013  0.62231  1.0000
  H   H24       1.0  0.6660899999999998  0.3426200000000001  0.6665000000000002  1.0000
  H   H25       1.0  0.50673  0.19011000000000014  0.6734500000000002  1.0000
  H   H26       1.0  0.93733  0.7234900000000004  0.7233600000000002  1.0000
  H   H27       1.0  0.7659200000000003  0.6666100000000004  0.36869000000000013  1.0000
  H   H28       1.0  0.9797  0.4308  0.17332  1.0000
  H   H29       1.0  0.90504  0.69115  0.09200000000000003  1.0000
  H   H30       1.0  0.28888  0.6633000000000001  0.12264000000000003  1.0000
  H   H31       1.0  0.45013  0.8518200000000002  0.16849000000000006  1.0000
  H   H32       1.0  0.18828000000000017  0.8628400000000005  0.9860700000000002  1.0000
  H   H33       1.0  0.035590000000000226  0.6749900000000004  0.9508100000000003  1.0000
  H   H34       1.0  0.30887999999999993  0.11476999999999997  0.97488  1.0000
  H   H35       1.0  0.31975  0.26247000000000015  0.9378700000000002  1.0000
  H   H36       1.0  0.6685199999999999  0.4773600000000001  0.12184000000000003  1.0000
  H   H37       1.0  0.67599  0.34164  0.16591000000000006  1.0000
  H   H38       1.0  0.6820199999999998  0.18982000000000002  0.17364000000000004  1.0000
  H   H39       1.0  0.78765  0.72466  0.22498000000000007  1.0000
  H   H40       1.0  0.09620000000000001  0.33398  0.13145  1.0000
  H   H41       1.0  0.54737  0.56614  0.32489  1.0000
  H   H42       1.0  0.21240000000000006  0.3074200000000001  0.4069700000000001  1.0000
  H   H43       1.0  0.62743  0.33554  0.3751600000000001  1.0000
  H   H44       1.0  0.6003199999999999  0.14719  0.33024  1.0000
  H   H45       1.0  0.32770999999999995  0.13751000000000002  0.5129500000000001  1.0000
  H   H46       1.0  0.36275  0.32532  0.54747  1.0000
  H   H47       1.0  0.1951900000000001  0.8862500000000003  0.5247400000000002  1.0000
  H   H48       1.0  0.05911999999999998  0.7396800000000001  0.5630500000000003  1.0000
  H   H49       1.0  0.19159  0.52331  0.37941  1.0000
  H   H50       1.0  0.3341  0.6577500000000001  0.33393  1.0000
  H   H51       1.0  0.49225  0.8090900000000002  0.3258100000000001  1.0000
  H   H52       1.0  0.06028  0.27604  0.27574  1.0000
  C   C1        1.0  0.23687  0.47461  0.57723  1.0000
  C   C2        1.0  0.17479999999999996  0.46284  0.65395  1.0000
  C   C3        1.0  0.1143400000000001  0.5301100000000002  0.7102600000000002  1.0000
  C   C4        1.0  0.10989000000000004  0.6284800000000001  0.7074800000000002  1.0000
  C   C5        1.0  0.18825000000000006  0.3841200000000002  0.6723500000000001  1.0000
  C   C6        1.0  0.141  0.37317  0.7456  1.0000
  C   C7        1.0  0.07873000000000002  0.4382200000000001  0.80145  1.0000
  C   C8        1.0  0.06496000000000006  0.5158500000000001  0.7827300000000003  1.0000
  C   C9        1.0  0.09640000000000004  0.3403500000000001  0.86107  1.0000
  C   C10       1.0  0.7273699999999999  0.2886200000000001  0.9044600000000003  1.0000
  C   C11       1.0  0.63758  0.1834  0.87977  1.0000
  C   C12       1.0  0.66605  0.12595000000000017  0.9186900000000002  1.0000
  C   C13       1.0  0.78536  0.17830000000000015  0.9808100000000002  1.0000
  C   C14       1.0  0.8689699999999999  0.2827  0.0008000000000000003  1.0000
  C   C15       1.0  0.5789799999999999  0.01636000000000003  0.89976  1.0000
  C   C16       1.0  0.51435  0.86825  0.90512  1.0000
  C   C17       1.0  0.5099200000000003  0.7830500000000005  0.9260200000000002  1.0000
  C   C18       1.0  0.6117000000000001  0.8052000000000004  0.9912400000000002  1.0000
  C   C19       1.0  0.60648  0.7243900000000002  0.012000000000000004  1.0000
  C   C20       1.0  0.40981999999999996  0.60368  0.90977  1.0000
  C   C21       1.0  0.40682  0.67965  0.8849900000000003  1.0000
  C   C22       1.0  0.7614699999999999  0.5250300000000002  0.9217400000000002  1.0000
  C   C23       1.0  0.7104199999999999  0.5371600000000002  0.8454200000000002  1.0000
  C   C24       1.0  0.5827799999999999  0.4697300000000001  0.78921  1.0000
  C   C25       1.0  0.48017000000000004  0.37186000000000013  0.7927200000000001  1.0000
  C   C26       1.0  0.80234  0.61599  0.82697  1.0000
  C   C27       1.0  0.7660499999999999  0.6267  0.7535900000000002  1.0000
  C   C28       1.0  0.6389699999999998  0.5610799999999999  0.69758  1.0000
  C   C29       1.0  0.54784  0.48354000000000014  0.71644  1.0000
  C   C30       1.0  0.7542299999999998  0.6580000000000003  0.6372900000000002  1.0000
  C   C31       1.0  0.43962  0.70985  0.59388  1.0000
  C   C32       1.0  0.45469  0.81522  0.61935  1.0000
  C   C33       1.0  0.54008  0.87329  0.58068  1.0000
  C   C34       1.0  0.60718  0.8214100000000002  0.51823  1.0000
  C   C35       1.0  0.58649  0.7166600000000002  0.4972600000000001  1.0000
  C   C36       1.0  0.5619299999999999  0.9830300000000002  0.60017  1.0000
  C   C37       1.0  0.64503  0.13164000000000006  0.5955  1.0000
  C   C38       1.0  0.7260999999999999  0.21720000000000003  0.57509  1.0000
  C   C39       1.0  0.80609  0.19518000000000002  0.51005  1.0000
  C   C40       1.0  0.8821599999999999  0.27623  0.48973  1.0000
  C   C41       1.0  0.8062  0.39691  0.59202  1.0000
  C   C42       1.0  0.7266100000000001  0.3207100000000002  0.6164100000000002  1.0000
  C   C43       1.0  0.7657699999999998  0.52619  0.42333  1.0000
  C   C44       1.0  0.8275999999999998  0.53755  0.34629  1.0000
  C   C45       1.0  0.88702  0.46960000000000013  0.28965  1.0000
  C   C46       1.0  0.8911799999999998  0.37164  0.2933000000000001  1.0000
  C   C47       1.0  0.8142099999999998  0.61608  0.32756  1.0000
  C   C48       1.0  0.8604299999999998  0.6260800000000002  0.25373  1.0000
  C   C49       1.0  0.9212999999999999  0.56008  0.1973  1.0000
  C   C50       1.0  0.93508  0.48273000000000005  0.21641  1.0000
  C   C51       1.0  0.90314  0.65752  0.13740000000000002  1.0000
  C   C52       1.0  0.26968999999999993  0.70961  0.09358  1.0000
  C   C53       1.0  0.35989  0.81495  0.11900000000000002  1.0000
  C   C54       1.0  0.33227  0.87308  0.0805  1.0000
  C   C55       1.0  0.21322000000000016  0.8213300000000002  0.01824  1.0000
  C   C56       1.0  0.1292600000000002  0.7166800000000004  0.9974400000000002  1.0000
  C   C57       1.0  0.41999999999999993  0.98275  0.09994000000000003  1.0000
  C   C58       1.0  0.4856800000000001  0.13123000000000007  0.09514000000000003  1.0000
  C   C59       1.0  0.49053  0.21675  0.0746  1.0000
  C   C60       1.0  0.38884999999999986  0.19497  0.0095  1.0000
  C   C61       1.0  0.39422  0.2760700000000002  0.9891500000000002  1.0000
  C   C62       1.0  0.5908800000000001  0.39641  0.09158  1.0000
  C   C63       1.0  0.5937299999999999  0.32008  0.11593000000000003  1.0000
  C   C64       1.0  0.2373400000000001  0.4737700000000002  0.07653000000000003  1.0000
  C   C65       1.0  0.28750999999999993  0.46236  0.15364  1.0000
  C   C66       1.0  0.4152499999999999  0.52949  0.20988  1.0000
  C   C67       1.0  0.5181299999999999  0.62782  0.20714  1.0000
  C   C68       1.0  0.19528000000000004  0.38378000000000007  0.17222000000000007  1.0000
  C   C69       1.0  0.23156000000000002  0.3728500000000001  0.24551  1.0000
  C   C70       1.0  0.35911  0.43757  0.30098  1.0000
  C   C71       1.0  0.45051  0.51499  0.28214  1.0000
  C   C72       1.0  0.24385  0.34066  0.3612900000000001  1.0000
  C   C73       1.0  0.56199  0.28958  0.4044900000000001  1.0000
  C   C74       1.0  0.54693  0.18435000000000007  0.37959  1.0000
  C   C75       1.0  0.46112  0.12664000000000006  0.4183500000000001  1.0000
  C   C76       1.0  0.3939599999999999  0.17875000000000002  0.4805300000000001  1.0000
  C   C77       1.0  0.41454  0.28326  0.50091  1.0000
  C   C78       1.0  0.43876000000000004  0.016980000000000054  0.3992100000000001  1.0000
  C   C79       1.0  0.35518999999999995  0.86872  0.4043200000000001  1.0000
  C   C80       1.0  0.27439  0.78351  0.42517  1.0000
  C   C81       1.0  0.19491  0.80598  0.4904900000000001  1.0000
  C   C82       1.0  0.11955000000000007  0.7254300000000002  0.51155  1.0000
  C   C83       1.0  0.19503  0.6043  0.4092600000000001  1.0000
  C   C84       1.0  0.27387000000000006  0.6799800000000001  0.3841500000000001  1.0000
  N   N1        1.0  0.8423  0.3392000000000002  0.9645300000000002  1.0000
  N   N2        1.0  0.61937  0.96207  0.9334800000000002  1.0000
  N   N3        1.0  0.4540999999999999  0.9611800000000001  0.8518700000000002  1.0000
  N   N4        1.0  0.41486000000000006  0.86733  0.8559500000000002  1.0000
  N   N5        1.0  0.5077300000000001  0.6245100000000003  0.9715800000000002  1.0000
  N   N6        1.0  0.14819000000000004  0.31005000000000016  0.7843800000000002  1.0000
  N   N7        1.0  0.05189000000000004  0.4152400000000001  0.8734500000000002  1.0000
  N   N8        1.0  0.5035700000000001  0.6595100000000003  0.53315  1.0000
  N   N9        1.0  0.6565  0.03782999999999997  0.56674  1.0000
  N   N10       1.0  0.49189000000000005  0.03789000000000014  0.6482400000000003  1.0000
  N   N11       1.0  0.5463300000000001  0.1321400000000001  0.6446600000000002  1.0000
  N   N12       1.0  0.8836299999999999  0.37624  0.53039  1.0000
  N   N13       1.0  0.8362400000000002  0.6895100000000003  0.7144400000000002  1.0000
  N   N14       1.0  0.63517  0.58303  0.6249700000000002  1.0000
  N   N15       1.0  0.15521999999999994  0.65944  0.03313  1.0000
  N   N16       1.0  0.38036  0.03754  0.06644  1.0000
  N   N17       1.0  0.54478  0.03751000000000005  0.14802000000000007  1.0000
  N   N18       1.0  0.58472  0.13163000000000002  0.1443  1.0000
  N   N19       1.0  0.4930800000000001  0.37591000000000013  0.02986  1.0000
  N   N20       1.0  0.85304  0.6889600000000002  0.21473000000000006  1.0000
  N   N21       1.0  0.94679  0.58211  0.12464000000000003  1.0000
  N   N22       1.0  0.4975399999999999  0.33996000000000004  0.46473  1.0000
  N   N23       1.0  0.3441599999999999  0.96268  0.4329500000000001  1.0000
  N   N24       1.0  0.5083000000000001  0.9616700000000002  0.35106  1.0000
  N   N25       1.0  0.4535499999999999  0.86768  0.35494  1.0000
  N   N26       1.0  0.1184  0.6255  0.4713600000000001  1.0000
  N   N27       1.0  0.16139999999999996  0.31009000000000003  0.28469000000000005  1.0000
  N   N28       1.0  0.36332000000000003  0.41507000000000016  0.37320000000000003  1.0000
  O   O1        1.0  0.35124000000000005  0.4717900000000001  0.5758400000000001  1.0000
  O   O2        1.0  0.17877000000000004  0.48359000000000013  0.51789  1.0000
  O   O3        1.0  0.04930000000000009  0.6208300000000002  0.6383700000000002  1.0000
  O   O4        1.0  0.16030000000000003  0.7168500000000001  0.7806300000000003  1.0000
  O   O5        1.0  0.87781  0.52581  0.92091  1.0000
  O   O6        1.0  0.69657  0.5178700000000003  0.9824000000000003  1.0000
  O   O7        1.0  0.43022999999999995  0.37966000000000005  0.8628900000000002  1.0000
  O   O8        1.0  0.43997  0.28358000000000017  0.7191900000000002  1.0000
  O   O9        1.0  0.65067  0.52791  0.42364  1.0000
  O   O10       1.0  0.8241899999999999  0.5186100000000002  0.4834100000000001  1.0000
  O   O11       1.0  0.95157  0.37991  0.36276  1.0000
  O   O12       1.0  0.84013  0.2827900000000001  0.22049  1.0000
  O   O13       1.0  0.12085999999999998  0.47236000000000006  0.07581000000000003  1.0000
  O   O14       1.0  0.30380999999999997  0.48088  0.01645  1.0000
  O   O15       1.0  0.57022  0.62027  0.13778000000000007  1.0000
  O   O16       1.0  0.55684  0.7161100000000002  0.28049  1.0000
