data_image0
_chemical_formula_structural       Cu6H78C42N12Cl6O18
_chemical_formula_sum              "Cu6 H78 C42 N12 Cl6 O18"
_cell_length_a       8.4885
_cell_length_b       15.99419
_cell_length_c       15.984489999999997
_cell_angle_alpha    120.06058000000002
_cell_angle_beta     90.0
_cell_angle_gamma    90.0

_symmetry_space_group_name_H-M    'P 1'
_symmetry_Int_Tables_number       1

loop_
  _symmetry_equiv_pos_as_xyz
  'x,y,z'

loop_
  _atom_site_type_symbol
  _atom_site_label
  _atom_site_symmetry_multiplicity
  _atom_site_fract_x
  _atom_site_fract_y
  _atom_site_fract_z
  _atom_site_occupancy
  Cu  Cu1       1.0  0.9008599999999999  0.5951599999999998  0.21232000000000006  1.0000
  Cu  Cu2       1.0  0.23425  0.61699  0.4047  1.0000
  Cu  Cu3       1.0  0.56753  0.7875499999999998  0.38297  1.0000
  Cu  Cu4       1.0  0.9008599999999999  0.4048400000000001  0.7876800000000003  1.0000
  Cu  Cu5       1.0  0.23425  0.38301000000000013  0.5952900000000002  1.0000
  Cu  Cu6       1.0  0.56753  0.21245000000000006  0.6170300000000001  1.0000
  H   H1        1.0  0.58473  0.08338000000000002  0.20164000000000007  1.0000
  H   H2        1.0  0.59943  0.18394000000000005  0.3214500000000001  1.0000
  H   H3        1.0  0.41427  0.12856  0.27716  1.0000
  H   H4        1.0  0.14728  0.76834  0.25872  1.0000
  H   H5        1.0  0.17765  0.88956  0.28513  1.0000
  H   H6        1.0  0.24796999999999997  0.85391  0.36685  1.0000
  H   H7        1.0  0.28473  0.6967999999999998  0.0975  1.0000
  H   H8        1.0  0.4749399999999999  0.7384  0.08695000000000003  1.0000
  H   H9        1.0  0.30367  0.81343  0.11236  1.0000
  H   H10       1.0  0.40864  0.94894  0.20951  1.0000
  H   H11       1.0  0.69953  0.03218  0.31484  1.0000
  H   H12       1.0  0.38344  0.67325  0.24292  1.0000
  H   H13       1.0  0.55435  0.6913199999999998  0.20023  1.0000
  H   H14       1.0  0.91852  0.11770999999999993  0.91567  1.0000
  H   H15       1.0  0.93356  0.13700999999999997  0.8152  1.0000
  H   H16       1.0  0.7482399999999999  0.1480900000000001  0.8705000000000003  1.0000
  H   H17       1.0  0.48078999999999994  0.48958  0.23148  1.0000
  H   H18       1.0  0.51086  0.39463  0.11011000000000003  1.0000
  H   H19       1.0  0.58039  0.51219  0.14575  1.0000
  H   H20       1.0  0.61746  0.40004  0.30235  1.0000
  H   H21       1.0  0.80785  0.34784000000000004  0.2607900000000001  1.0000
  H   H22       1.0  0.63668  0.29849  0.1854  1.0000
  H   H23       1.0  0.74323  0.26003  0.05051  1.0000
  H   H24       1.0  0.03351  0.28239000000000014  0.9667700000000002  1.0000
  H   H25       1.0  0.71553  0.56948  0.32645  1.0000
  H   H26       1.0  0.88658  0.50915  0.3091  1.0000
  H   H27       1.0  0.25177  0.7985399999999998  0.88231  1.0000
  H   H28       1.0  0.2668  0.67879  0.86308  1.0000
  H   H29       1.0  0.08138  0.72288  0.85183  1.0000
  H   H30       1.0  0.81335  0.74048  0.50978  1.0000
  H   H31       1.0  0.84464  0.7149099999999999  0.6050600000000003  1.0000
  H   H32       1.0  0.91521  0.63303  0.48757  1.0000
  H   H33       1.0  0.95054  0.90228  0.59996  1.0000
  H   H34       1.0  0.14098  0.9131199999999998  0.65198  1.0000
  H   H35       1.0  0.97014  0.8874999999999998  0.70178  1.0000
  H   H36       1.0  0.07633  0.79065  0.74028  1.0000
  H   H37       1.0  0.3669  0.68531  0.7177500000000002  1.0000
  H   H38       1.0  0.04958  0.75676  0.43043  1.0000
  H   H39       1.0  0.22051  0.7997200000000001  0.4912400000000001  1.0000
  H   H40       1.0  0.58473  0.91662  0.7983500000000002  1.0000
  H   H41       1.0  0.59943  0.81606  0.6785500000000002  1.0000
  H   H42       1.0  0.41427  0.8714400000000001  0.7228400000000003  1.0000
  H   H43       1.0  0.14728  0.23166  0.74128  1.0000
  H   H44       1.0  0.17765  0.11043999999999995  0.71487  1.0000
  H   H45       1.0  0.24796999999999997  0.14609  0.63315  1.0000
  H   H46       1.0  0.28473  0.30320000000000014  0.9024900000000002  1.0000
  H   H47       1.0  0.4749399999999999  0.26159999999999983  0.91305  1.0000
  H   H48       1.0  0.30367  0.18657  0.88764  1.0000
  H   H49       1.0  0.40864  0.051059999999999994  0.79048  1.0000
  H   H50       1.0  0.69953  0.9678199999999997  0.68516  1.0000
  H   H51       1.0  0.38344  0.3267499999999999  0.75707  1.0000
  H   H52       1.0  0.55435  0.3086800000000001  0.7997700000000002  1.0000
  H   H53       1.0  0.91852  0.88229  0.08433  1.0000
  H   H54       1.0  0.93356  0.86299  0.18480000000000002  1.0000
  H   H55       1.0  0.7482399999999999  0.85191  0.1295  1.0000
  H   H56       1.0  0.48078999999999994  0.51042  0.76852  1.0000
  H   H57       1.0  0.51086  0.6053699999999997  0.88989  1.0000
  H   H58       1.0  0.58039  0.48781000000000013  0.8542500000000002  1.0000
  H   H59       1.0  0.61746  0.5999599999999999  0.6976500000000002  1.0000
  H   H60       1.0  0.80785  0.65216  0.7392000000000001  1.0000
  H   H61       1.0  0.63668  0.70151  0.8146  1.0000
  H   H62       1.0  0.74323  0.73997  0.94948  1.0000
  H   H63       1.0  0.03351  0.71761  0.03323000000000001  1.0000
  H   H64       1.0  0.71553  0.43052  0.6735500000000002  1.0000
  H   H65       1.0  0.88658  0.49085000000000023  0.6909000000000002  1.0000
  H   H66       1.0  0.25177  0.20146  0.11769  1.0000
  H   H67       1.0  0.2668  0.32121000000000005  0.13691000000000003  1.0000
  H   H68       1.0  0.08138  0.27712  0.14817000000000005  1.0000
  H   H69       1.0  0.81335  0.2595200000000001  0.4902200000000001  1.0000
  H   H70       1.0  0.84464  0.28509  0.39493  1.0000
  H   H71       1.0  0.91521  0.3669700000000001  0.5124200000000001  1.0000
  H   H72       1.0  0.95054  0.09772000000000006  0.4000400000000001  1.0000
  H   H73       1.0  0.14098  0.08688000000000008  0.3480200000000001  1.0000
  H   H74       1.0  0.97014  0.11250000000000006  0.29822000000000004  1.0000
  H   H75       1.0  0.07633  0.20935  0.25972  1.0000
  H   H76       1.0  0.3669  0.31469  0.28225  1.0000
  H   H77       1.0  0.04958  0.24324000000000007  0.5695700000000001  1.0000
  H   H78       1.0  0.22051  0.20028  0.50876  1.0000
  C   C1        1.0  0.51888  0.90442  0.57717  1.0000
  C   C2        1.0  0.5731  0.9531200000000001  0.68399  1.0000
  C   C3        1.0  0.54106  0.11418  0.27596  1.0000
  C   C4        1.0  0.49498  0.11275999999999996  0.71545  1.0000
  C   C5        1.0  0.3875  0.79894  0.23461  1.0000
  C   C6        1.0  0.22996  0.82927  0.2898600000000001  1.0000
  C   C7        1.0  0.36251  0.76023  0.12607  1.0000
  C   C8        1.0  0.85219  0.67283  0.09561000000000001  1.0000
  C   C9        1.0  0.90702  0.73122  0.04742  1.0000
  C   C10       1.0  0.87504  0.16131000000000012  0.8849700000000003  1.0000
  C   C11       1.0  0.82865  0.60295  0.8874800000000003  1.0000
  C   C12       1.0  0.72085  0.43532  0.20071000000000006  1.0000
  C   C13       1.0  0.56312  0.4598599999999999  0.17035000000000006  1.0000
  C   C14       1.0  0.69557  0.3652999999999999  0.23901  1.0000
  C   C15       1.0  0.18611  0.42273  0.32699  1.0000
  C   C16       1.0  0.24042  0.31595000000000006  0.26877000000000006  1.0000
  C   C17       1.0  0.20826  0.7241699999999999  0.8387600000000001  1.0000
  C   C18       1.0  0.16142  0.28467  0.3970800000000001  1.0000
  C   C19       1.0  0.05395  0.76534  0.56463  1.0000
  C   C20       1.0  0.89663  0.70995  0.5398200000000001  1.0000
  C   C21       1.0  0.02873  0.8738200000000002  0.6347200000000001  1.0000
  C   C22       1.0  0.51888  0.09557999999999997  0.42283  1.0000
  C   C23       1.0  0.5731  0.04688000000000002  0.31601  1.0000
  C   C24       1.0  0.54106  0.8858199999999997  0.72403  1.0000
  C   C25       1.0  0.49498  0.88724  0.28455  1.0000
  C   C26       1.0  0.3875  0.20106  0.76538  1.0000
  C   C27       1.0  0.22996  0.17073000000000005  0.71014  1.0000
  C   C28       1.0  0.36251  0.23976999999999996  0.87393  1.0000
  C   C29       1.0  0.85219  0.3271700000000001  0.9043900000000002  1.0000
  C   C30       1.0  0.90702  0.26878  0.95258  1.0000
  C   C31       1.0  0.87504  0.83869  0.11503  1.0000
  C   C32       1.0  0.82865  0.39705000000000007  0.11252000000000001  1.0000
  C   C33       1.0  0.72085  0.56468  0.79929  1.0000
  C   C34       1.0  0.56312  0.54014  0.82965  1.0000
  C   C35       1.0  0.69557  0.6347  0.76099  1.0000
  C   C36       1.0  0.18611  0.57727  0.673  1.0000
  C   C37       1.0  0.24042  0.68405  0.7312300000000002  1.0000
  C   C38       1.0  0.20826  0.27583  0.16124  1.0000
  C   C39       1.0  0.16142  0.7153300000000001  0.6029200000000001  1.0000
  C   C40       1.0  0.05395  0.23466  0.43537  1.0000
  C   C41       1.0  0.89663  0.29005000000000003  0.46018000000000003  1.0000
  C   C42       1.0  0.02873  0.12618  0.36528  1.0000
  N   N1        1.0  0.46528  0.72458  0.2507  1.0000
  N   N2        1.0  0.49291  0.04570999999999996  0.74303  1.0000
  N   N3        1.0  0.79796  0.52604  0.27539  1.0000
  N   N4        1.0  0.82758  0.6977900000000001  0.9545200000000001  1.0000
  N   N5        1.0  0.13163  0.7491599999999999  0.47401  1.0000
  N   N6        1.0  0.15989  0.25708  0.30235  1.0000
  N   N7        1.0  0.46528  0.2754199999999999  0.74929  1.0000
  N   N8        1.0  0.49291  0.95429  0.25696  1.0000
  N   N9        1.0  0.79796  0.47396  0.72461  1.0000
  N   N10       1.0  0.82758  0.30221  0.04548  1.0000
  N   N11       1.0  0.13163  0.25084000000000006  0.5259800000000001  1.0000
  N   N12       1.0  0.15989  0.7429199999999999  0.6976500000000002  1.0000
  Cl  Cl1       1.0  0.85422  0.75097  0.3342  1.0000
  Cl  Cl2       1.0  0.18818  0.58349  0.24889  1.0000
  Cl  Cl3       1.0  0.52099  0.6656  0.4169  1.0000
  Cl  Cl4       1.0  0.85422  0.24903000000000006  0.6658  1.0000
  Cl  Cl5       1.0  0.18818  0.41651000000000005  0.7511100000000002  1.0000
  Cl  Cl6       1.0  0.521  0.3344  0.5831  1.0000
  O   O1        1.0  0.6341  0.87032  0.51718  1.0000
  O   O2        1.0  0.57965  0.09992999999999996  0.64571  1.0000
  O   O3        1.0  0.37468  0.89918  0.55855  1.0000
  O   O4        1.0  0.9672399999999999  0.6466500000000001  0.12954000000000002  1.0000
  O   O5        1.0  0.91287  0.54586  0.9002300000000002  1.0000
  O   O6        1.0  0.70794  0.65952  0.10067  1.0000
  O   O7        1.0  0.30117  0.48278  0.35294  1.0000
  O   O8        1.0  0.24586999999999998  0.3545  0.45419  1.0000
  O   O9        1.0  0.04192  0.44133  0.3404  1.0000
  O   O10       1.0  0.6341  0.12968  0.48282  1.0000
  O   O11       1.0  0.57965  0.90007  0.35429  1.0000
  O   O12       1.0  0.37468  0.10082000000000006  0.4414500000000001  1.0000
  O   O13       1.0  0.9672399999999999  0.35335  0.87046  1.0000
  O   O14       1.0  0.91287  0.45414  0.09976  1.0000
  O   O15       1.0  0.70794  0.3404800000000001  0.8993300000000002  1.0000
  O   O16       1.0  0.30117  0.51722  0.64706  1.0000
  O   O17       1.0  0.24586999999999998  0.6455  0.54581  1.0000
  O   O18       1.0  0.04192  0.5586699999999998  0.6596  1.0000
