data_image0
_chemical_formula_structural       Gd8H28C72S12O52
_chemical_formula_sum              "Gd8 H28 C72 S12 O52"
_cell_length_a       11.40201
_cell_length_b       17.596280000000004
_cell_length_c       17.52783
_cell_angle_alpha    105.55967999999999
_cell_angle_beta     90.01142
_cell_angle_gamma    89.91585

_symmetry_space_group_name_H-M    'P 1'
_symmetry_Int_Tables_number       1

loop_
  _symmetry_equiv_pos_as_xyz
  'x,y,z'

loop_
  _atom_site_type_symbol
  _atom_site_label
  _atom_site_symmetry_multiplicity
  _atom_site_fract_x
  _atom_site_fract_y
  _atom_site_fract_z
  _atom_site_occupancy
  Gd  Gd1       1.0  0.59904  0.58204  0.9917699999999999  1.0000
  Gd  Gd2       1.0  0.55755  0.89573  0.01196  1.0000
  Gd  Gd3       1.0  0.09936  0.9180600000000001  0.50896  1.0000
  Gd  Gd4       1.0  0.05678999999999999  0.60426  0.48751000000000005  1.0000
  Gd  Gd5       1.0  0.40096  0.41797  0.00824  1.0000
  Gd  Gd6       1.0  0.44245  0.10427  0.98804  1.0000
  Gd  Gd7       1.0  0.90064  0.08195  0.49104  1.0000
  Gd  Gd8       1.0  0.94321  0.39574  0.51249  1.0000
  H   H1        1.0  0.7433499999999997  0.80185  0.78334  1.0000
  H   H2        1.0  0.8524099999999999  0.72191  0.6515  1.0000
  H   H3        1.0  0.67734  0.16912999999999997  0.67192  1.0000
  H   H4        1.0  0.58302  0.23285999999999998  0.81463  1.0000
  H   H5        1.0  0.38434999999999997  0.58935  0.6629700000000001  1.0000
  H   H6        1.0  0.47105  0.58325  0.80257  1.0000
  H   H7        1.0  0.4524099999999999  0.7391999999999997  0.98735  1.0000
  H   H8        1.0  0.24198  0.6986700000000001  0.71576  1.0000
  H   H9        1.0  0.35284  0.7780500000000001  0.8469500000000001  1.0000
  H   H10       1.0  0.17757  0.33063  0.82682  1.0000
  H   H11       1.0  0.08375  0.26704999999999995  0.68405  1.0000
  H   H12       1.0  0.88377  0.91189  0.83669  1.0000
  H   H13       1.0  0.9690699999999999  0.9176  0.69655  1.0000
  H   H14       1.0  0.9629999999999999  0.7620899999999999  0.51269  1.0000
  H   H15       1.0  0.25665  0.19815  0.21666  1.0000
  H   H16       1.0  0.14759  0.27809  0.3485  1.0000
  H   H17       1.0  0.32266  0.83087  0.32808  1.0000
  H   H18       1.0  0.41697  0.7671399999999999  0.18537000000000003  1.0000
  H   H19       1.0  0.6156499999999999  0.41066  0.3370300000000001  1.0000
  H   H20       1.0  0.52895  0.41675  0.19743  1.0000
  H   H21       1.0  0.54759  0.26081  0.012650000000000003  1.0000
  H   H22       1.0  0.75802  0.30133  0.28424  1.0000
  H   H23       1.0  0.64716  0.22196  0.15305  1.0000
  H   H24       1.0  0.82243  0.6693699999999999  0.17318000000000006  1.0000
  H   H25       1.0  0.9162499999999999  0.73295  0.31596  1.0000
  H   H26       1.0  0.11622999999999997  0.08811  0.16331000000000004  1.0000
  H   H27       1.0  0.030929999999999996  0.0824  0.30345  1.0000
  H   H28       1.0  0.037  0.23790999999999998  0.4873100000000001  1.0000
  C   C1        1.0  0.6318  0.71164  0.87722  1.0000
  C   C2        1.0  0.69671  0.6882900000000001  0.8020300000000002  1.0000
  C   C3        1.0  0.74841  0.73797  0.76188  1.0000
  C   C4        1.0  0.8058799999999999  0.69576  0.69227  1.0000
  C   C5        1.0  0.79674  0.61448  0.67993  1.0000
  C   C6        1.0  0.8483399999999999  0.55178  0.61582  1.0000
  C   C7        1.0  0.83284  0.26461  0.61056  1.0000
  C   C8        1.0  0.76813  0.28054  0.68552  1.0000
  C   C9        1.0  0.69264  0.22861  0.70884  1.0000
  C   C10       1.0  0.6430199999999999  0.26231000000000004  0.7836900000000002  1.0000
  C   C11       1.0  0.67982  0.33991  0.81587  1.0000
  C   C12       1.0  0.63707  0.39497000000000004  0.88945  1.0000
  C   C13       1.0  0.16374  0.50792  0.61418  1.0000
  C   C14       1.0  0.23896  0.51807  0.68503  1.0000
  C   C15       1.0  0.3438  0.55939  0.70294  1.0000
  C   C16       1.0  0.38987  0.55597  0.77649  1.0000
  C   C17       1.0  0.31865  0.51278  0.81402  1.0000
  C   C18       1.0  0.34041  0.49289  0.8882700000000002  1.0000
  C   C19       1.0  0.12908  0.78825  0.62283  1.0000
  C   C20       1.0  0.19428  0.81228  0.69785  1.0000
  C   C21       1.0  0.24701999999999996  0.76249  0.73751  1.0000
  C   C22       1.0  0.30524999999999997  0.8044600000000001  0.8067800000000003  1.0000
  C   C23       1.0  0.29579  0.88577  0.81947  1.0000
  C   C24       1.0  0.34831  0.9481699999999998  0.88342  1.0000
  C   C25       1.0  0.33303  0.23538  0.8886  1.0000
  C   C26       1.0  0.26766  0.21883  0.81379  1.0000
  C   C27       1.0  0.19262  0.27099  0.79016  1.0000
  C   C28       1.0  0.1428  0.23729  0.71541  1.0000
  C   C29       1.0  0.17867999999999998  0.15934  0.68382  1.0000
  C   C30       1.0  0.13563  0.10381999999999995  0.61085  1.0000
  C   C31       1.0  0.6632099999999999  0.9931699999999999  0.88589  1.0000
  C   C32       1.0  0.73768  0.9828500000000001  0.81477  1.0000
  C   C33       1.0  0.8426499999999999  0.9415999999999999  0.79668  1.0000
  C   C34       1.0  0.88816  0.94501  0.72304  1.0000
  C   C35       1.0  0.8167  0.9883199999999999  0.68573  1.0000
  C   C36       1.0  0.8392699999999998  0.00823000000000002  0.6116200000000002  1.0000
  C   C37       1.0  0.3682  0.28836  0.12278  1.0000
  C   C38       1.0  0.30329  0.31171  0.19797  1.0000
  C   C39       1.0  0.25159  0.26202999999999993  0.23812000000000003  1.0000
  C   C40       1.0  0.19410999999999998  0.30424000000000007  0.3077300000000001  1.0000
  C   C41       1.0  0.20326  0.38552  0.32007  1.0000
  C   C42       1.0  0.15166  0.44822  0.38418  1.0000
  C   C43       1.0  0.16715999999999998  0.7354  0.38945  1.0000
  C   C44       1.0  0.23187  0.71946  0.31448  1.0000
  C   C45       1.0  0.30735  0.77139  0.2911600000000001  1.0000
  C   C46       1.0  0.35697  0.7376899999999998  0.21631  1.0000
  C   C47       1.0  0.32018  0.6600899999999997  0.18413  1.0000
  C   C48       1.0  0.36293  0.60503  0.11055  1.0000
  C   C49       1.0  0.83626  0.4920800000000001  0.3858200000000001  1.0000
  C   C50       1.0  0.76104  0.48192999999999997  0.31497000000000014  1.0000
  C   C51       1.0  0.6562  0.44061  0.29706  1.0000
  C   C52       1.0  0.61012  0.4440299999999999  0.22351  1.0000
  C   C53       1.0  0.68135  0.48721999999999993  0.18598  1.0000
  C   C54       1.0  0.6595899999999999  0.50712  0.11173000000000002  1.0000
  C   C55       1.0  0.8709199999999999  0.21174999999999997  0.37718  1.0000
  C   C56       1.0  0.80571  0.18772  0.3021500000000001  1.0000
  C   C57       1.0  0.7529799999999998  0.23750999999999997  0.26249  1.0000
  C   C58       1.0  0.69474  0.19554000000000002  0.19322  1.0000
  C   C59       1.0  0.70421  0.11423  0.18053  1.0000
  C   C60       1.0  0.65168  0.05183000000000001  0.11658000000000003  1.0000
  C   C61       1.0  0.6669699999999998  0.76462  0.1114  1.0000
  C   C62       1.0  0.73233  0.78117  0.18622  1.0000
  C   C63       1.0  0.8073699999999998  0.7290099999999999  0.20984  1.0000
  C   C64       1.0  0.8572  0.7627100000000001  0.2845900000000001  1.0000
  C   C65       1.0  0.82132  0.8406599999999997  0.31618  1.0000
  C   C66       1.0  0.86437  0.89618  0.3891500000000001  1.0000
  C   C67       1.0  0.33679  0.006829999999999993  0.11411  1.0000
  C   C68       1.0  0.26232  0.017149999999999995  0.18523  1.0000
  C   C69       1.0  0.15734  0.0584  0.20332  1.0000
  C   C70       1.0  0.11183  0.055  0.27696  1.0000
  C   C71       1.0  0.18329999999999996  0.011689999999999992  0.31428  1.0000
  C   C72       1.0  0.16073  0.99177  0.38838  1.0000
  S   S1        1.0  0.7171899999999999  0.58977  0.75346  1.0000
  S   S2        1.0  0.7773599999999998  0.37088  0.75522  1.0000
  S   S3        1.0  0.19640999999999995  0.47544999999999993  0.75835  1.0000
  S   S4        1.0  0.21464  0.91072  0.74661  1.0000
  S   S5        1.0  0.27591  0.12816999999999998  0.74462  1.0000
  S   S6        1.0  0.69445  0.02559000000000002  0.74158  1.0000
  S   S7        1.0  0.2828  0.41022999999999993  0.24654  1.0000
  S   S8        1.0  0.22263  0.62912  0.24478000000000003  1.0000
  S   S9        1.0  0.80359  0.52456  0.24165000000000003  1.0000
  S   S10       1.0  0.7853599999999997  0.08928  0.25339  1.0000
  S   S11       1.0  0.7240799999999998  0.87183  0.25538  1.0000
  S   S12       1.0  0.30555  0.97441  0.25842  1.0000
  O   O1        1.0  0.58328  0.65583  0.90163  1.0000
  O   O2        1.0  0.62523  0.78417  0.91297  1.0000
  O   O3        1.0  0.8211999999999999  0.48039999999999994  0.61017  1.0000
  O   O4        1.0  0.9214899999999999  0.57166  0.56887  1.0000
  O   O5        1.0  0.90389  0.31902  0.6023900000000002  1.0000
  O   O6        1.0  0.8154199999999999  0.20025999999999994  0.55832  1.0000
  O   O7        1.0  0.67802  0.46529999999999994  0.90911  1.0000
  O   O8        1.0  0.55841  0.36833000000000005  0.9278200000000002  1.0000
  O   O9        1.0  0.08302  0.45601  0.60582  1.0000
  O   O10       1.0  0.18369  0.55183  0.56856  1.0000
  O   O11       1.0  0.26669  0.4533  0.91615  1.0000
  O   O12       1.0  0.44044999999999995  0.51204  0.92409  1.0000
  O   O13       1.0  0.42443  0.79066  0.01976  1.0000
  O   O14       1.0  0.07815  0.8433799999999999  0.59828  1.0000
  O   O15       1.0  0.12489  0.71574  0.58721  1.0000
  O   O16       1.0  0.32127  0.019700000000000006  0.88969  1.0000
  O   O17       1.0  0.42228999999999994  0.92783  0.92965  1.0000
  O   O18       1.0  0.40421  0.18134  0.89769  1.0000
  O   O19       1.0  0.31558  0.30045  0.93977  1.0000
  O   O20       1.0  0.17849999999999996  0.03396  0.59097  1.0000
  O   O21       1.0  0.054779999999999995  0.12912000000000004  0.5730700000000001  1.0000
  O   O22       1.0  0.58207  0.04487000000000003  0.8942300000000001  1.0000
  O   O23       1.0  0.68398  0.94992  0.9320500000000003  1.0000
  O   O24       1.0  0.76655  0.04893999999999999  0.58406  1.0000
  O   O25       1.0  0.9389899999999999  0.98789  0.57569  1.0000
  O   O26       1.0  0.92896  0.71215  0.48091000000000006  1.0000
  O   O27       1.0  0.41672  0.34417  0.09837000000000003  1.0000
  O   O28       1.0  0.37477  0.21583  0.08704  1.0000
  O   O29       1.0  0.17879999999999996  0.5196  0.38983  1.0000
  O   O30       1.0  0.0785  0.42834  0.43113  1.0000
  O   O31       1.0  0.09611  0.68098  0.39761  1.0000
  O   O32       1.0  0.18457999999999997  0.7997500000000001  0.44168000000000013  1.0000
  O   O33       1.0  0.32198  0.5347  0.09089  1.0000
  O   O34       1.0  0.4415899999999999  0.63167  0.07218  1.0000
  O   O35       1.0  0.9169799999999998  0.54399  0.39418  1.0000
  O   O36       1.0  0.8163  0.44817000000000007  0.4314400000000001  1.0000
  O   O37       1.0  0.7332999999999998  0.5467  0.08385  1.0000
  O   O38       1.0  0.55955  0.48796  0.07591  1.0000
  O   O39       1.0  0.57557  0.20934000000000005  0.98024  1.0000
  O   O40       1.0  0.9218399999999999  0.15662  0.40173  1.0000
  O   O41       1.0  0.87511  0.28426000000000007  0.4127900000000001  1.0000
  O   O42       1.0  0.67873  0.9802999999999998  0.11032  1.0000
  O   O43       1.0  0.57771  0.07217  0.07035  1.0000
  O   O44       1.0  0.59578  0.81866  0.10232000000000001  1.0000
  O   O45       1.0  0.68442  0.6995499999999999  0.060230000000000006  1.0000
  O   O46       1.0  0.8214899999999998  0.9660399999999999  0.40903000000000006  1.0000
  O   O47       1.0  0.9452199999999998  0.87088  0.4269300000000001  1.0000
  O   O48       1.0  0.41792999999999997  0.9551299999999999  0.10577  1.0000
  O   O49       1.0  0.31602  0.05008  0.06795  1.0000
  O   O50       1.0  0.23345  0.95107  0.41594000000000003  1.0000
  O   O51       1.0  0.06101  0.01211  0.42431  1.0000
  O   O52       1.0  0.07104  0.28785  0.51909  1.0000
