data_image0
_chemical_formula_structural       Mn3Zn6H66C104N4O40
_chemical_formula_sum              "Mn3 Zn6 H66 C104 N4 O40"
_cell_length_a       10.31803
_cell_length_b       14.950019999999999
_cell_length_c       21.34876
_cell_angle_alpha    98.36014999999999
_cell_angle_beta     93.78433
_cell_angle_gamma    107.29824999999998

_space_group_name_H-M_alt    "P 1"
_space_group_IT_number       1

loop_
  _space_group_symop_operation_xyz
  'x, y, z'

loop_
  _atom_site_type_symbol
  _atom_site_label
  _atom_site_symmetry_multiplicity
  _atom_site_fract_x
  _atom_site_fract_y
  _atom_site_fract_z
  _atom_site_occupancy
  Mn  Mn1       1.0  0.24087  0.99601  0.19854  1.0000
  Mn  Mn2       1.0  0.75913  0.003990000000000028  0.8014600000000001  1.0000
  Mn  Mn3       1.0  0.0  0.5  0.5  1.0000
  Zn  Zn1       1.0  0.40531  0.97924  0.73876  1.0000
  Zn  Zn2       1.0  0.17881  0.32566  0.50315  1.0000
  Zn  Zn3       1.0  0.98293  0.97497  0.07145  1.0000
  Zn  Zn4       1.0  0.59469  0.020759999999999997  0.26124  1.0000
  Zn  Zn5       1.0  0.8211900000000001  0.67435  0.49685  1.0000
  Zn  Zn6       1.0  0.017069999999999995  0.025029999999999993  0.92855  1.0000
  H   H1        1.0  0.86714  0.15286000000000002  0.6247300000000001  1.0000
  H   H2        1.0  0.09470000000000005  0.19899000000000003  0.31272  1.0000
  H   H3        1.0  0.29185000000000005  0.016700000000000017  0.9244600000000001  1.0000
  H   H4        1.0  0.48177000000000003  0.15259  0.1143  1.0000
  H   H5        1.0  0.34513  0.64776  0.15331  1.0000
  H   H6        1.0  0.8773200000000001  0.40327  0.30943000000000004  1.0000
  H   H7        1.0  0.70246  0.22009  0.07021  1.0000
  H   H8        1.0  0.6753500000000001  0.7509100000000001  0.12991  1.0000
  H   H9        1.0  0.29024  0.22243  0.4002  1.0000
  H   H10       1.0  0.7161200000000001  0.1800400000000001  0.9532700000000002  1.0000
  H   H11       1.0  0.8390300000000002  0.18885000000000005  0.14363000000000004  1.0000
  H   H12       1.0  0.04656  0.75711  0.23647000000000004  1.0000
  H   H13       1.0  0.22301999999999994  0.84675  0.6342400000000001  1.0000
  H   H14       1.0  0.82979  0.42702  0.60353  1.0000
  H   H15       1.0  0.91315  0.64092  0.29962  1.0000
  H   H16       1.0  0.56525  0.25131  0.7163200000000001  1.0000
  H   H17       1.0  0.9540500000000001  0.07672000000000001  0.54057  1.0000
  H   H18       1.0  0.86586  0.9531  0.5262  1.0000
  H   H19       1.0  0.63455  0.07988  0.52463  1.0000
  H   H20       1.0  0.57238  0.03549  0.44322  1.0000
  H   H21       1.0  0.06310000000000003  0.85577  0.54427  1.0000
  H   H22       1.0  0.43444  0.11345000000000001  0.39139000000000007  1.0000
  H   H23       1.0  0.77341  0.32657  0.19774  1.0000
  H   H24       1.0  0.4542  0.13265000000000005  0.5960600000000001  1.0000
  H   H25       1.0  0.22484  0.10724999999999998  0.73305  1.0000
  H   H26       1.0  0.06963000000000003  0.12921000000000002  0.6460200000000001  1.0000
  H   H27       1.0  0.64641  0.40459  0.67643  1.0000
  H   H28       1.0  0.31047  0.24069  0.59634  1.0000
  H   H29       1.0  0.6573000000000001  0.58105  0.27794  1.0000
  H   H30       1.0  0.33037000000000005  0.7007400000000001  0.62932  1.0000
  H   H31       1.0  0.5315900000000001  0.48678000000000005  0.61175  1.0000
  H   H32       1.0  0.7111399999999999  0.58479  0.70047  1.0000
  H   H33       1.0  0.69614  0.74127  0.75388  1.0000
  H   H34       1.0  0.13285999999999998  0.84714  0.37528  1.0000
  H   H35       1.0  0.9053  0.8010100000000001  0.6872900000000001  1.0000
  H   H36       1.0  0.70815  0.9833  0.07554  1.0000
  H   H37       1.0  0.51823  0.84741  0.8857  1.0000
  H   H38       1.0  0.6548700000000002  0.3522400000000001  0.84669  1.0000
  H   H39       1.0  0.12268000000000001  0.59673  0.69057  1.0000
  H   H40       1.0  0.29754  0.77992  0.92979  1.0000
  H   H41       1.0  0.32465  0.24909  0.87009  1.0000
  H   H42       1.0  0.7097600000000001  0.77758  0.5998  1.0000
  H   H43       1.0  0.28388  0.81996  0.04673  1.0000
  H   H44       1.0  0.16097000000000009  0.8111600000000002  0.85637  1.0000
  H   H45       1.0  0.9534400000000001  0.24290000000000006  0.76353  1.0000
  H   H46       1.0  0.77698  0.15325  0.36576  1.0000
  H   H47       1.0  0.17021000000000006  0.57298  0.39647  1.0000
  H   H48       1.0  0.08685  0.35908  0.70038  1.0000
  H   H49       1.0  0.43475  0.7487  0.28368  1.0000
  H   H50       1.0  0.04594999999999996  0.92328  0.45943  1.0000
  H   H51       1.0  0.13414  0.0469  0.4738  1.0000
  H   H52       1.0  0.3654500000000001  0.92012  0.47537  1.0000
  H   H53       1.0  0.42762  0.96451  0.5567800000000002  1.0000
  H   H54       1.0  0.9369000000000001  0.14424  0.45573  1.0000
  H   H55       1.0  0.56556  0.88655  0.60861  1.0000
  H   H56       1.0  0.2265900000000001  0.6734300000000001  0.80226  1.0000
  H   H57       1.0  0.5458  0.86735  0.40394  1.0000
  H   H58       1.0  0.77516  0.89276  0.26695  1.0000
  H   H59       1.0  0.93037  0.87079  0.35398  1.0000
  H   H60       1.0  0.35359  0.59541  0.32357  1.0000
  H   H61       1.0  0.6895300000000001  0.7593100000000002  0.4036600000000001  1.0000
  H   H62       1.0  0.34270000000000006  0.41895000000000004  0.7220600000000001  1.0000
  H   H63       1.0  0.66963  0.29927  0.37068  1.0000
  H   H64       1.0  0.46841  0.51322  0.38825  1.0000
  H   H65       1.0  0.28886  0.41522  0.29953  1.0000
  H   H66       1.0  0.30386  0.25873  0.24612  1.0000
  C   C1        1.0  0.3724700000000001  0.08324  0.02205  1.0000
  C   C2        1.0  0.012170000000000005  0.10516  0.18989000000000003  1.0000
  C   C3        1.0  0.81759  0.20730999999999997  0.63476  1.0000
  C   C4        1.0  0.026539999999999994  0.22781  0.28704  1.0000
  C   C5        1.0  0.24313000000000004  0.04493  0.04888  1.0000
  C   C6        1.0  0.38032  0.062180000000000006  0.9567000000000001  1.0000
  C   C7        1.0  0.51453  0.06578000000000002  0.8635  1.0000
  C   C8        1.0  0.05075000000000002  0.34915  0.38497  1.0000
  C   C9        1.0  0.99294  0.30637  0.31741  1.0000
  C   C10       1.0  0.7107000000000001  0.19289000000000006  0.67268  1.0000
  C   C11       1.0  0.48943  0.13935  0.06334  1.0000
  C   C12       1.0  0.50465  0.09623000000000001  0.9323100000000001  1.0000
  C   C13       1.0  0.97283  0.1866  0.2241  1.0000
  C   C14       1.0  0.86946  0.75998  0.17903  1.0000
  C   C15       1.0  0.65576  0.10117  0.69661  1.0000
  C   C16       1.0  0.50928  0.8257400000000001  0.72528  1.0000
  C   C17       1.0  0.3069900000000001  0.52424  0.5659  1.0000
  C   C18       1.0  0.95314  0.83278  0.14413  1.0000
  C   C19       1.0  0.90281  0.34274  0.2849  1.0000
  C   C20       1.0  0.6122  0.17585  0.0385  1.0000
  C   C21       1.0  0.72655  0.72635  0.16689000000000004  1.0000
  C   C22       1.0  0.32951  0.20064  0.44206  1.0000
  C   C23       1.0  0.6204  0.15416000000000005  0.9732600000000001  1.0000
  C   C24       1.0  0.8811200000000001  0.22278  0.19228  1.0000
  C   C25       1.0  0.05450000000000006  0.9945600000000001  0.58701  1.0000
  C   C26       1.0  0.9357999999999996  0.72891  0.22713  1.0000
  C   C27       1.0  0.49942  0.62652  0.19369  1.0000
  C   C28       1.0  0.8578200000000001  0.2908  0.60861  1.0000
  C   C29       1.0  0.1850500000000001  0.90733  0.6347300000000001  1.0000
  C   C30       1.0  0.41913000000000006  0.58707  0.61592  1.0000
  C   C31       1.0  0.79548  0.36183  0.62311  1.0000
  C   C32       1.0  0.65095  0.66222  0.20301  1.0000
  C   C33       1.0  0.8604900000000001  0.66434  0.26253  1.0000
  C   C34       1.0  0.64844  0.26407  0.68676  1.0000
  C   C35       1.0  0.96767  0.0061900000000000045  0.53137  1.0000
  C   C36       1.0  0.45725000000000005  0.11476000000000001  0.49327000000000004  1.0000
  C   C37       1.0  0.5409600000000002  0.04791  0.49102  1.0000
  C   C38       1.0  0.09686999999999997  0.9135000000000001  0.58492  1.0000
  C   C39       1.0  0.40942  0.14019  0.43774  1.0000
  C   C40       1.0  0.84564  0.29984  0.2226  1.0000
  C   C41       1.0  0.42075000000000007  0.15098  0.55151  1.0000
  C   C42       1.0  0.18684000000000003  0.053480000000000034  0.69026  1.0000
  C   C43       1.0  0.09939000000000002  0.06476000000000003  0.64177  1.0000
  C   C44       1.0  0.69269  0.34902  0.6633  1.0000
  C   C45       1.0  0.3408900000000001  0.21100000000000002  0.55217  1.0000
  C   C46       1.0  0.7183200000000001  0.63084  0.25065  1.0000
  C   C47       1.0  0.41351000000000004  0.67558  0.64505  1.0000
  C   C48       1.0  0.5279299999999999  0.5552199999999998  0.63568  1.0000
  C   C49       1.0  0.6278600000000001  0.6101  0.68497  1.0000
  C   C50       1.0  0.51382  0.73082  0.69473  1.0000
  C   C51       1.0  0.62029  0.69747  0.71499  1.0000
  C   C52       1.0  0.9677700000000001  0.30536  0.56629  1.0000
  C   C53       1.0  0.62753  0.91676  0.9779500000000001  1.0000
  C   C54       1.0  0.9878300000000001  0.89484  0.81011  1.0000
  C   C55       1.0  0.18241  0.79269  0.36524  1.0000
  C   C56       1.0  0.97346  0.7721999999999999  0.71296  1.0000
  C   C57       1.0  0.75687  0.95507  0.95112  1.0000
  C   C58       1.0  0.61968  0.93782  0.0433  1.0000
  C   C59       1.0  0.48547  0.93423  0.1365  1.0000
  C   C60       1.0  0.94925  0.6508500000000002  0.61503  1.0000
  C   C61       1.0  0.00706000000000002  0.69363  0.68259  1.0000
  C   C62       1.0  0.28930000000000006  0.8071100000000001  0.32732  1.0000
  C   C63       1.0  0.51057  0.86066  0.93666  1.0000
  C   C64       1.0  0.4953500000000001  0.9037700000000001  0.06769  1.0000
  C   C65       1.0  0.02716999999999994  0.81341  0.7759000000000001  1.0000
  C   C66       1.0  0.13054000000000007  0.24002000000000004  0.8209700000000001  1.0000
  C   C67       1.0  0.34424  0.89883  0.30339  1.0000
  C   C68       1.0  0.49072  0.17426  0.27472  1.0000
  C   C69       1.0  0.69301  0.47576  0.4341  1.0000
  C   C70       1.0  0.04686  0.16722  0.85587  1.0000
  C   C71       1.0  0.09719000000000001  0.65726  0.7151  1.0000
  C   C72       1.0  0.3878  0.82415  0.9615000000000001  1.0000
  C   C73       1.0  0.27345  0.27366000000000007  0.8331100000000001  1.0000
  C   C74       1.0  0.67049  0.79936  0.55794  1.0000
  C   C75       1.0  0.3796  0.84584  0.026740000000000003  1.0000
  C   C76       1.0  0.11888000000000003  0.77722  0.8077200000000001  1.0000
  C   C77       1.0  0.9455  0.005440000000000006  0.4129900000000001  1.0000
  C   C78       1.0  0.06420000000000002  0.27110000000000006  0.7728700000000001  1.0000
  C   C79       1.0  0.50058  0.3734800000000001  0.8063200000000001  1.0000
  C   C80       1.0  0.14218  0.7092  0.39139000000000007  1.0000
  C   C81       1.0  0.81495  0.09267  0.36527  1.0000
  C   C82       1.0  0.58087  0.41293  0.38408  1.0000
  C   C83       1.0  0.20451999999999998  0.63817  0.37689  1.0000
  C   C84       1.0  0.34905  0.33778  0.79699  1.0000
  C   C85       1.0  0.13951  0.33567  0.73747  1.0000
  C   C86       1.0  0.35156  0.73593  0.31324  1.0000
  C   C87       1.0  0.03233000000000003  0.99381  0.46863  1.0000
  C   C88       1.0  0.54275  0.8852400000000001  0.50673  1.0000
  C   C89       1.0  0.4590400000000001  0.9520899999999999  0.50898  1.0000
  C   C90       1.0  0.90313  0.08650000000000001  0.41508000000000006  1.0000
  C   C91       1.0  0.59058  0.85981  0.56226  1.0000
  C   C92       1.0  0.15436000000000014  0.7001600000000001  0.7774000000000001  1.0000
  C   C93       1.0  0.57925  0.84902  0.44849  1.0000
  C   C94       1.0  0.81316  0.9465200000000001  0.30974  1.0000
  C   C95       1.0  0.90061  0.93524  0.35823  1.0000
  C   C96       1.0  0.30731  0.65098  0.3367  1.0000
  C   C97       1.0  0.65911  0.789  0.44783  1.0000
  C   C98       1.0  0.28168  0.36916  0.74935  1.0000
  C   C99       1.0  0.58649  0.32442  0.35495  1.0000
  C   C100      1.0  0.47207000000000005  0.4447800000000001  0.36432  1.0000
  C   C101      1.0  0.37214  0.3899  0.31503  1.0000
  C   C102      1.0  0.48618  0.26918  0.30527  1.0000
  C   C103      1.0  0.37971  0.30253  0.28501  1.0000
  C   C104      1.0  0.03222999999999999  0.69464  0.43371  1.0000
  N   N1        1.0  0.2955900000000001  0.23551000000000002  0.4983600000000001  1.0000
  N   N2        1.0  0.23143000000000014  0.9768500000000002  0.68641  1.0000
  N   N3        1.0  0.7044099999999999  0.7645  0.50164  1.0000
  N   N4        1.0  0.7685700000000001  0.02314999999999999  0.31359  1.0000
  O   O1        1.0  0.12898  0.00411  0.01044  1.0000
  O   O2        1.0  0.08914  0.06919  0.21939  1.0000
  O   O3        1.0  0.9613300000000001  0.07917  0.13071  1.0000
  O   O4        1.0  0.23968  0.05071  0.10796000000000001  1.0000
  O   O5        1.0  0.11054000000000001  0.29902  0.41321  1.0000
  O   O6        1.0  0.41225000000000006  0.85321  0.70169  1.0000
  O   O7        1.0  0.5252000000000001  0.07554000000000005  0.69604  1.0000
  O   O8        1.0  0.03872  0.42815  0.40946  1.0000
  O   O9        1.0  0.7350900000000001  0.05668000000000003  0.7138100000000001  1.0000
  O   O10       1.0  0.3997800000000001  0.022000000000000044  0.8284600000000001  1.0000
  O   O11       1.0  0.59742  0.87434  0.77144  1.0000
  O   O12       1.0  0.99288  0.37574  0.53663  1.0000
  O   O13       1.0  0.21893999999999994  0.55714  0.54263  1.0000
  O   O14       1.0  0.31194000000000005  0.4383  0.5522  1.0000
  O   O15       1.0  0.88862  0.85613  0.09829000000000002  1.0000
  O   O16       1.0  0.07990000000000004  0.8676700000000002  0.16132  1.0000
  O   O17       1.0  0.44427  0.67457  0.15507  1.0000
  O   O18       1.0  0.42876  0.56295  0.21851  1.0000
  O   O19       1.0  0.6308599999999999  0.08293000000000005  0.84399  1.0000
  O   O20       1.0  0.03926999999999999  0.2483  0.55977  1.0000
  O   O21       1.0  0.8710200000000001  0.99589  0.98956  1.0000
  O   O22       1.0  0.9108600000000001  0.93082  0.78061  1.0000
  O   O23       1.0  0.03867000000000006  0.92083  0.86929  1.0000
  O   O24       1.0  0.76032  0.94929  0.89204  1.0000
  O   O25       1.0  0.8894599999999998  0.7009800000000002  0.58679  1.0000
  O   O26       1.0  0.5877499999999999  0.14679  0.29831  1.0000
  O   O27       1.0  0.4748000000000001  0.9244600000000001  0.30396  1.0000
  O   O28       1.0  0.9612800000000001  0.57185  0.59054  1.0000
  O   O29       1.0  0.26491  0.94332  0.28619  1.0000
  O   O30       1.0  0.60022  0.97801  0.17154  1.0000
  O   O31       1.0  0.40258  0.12566  0.22856000000000004  1.0000
  O   O32       1.0  0.007120000000000066  0.6242600000000001  0.46337000000000006  1.0000
  O   O33       1.0  0.7810600000000001  0.44286000000000014  0.45737000000000005  1.0000
  O   O34       1.0  0.68806  0.56171  0.44780000000000003  1.0000
  O   O35       1.0  0.11138000000000003  0.14387000000000003  0.9017100000000001  1.0000
  O   O36       1.0  0.9201  0.13233000000000006  0.83868  1.0000
  O   O37       1.0  0.55573  0.32543  0.84493  1.0000
  O   O38       1.0  0.57125  0.4370600000000001  0.78148  1.0000
  O   O39       1.0  0.3691400000000002  0.9170800000000002  0.15601  1.0000
  O   O40       1.0  0.9607300000000001  0.7517  0.44023000000000007  1.0000
