data_image0
_chemical_formula_structural       Ag4H48C112S24N16
_chemical_formula_sum              "Ag4 H48 C112 S24 N16"
_cell_length_a       12.95345
_cell_length_b       16.1115
_cell_length_c       17.60009
_cell_angle_alpha    81.46068
_cell_angle_beta     68.36733
_cell_angle_gamma    66.23534

_symmetry_space_group_name_H-M    'P 1'
_symmetry_Int_Tables_number       1

loop_
  _symmetry_equiv_pos_as_xyz
  'x,y,z'

loop_
  _atom_site_type_symbol
  _atom_site_label
  _atom_site_symmetry_multiplicity
  _atom_site_fract_x
  _atom_site_fract_y
  _atom_site_fract_z
  _atom_site_occupancy
  Ag  Ag1       1.0  0.87512  0.25043  0.24922999999999998  1.0000
  Ag  Ag2       1.0  0.6252400000000001  0.74995  0.74955  1.0000
  Ag  Ag3       1.0  0.12488000000000009  0.74958  0.7507599999999998  1.0000
  Ag  Ag4       1.0  0.37477000000000005  0.25004  0.25044  1.0000
  H   H1        1.0  0.45103000000000004  0.54175  0.24935999999999997  1.0000
  H   H2        1.0  0.27825000000000005  0.60342  0.18763999999999995  1.0000
  H   H3        1.0  0.4189499999999998  0.39983  0.95848  1.0000
  H   H4        1.0  0.24706  0.45639  0.8971599999999997  1.0000
  H   H5        1.0  0.9140399999999997  0.7000999999999997  0.07828  1.0000
  H   H6        1.0  0.74561  0.75473  0.01337  1.0000
  H   H7        1.0  0.2988  0.95852  0.24942  1.0000
  H   H8        1.0  0.5338599999999999  0.89673  0.18761  1.0000
  H   H9        1.0  0.6223599999999999  0.10005  0.95855  1.0000
  H   H10       1.0  0.85604  0.04347  0.89703  1.0000
  H   H11       1.0  0.007350000000000012  0.80014  0.07873999999999998  1.0000
  H   H12       1.0  0.24091  0.74521  0.013569999999999997  1.0000
  H   H13       1.0  0.0069900000000000535  0.54137  0.2507999999999999  1.0000
  H   H14       1.0  0.11824999999999995  0.60294  0.31229  1.0000
  H   H15       1.0  0.1813200000000001  0.4000299999999999  0.5416  1.0000
  H   H16       1.0  0.29650000000000004  0.45636  0.60281  1.0000
  H   H17       1.0  0.38586999999999977  0.70002  0.42145  1.0000
  H   H18       1.0  0.49922000000000005  0.7545599999999998  0.4862799999999999  1.0000
  H   H19       1.0  0.7427499999999998  0.9588699999999998  0.25069999999999987  1.0000
  H   H20       1.0  0.56947  0.89726  0.3122499999999999  1.0000
  H   H21       1.0  0.2774499999999999  0.09985999999999998  0.54157  1.0000
  H   H22       1.0  0.10062000000000003  0.04351  0.60302  1.0000
  H   H23       1.0  0.19275  0.8002499999999999  0.4210099999999999  1.0000
  H   H24       1.0  0.014590000000000089  0.7454499999999997  0.48611  1.0000
  H   H25       1.0  0.5489699999999998  0.45825  0.75064  1.0000
  H   H26       1.0  0.7217500000000001  0.39656999999999987  0.81236  1.0000
  H   H27       1.0  0.5810500000000001  0.6001699999999999  0.04152  1.0000
  H   H28       1.0  0.7529399999999999  0.54361  0.10282999999999998  1.0000
  H   H29       1.0  0.08597000000000002  0.2999  0.9217099999999998  1.0000
  H   H30       1.0  0.25439000000000006  0.24527  0.98662  1.0000
  H   H31       1.0  0.7011999999999999  0.04148  0.7505799999999998  1.0000
  H   H32       1.0  0.4661400000000001  0.10326999999999999  0.8123899999999997  1.0000
  H   H33       1.0  0.3776499999999999  0.89995  0.041439999999999984  1.0000
  H   H34       1.0  0.14396000000000006  0.9565299999999998  0.10296999999999998  1.0000
  H   H35       1.0  0.99265  0.19985999999999995  0.92126  1.0000
  H   H36       1.0  0.75909  0.25479  0.98643  1.0000
  H   H37       1.0  0.9930000000000003  0.4586399999999999  0.7492  1.0000
  H   H38       1.0  0.88174  0.39707  0.68771  1.0000
  H   H39       1.0  0.8186800000000002  0.5999699999999998  0.45839  1.0000
  H   H40       1.0  0.70351  0.54364  0.39717999999999987  1.0000
  H   H41       1.0  0.61414  0.29998  0.57854  1.0000
  H   H42       1.0  0.50079  0.24543999999999994  0.5137099999999998  1.0000
  H   H43       1.0  0.25725000000000015  0.04114  0.7492899999999998  1.0000
  H   H44       1.0  0.4305199999999999  0.10274  0.68774  1.0000
  H   H45       1.0  0.72255  0.90015  0.45842  1.0000
  H   H46       1.0  0.8993899999999997  0.95649  0.3969799999999999  1.0000
  H   H47       1.0  0.80725  0.19974  0.57898  1.0000
  H   H48       1.0  0.9854099999999998  0.25454  0.5138899999999997  1.0000
  C   C1        1.0  0.65014  0.3819599999999999  0.177  1.0000
  C   C2        1.0  0.54392  0.4306699999999999  0.16114999999999993  1.0000
  C   C3        1.0  0.45038999999999996  0.51  0.19937999999999995  1.0000
  C   C4        1.0  0.35797  0.54234  0.16666  1.0000
  C   C5        1.0  0.37771  0.48873  0.10272  1.0000
  C   C6        1.0  0.30456  0.50099  0.05506999999999999  1.0000
  C   C7        1.0  0.33231999999999984  0.45374  0.98518  1.0000
  C   C8        1.0  0.2407100000000001  0.48482999999999987  0.95167  1.0000
  C   C9        1.0  0.1386600000000001  0.5569099999999998  0.9944599999999999  1.0000
  C   C10       1.0  0.03010000000000002  0.6037899999999998  0.97732  1.0000
  C   C11       1.0  0.92415  0.67279  0.02206  1.0000
  C   C12       1.0  0.83363  0.70201  0.9878  1.0000
  C   C13       1.0  0.86791  0.6561099999999999  0.91562  1.0000
  C   C14       1.0  0.7987599999999998  0.6672099999999997  0.86757  1.0000
  C   C15       1.0  0.17249999999999996  0.11829  0.17693  1.0000
  C   C16       1.0  0.29458  0.06945  0.16116  1.0000
  C   C17       1.0  0.34974999999999995  0.99014  0.19944  1.0000
  C   C18       1.0  0.47499000000000013  0.9577999999999998  0.16675  1.0000
  C   C19       1.0  0.5193199999999999  0.0114  0.10282  1.0000
  C   C20       1.0  0.6402199999999999  0.99914  0.05515  1.0000
  C   C21       1.0  0.6824799999999998  0.04626  0.9851699999999999  1.0000
  C   C22       1.0  0.80768  0.01518  0.95164  1.0000
  C   C23       1.0  0.8668100000000001  0.9432  0.9945800000000001  1.0000
  C   C24       1.0  0.9925300000000004  0.89618  0.97754  1.0000
  C   C25       1.0  0.0536000000000001  0.8272899999999997  0.02241  1.0000
  C   C26       1.0  0.17846999999999996  0.7979  0.9880399999999999  1.0000
  C   C27       1.0  0.21659999999999996  0.84355  0.91573  1.0000
  C   C28       1.0  0.33379999999999993  0.83259  0.86759  1.0000
  C   C29       1.0  0.9677199999999999  0.38185999999999987  0.3232  1.0000
  C   C30       1.0  0.025330000000000026  0.43037  0.3391599999999999  1.0000
  C   C31       1.0  0.03947  0.50962  0.30078  1.0000
  C   C32       1.0  0.09964000000000005  0.54194  0.33337  1.0000
  C   C33       1.0  0.13363999999999998  0.48845  0.39731  1.0000
  C   C34       1.0  0.19455000000000006  0.50088  0.44483  1.0000
  C   C35       1.0  0.21405999999999997  0.45381  0.51477  1.0000
  C   C36       1.0  0.27454  0.48486  0.54824  1.0000
  C   C37       1.0  0.3045  0.55683  0.50535  1.0000
  C   C38       1.0  0.3661000000000001  0.6036899999999997  0.52248  1.0000
  C   C39       1.0  0.40296999999999983  0.67263  0.4777  1.0000
  C   C40       1.0  0.4641299999999999  0.70186  0.51199  1.0000
  C   C41       1.0  0.47581  0.65605  0.5842  1.0000
  C   C42       1.0  0.53382  0.6672599999999997  0.63219  1.0000
  C   C43       1.0  0.70915  0.11836  0.3233299999999999  1.0000
  C   C44       1.0  0.6357500000000001  0.0697  0.3391599999999999  1.0000
  C   C45       1.0  0.66009  0.99049  0.3006999999999999  1.0000
  C   C46       1.0  0.5671999999999998  0.95822  0.33325  1.0000
  C   C47       1.0  0.46915  0.011699999999999997  0.39721  1.0000
  C   C48       1.0  0.36060999999999993  0.99931  0.44474  1.0000
  C   C49       1.0  0.27119  0.04623999999999999  0.5148  1.0000
  C   C50       1.0  0.17714999999999997  0.01518  0.54831  1.0000
  C   C51       1.0  0.19007000000000004  0.9433299999999998  0.50526  1.0000
  C   C52       1.0  0.11145999999999999  0.8963499999999999  0.5222699999999998  1.0000
  C   C53       1.0  0.11940000000000005  0.8275  0.47738  1.0000
  C   C54       1.0  0.024010000000000135  0.7981299999999998  0.51177  1.0000
  C   C55       1.0  0.9401599999999999  0.84369  0.58412  1.0000
  C   C56       1.0  0.8340500000000002  0.8325799999999998  0.63223  1.0000
  C   C57       1.0  0.3498599999999999  0.6180399999999998  0.8229999999999997  1.0000
  C   C58       1.0  0.4560800000000002  0.5693299999999998  0.8388499999999998  1.0000
  C   C59       1.0  0.5496099999999995  0.49  0.80062  1.0000
  C   C60       1.0  0.64204  0.4576499999999999  0.83334  1.0000
  C   C61       1.0  0.6222899999999999  0.51126  0.89728  1.0000
  C   C62       1.0  0.69544  0.49901  0.94493  1.0000
  C   C63       1.0  0.6676799999999997  0.54626  0.01482  1.0000
  C   C64       1.0  0.7592899999999999  0.51517  0.04831999999999999  1.0000
  C   C65       1.0  0.86134  0.4430899999999999  0.00553  1.0000
  C   C66       1.0  0.9699  0.3962099999999999  0.02268  1.0000
  C   C67       1.0  0.07586000000000002  0.32721  0.97793  1.0000
  C   C68       1.0  0.16637  0.29799  0.0122  1.0000
  C   C69       1.0  0.13209000000000004  0.34388999999999986  0.08438  1.0000
  C   C70       1.0  0.20125000000000007  0.33278999999999986  0.13242999999999994  1.0000
  C   C71       1.0  0.8275  0.88171  0.82307  1.0000
  C   C72       1.0  0.7054200000000003  0.9305499999999999  0.8388299999999997  1.0000
  C   C73       1.0  0.6502499999999999  0.00986  0.80055  1.0000
  C   C74       1.0  0.52501  0.04219  0.8332499999999998  1.0000
  C   C75       1.0  0.4806799999999997  0.9885899999999997  0.89718  1.0000
  C   C76       1.0  0.35977999999999993  0.00086  0.94485  1.0000
  C   C77       1.0  0.31752  0.95374  0.014829999999999996  1.0000
  C   C78       1.0  0.19232000000000007  0.9848199999999998  0.04835  1.0000
  C   C79       1.0  0.13318999999999995  0.05679  0.00542  1.0000
  C   C80       1.0  0.007469999999999995  0.10382  0.022459999999999994  1.0000
  C   C81       1.0  0.9464  0.17271  0.9775899999999997  1.0000
  C   C82       1.0  0.8215299999999999  0.20209999999999995  0.01196  1.0000
  C   C83       1.0  0.7834099999999998  0.15645  0.08427  1.0000
  C   C84       1.0  0.6662099999999997  0.16741  0.13241  1.0000
  C   C85       1.0  0.03228000000000019  0.6181399999999998  0.67679  1.0000
  C   C86       1.0  0.9746699999999996  0.56963  0.6608399999999999  1.0000
  C   C87       1.0  0.9605199999999999  0.49039  0.69922  1.0000
  C   C88       1.0  0.90036  0.45806  0.66663  1.0000
  C   C89       1.0  0.8663599999999996  0.51156  0.60268  1.0000
  C   C90       1.0  0.8054499999999996  0.49912  0.55517  1.0000
  C   C91       1.0  0.7859399999999996  0.5462  0.48523  1.0000
  C   C92       1.0  0.72546  0.51514  0.45176  1.0000
  C   C93       1.0  0.6955000000000001  0.44317  0.49463999999999997  1.0000
  C   C94       1.0  0.6339099999999998  0.3963099999999999  0.4775199999999999  1.0000
  C   C95       1.0  0.59703  0.3273699999999999  0.52229  1.0000
  C   C96       1.0  0.5358799999999998  0.29814  0.488  1.0000
  C   C97       1.0  0.5242  0.34395  0.4157999999999999  1.0000
  C   C98       1.0  0.4661799999999998  0.33273999999999987  0.3678  1.0000
  C   C99       1.0  0.29084999999999994  0.8816399999999999  0.6766599999999998  1.0000
  C   C100      1.0  0.36425000000000013  0.9302999999999998  0.6608399999999999  1.0000
  C   C101      1.0  0.33990999999999993  0.009519999999999999  0.69929  1.0000
  C   C102      1.0  0.4328000000000001  0.04178999999999999  0.66674  1.0000
  C   C103      1.0  0.5308499999999999  0.9883  0.60278  1.0000
  C   C104      1.0  0.63939  0.0006899999999999997  0.55526  1.0000
  C   C105      1.0  0.7288099999999997  0.9537599999999999  0.4852  1.0000
  C   C106      1.0  0.8228500000000001  0.9848199999999998  0.45169  1.0000
  C   C107      1.0  0.8099299999999998  0.05667  0.49474  1.0000
  C   C108      1.0  0.88854  0.10365  0.47773  1.0000
  C   C109      1.0  0.8805999999999997  0.1725  0.52262  1.0000
  C   C110      1.0  0.97599  0.20186999999999997  0.4882299999999999  1.0000
  C   C111      1.0  0.05984000000000006  0.15631  0.4158799999999999  1.0000
  C   C112      1.0  0.16594999999999996  0.16742  0.36776  1.0000
  S   S1        1.0  0.51324  0.3958499999999999  0.08523  1.0000
  S   S2        1.0  0.15900999999999998  0.58448  0.07937  1.0000
  S   S3        1.0  0.015059999999999947  0.57678  0.8907  1.0000
  S   S4        1.0  0.40135  0.10426999999999997  0.0853  1.0000
  S   S5        1.0  0.76135  0.91576  0.07952  1.0000
  S   S6        1.0  0.09442000000000005  0.9227799999999998  0.89073  1.0000
  S   S7        1.0  0.09092999999999998  0.39567  0.41507  1.0000
  S   S8        1.0  0.25644999999999996  0.5843499999999998  0.42043999999999987  1.0000
  S   S9        1.0  0.40816000000000013  0.57675  0.60911  1.0000
  S   S10       1.0  0.4940700000000001  0.10442999999999997  0.4150399999999999  1.0000
  S   S11       1.0  0.32309000000000015  0.9159499999999998  0.42026999999999987  1.0000
  S   S12       1.0  0.9829100000000001  0.9229299999999998  0.6091  1.0000
  S   S13       1.0  0.4867600000000001  0.6041499999999997  0.91476  1.0000
  S   S14       1.0  0.8409899999999997  0.41552  0.9206299999999998  1.0000
  S   S15       1.0  0.9849399999999999  0.42320999999999986  0.10929  1.0000
  S   S16       1.0  0.59865  0.89573  0.9147  1.0000
  S   S17       1.0  0.23865000000000006  0.08424  0.92048  1.0000
  S   S18       1.0  0.90558  0.07722  0.10927  1.0000
  S   S19       1.0  0.90907  0.60433  0.58493  1.0000
  S   S20       1.0  0.7435499999999999  0.4156499999999999  0.57956  1.0000
  S   S21       1.0  0.59184  0.42325  0.39088  1.0000
  S   S22       1.0  0.5059300000000001  0.89557  0.58496  1.0000
  S   S23       1.0  0.6769099999999998  0.08406  0.57972  1.0000
  S   S24       1.0  0.017089999999999987  0.07706999999999999  0.3909  1.0000
  N   N1        1.0  0.7412200000000002  0.34117  0.18871999999999994  1.0000
  N   N2        1.0  0.73937  0.67572  0.8279  1.0000
  N   N3        1.0  0.06976999999999998  0.15933  0.18843  1.0000
  N   N4        1.0  0.4326900000000003  0.8244899999999997  0.8276899999999998  1.0000
  N   N5        1.0  0.91729  0.34154  0.31103999999999987  1.0000
  N   N6        1.0  0.5847899999999998  0.67599  0.67166  1.0000
  N   N7        1.0  0.7713099999999999  0.15902  0.31144  1.0000
  N   N8        1.0  0.7434100000000001  0.8242  0.67194  1.0000
  N   N9        1.0  0.2587700000000002  0.65883  0.8112699999999998  1.0000
  N   N10       1.0  0.26062999999999986  0.32428  0.17209  1.0000
  N   N11       1.0  0.9302299999999994  0.8406699999999998  0.81157  1.0000
  N   N12       1.0  0.5673099999999999  0.17551  0.17231  1.0000
  N   N13       1.0  0.08271000000000016  0.6584599999999998  0.6889599999999999  1.0000
  N   N14       1.0  0.41520000000000007  0.3240099999999999  0.32834  1.0000
  N   N15       1.0  0.22869000000000023  0.8409799999999997  0.6885599999999997  1.0000
  N   N16       1.0  0.25659  0.17580999999999997  0.32806  1.0000
