data_image0
_chemical_formula_structural       Cd4H76C100N20O16
_chemical_formula_sum              "Cd4 H76 C100 N20 O16"
_cell_length_a       13.59464
_cell_length_b       14.5796
_cell_length_c       14.579620000000002
_cell_angle_alpha    89.90747000000002
_cell_angle_beta     90.0
_cell_angle_gamma    90.0

_symmetry_space_group_name_H-M    'P 1'
_symmetry_Int_Tables_number       1

loop_
  _symmetry_equiv_pos_as_xyz
  'x,y,z'

loop_
  _atom_site_type_symbol
  _atom_site_label
  _atom_site_symmetry_multiplicity
  _atom_site_fract_x
  _atom_site_fract_y
  _atom_site_fract_z
  _atom_site_occupancy
  Cd  Cd1       1.0  0.4999999999999999  0.73837  0.7383699999999997  1.0000
  Cd  Cd2       1.0  0.0  0.26163  0.26162999999999986  1.0000
  Cd  Cd3       1.0  0.75  0.7607100000000001  0.23928999999999995  1.0000
  Cd  Cd4       1.0  0.24999999999999994  0.23929000000000006  0.7607099999999998  1.0000
  H   H1        1.0  0.42846  0.9695800000000002  0.6846299999999997  1.0000
  H   H2        1.0  0.25751999999999997  0.008870000000000003  0.58881  1.0000
  H   H3        1.0  0.2977  0.72038  0.60227  1.0000
  H   H4        1.0  0.20413999999999993  0.95718  0.43256  1.0000
  H   H5        1.0  0.0573  0.9324400000000002  0.33252  1.0000
  H   H6        1.0  0.9612399999999998  0.7144600000000001  0.50796  1.0000
  H   H7        1.0  0.10970999999999997  0.73683  0.6085299999999998  1.0000
  H   H8        1.0  0.4371299999999999  0.52511  0.70757  1.0000
  H   H9        1.0  0.4338299999999999  0.39923  0.59136  1.0000
  H   H10       1.0  0.57153  0.6846300000000002  0.9695799999999998  1.0000
  H   H11       1.0  0.7424799999999998  0.58881  0.008869999999999996  1.0000
  H   H12       1.0  0.7023  0.60226  0.72038  1.0000
  H   H13       1.0  0.79586  0.43256000000000006  0.9571799999999998  1.0000
  H   H14       1.0  0.9426999999999998  0.33252  0.9324399999999998  1.0000
  H   H15       1.0  0.03875999999999999  0.50796  0.7144599999999998  1.0000
  H   H16       1.0  0.89029  0.6085300000000002  0.73683  1.0000
  H   H17       1.0  0.56286  0.7075700000000001  0.5251199999999999  1.0000
  H   H18       1.0  0.56617  0.5913500000000002  0.3992399999999999  1.0000
  H   H19       1.0  0.4999999999999999  0.43273  0.4327299999999999  1.0000
  H   H20       1.0  0.92846  0.030420000000000006  0.31537  1.0000
  H   H21       1.0  0.7575199999999999  0.9911300000000001  0.4111899999999999  1.0000
  H   H22       1.0  0.7977  0.27962  0.39772999999999986  1.0000
  H   H23       1.0  0.70414  0.04282  0.5674399999999998  1.0000
  H   H24       1.0  0.5573  0.06756000000000002  0.66748  1.0000
  H   H25       1.0  0.46124  0.28554  0.49204  1.0000
  H   H26       1.0  0.60971  0.26317  0.39147  1.0000
  H   H27       1.0  0.93713  0.47488  0.2924299999999999  1.0000
  H   H28       1.0  0.93383  0.6007600000000002  0.4086499999999999  1.0000
  H   H29       1.0  0.07153999999999999  0.31537000000000004  0.030419999999999992  1.0000
  H   H30       1.0  0.24248  0.41119  0.9911299999999998  1.0000
  H   H31       1.0  0.2023  0.39773  0.27962  1.0000
  H   H32       1.0  0.29586  0.56744  0.04281999999999998  1.0000
  H   H33       1.0  0.4426999999999999  0.66748  0.06756  1.0000
  H   H34       1.0  0.5387599999999999  0.49204  0.2855399999999999  1.0000
  H   H35       1.0  0.39028999999999997  0.39147000000000004  0.2631699999999999  1.0000
  H   H36       1.0  0.06287  0.29243  0.47487999999999997  1.0000
  H   H37       1.0  0.06616999999999999  0.40864000000000006  0.60076  1.0000
  H   H38       1.0  0.0  0.56727  0.56727  1.0000
  H   H39       1.0  0.6780899999999997  0.8135900000000003  0.4695699999999999  1.0000
  H   H40       1.0  0.50839  0.91097  0.5094799999999999  1.0000
  H   H41       1.0  0.54644  0.8968800000000002  0.22082999999999997  1.0000
  H   H42       1.0  0.4541099999999999  0.0666  0.45850999999999986  1.0000
  H   H43       1.0  0.3074699999999999  0.16714000000000007  0.43381  1.0000
  H   H44       1.0  0.21246  0.99412  0.21404999999999996  1.0000
  H   H45       1.0  0.3599  0.89253  0.23720999999999995  1.0000
  H   H46       1.0  0.68734  0.79158  0.0261  1.0000
  H   H47       1.0  0.68446  0.9077800000000003  0.8999499999999998  1.0000
  H   H48       1.0  0.8219  0.53043  0.18640999999999994  1.0000
  H   H49       1.0  0.99161  0.49052  0.08902999999999997  1.0000
  H   H50       1.0  0.95356  0.77917  0.10312  1.0000
  H   H51       1.0  0.04589  0.54149  0.9333999999999998  1.0000
  H   H52       1.0  0.19253  0.56619  0.8328599999999998  1.0000
  H   H53       1.0  0.28754  0.7859400000000002  0.005879999999999998  1.0000
  H   H54       1.0  0.14009999999999997  0.76279  0.10746999999999997  1.0000
  H   H55       1.0  0.81266  0.9739  0.20841999999999994  1.0000
  H   H56       1.0  0.81554  0.10005000000000001  0.09222  1.0000
  H   H57       1.0  0.75  0.06665  0.93335  1.0000
  H   H58       1.0  0.1781  0.18641  0.53043  1.0000
  H   H59       1.0  0.00839  0.08903000000000001  0.49051999999999996  1.0000
  H   H60       1.0  0.04644  0.10312  0.77917  1.0000
  H   H61       1.0  0.95411  0.9334  0.54149  1.0000
  H   H62       1.0  0.8074699999999998  0.8328500000000001  0.5661899999999997  1.0000
  H   H63       1.0  0.71246  0.00587  0.7859499999999998  1.0000
  H   H64       1.0  0.8598999999999998  0.10747  0.7627899999999999  1.0000
  H   H65       1.0  0.18733999999999995  0.20842000000000005  0.9739  1.0000
  H   H66       1.0  0.18445999999999999  0.09222  0.10005  1.0000
  H   H67       1.0  0.3219  0.46957  0.8135899999999998  1.0000
  H   H68       1.0  0.49161  0.50948  0.9109799999999998  1.0000
  H   H69       1.0  0.45356  0.22083  0.8968799999999999  1.0000
  H   H70       1.0  0.54589  0.4585100000000001  0.0666  1.0000
  H   H71       1.0  0.6925299999999999  0.43381000000000003  0.16713999999999998  1.0000
  H   H72       1.0  0.78754  0.21405  0.9941199999999998  1.0000
  H   H73       1.0  0.6400999999999998  0.23721000000000003  0.8925299999999998  1.0000
  H   H74       1.0  0.31266  0.0261  0.7915799999999997  1.0000
  H   H75       1.0  0.31554  0.89995  0.9077799999999998  1.0000
  H   H76       1.0  0.24999999999999994  0.93335  0.06665  1.0000
  C   C1        1.0  0.37712  0.9231000000000003  0.65224  1.0000
  C   C2        1.0  0.29295  0.9443200000000003  0.6045999999999998  1.0000
  C   C3        1.0  0.31137999999999993  0.79273  0.61253  1.0000
  C   C4        1.0  0.16556999999999997  0.8478600000000002  0.52517  1.0000
  C   C5        1.0  0.15074999999999997  0.9041000000000002  0.44863999999999987  1.0000
  C   C6        1.0  0.06884  0.8900500000000001  0.39306999999999986  1.0000
  C   C7        1.0  0.00072  0.8207600000000003  0.4139299999999999  1.0000
  C   C8        1.0  0.01641  0.76577  0.49151  1.0000
  C   C9        1.0  0.09841  0.7785500000000001  0.54744  1.0000
  C   C10       1.0  0.9113799999999997  0.80667  0.3544199999999999  1.0000
  C   C11       1.0  0.46514  0.53597  0.63859  1.0000
  C   C12       1.0  0.4637799999999999  0.4663  0.57318  1.0000
  C   C13       1.0  0.62288  0.65224  0.9230999999999998  1.0000
  C   C14       1.0  0.7070399999999998  0.60459  0.9443199999999998  1.0000
  C   C15       1.0  0.68862  0.61253  0.79273  1.0000
  C   C16       1.0  0.8344299999999999  0.52517  0.8478599999999997  1.0000
  C   C17       1.0  0.84924  0.44864  0.9041  1.0000
  C   C18       1.0  0.93116  0.3930700000000001  0.8900599999999997  1.0000
  C   C19       1.0  0.9992799999999998  0.41393  0.8207599999999998  1.0000
  C   C20       1.0  0.9835899999999997  0.49151  0.7657699999999997  1.0000
  C   C21       1.0  0.90159  0.54744  0.7785499999999999  1.0000
  C   C22       1.0  0.08861999999999998  0.35442  0.80668  1.0000
  C   C23       1.0  0.53486  0.63859  0.53597  1.0000
  C   C24       1.0  0.53622  0.5731800000000002  0.46629999999999994  1.0000
  C   C25       1.0  0.4999999999999999  0.48554  0.48555  1.0000
  C   C26       1.0  0.87712  0.0769  0.34776  1.0000
  C   C27       1.0  0.79295  0.055680000000000014  0.3954099999999999  1.0000
  C   C28       1.0  0.81138  0.20727  0.38746999999999987  1.0000
  C   C29       1.0  0.6655699999999998  0.15214000000000003  0.47482999999999986  1.0000
  C   C30       1.0  0.6507499999999998  0.0959  0.5513599999999997  1.0000
  C   C31       1.0  0.5688399999999999  0.10994  0.6069299999999997  1.0000
  C   C32       1.0  0.5007199999999999  0.17924  0.58607  1.0000
  C   C33       1.0  0.51641  0.23423  0.5084899999999999  1.0000
  C   C34       1.0  0.59841  0.22145  0.4525599999999999  1.0000
  C   C35       1.0  0.41138  0.19332  0.6455799999999999  1.0000
  C   C36       1.0  0.9651399999999999  0.46403  0.36141  1.0000
  C   C37       1.0  0.9637799999999997  0.5337  0.42681999999999987  1.0000
  C   C38       1.0  0.12288  0.34776  0.0769  1.0000
  C   C39       1.0  0.20704  0.3954  0.05568  1.0000
  C   C40       1.0  0.18861999999999995  0.3874700000000001  0.20726999999999998  1.0000
  C   C41       1.0  0.33443  0.47483  0.15214  1.0000
  C   C42       1.0  0.34924  0.5513600000000001  0.09589999999999997  1.0000
  C   C43       1.0  0.43116  0.60693  0.10994999999999998  1.0000
  C   C44       1.0  0.49928  0.58607  0.17923999999999995  1.0000
  C   C45       1.0  0.4835899999999999  0.50849  0.23422999999999994  1.0000
  C   C46       1.0  0.40159  0.45256  0.22144999999999995  1.0000
  C   C47       1.0  0.5886199999999999  0.64558  0.19332999999999995  1.0000
  C   C48       1.0  0.03486  0.36141  0.4640299999999999  1.0000
  C   C49       1.0  0.03622  0.42682000000000003  0.5337  1.0000
  C   C50       1.0  0.0  0.51445  0.5144599999999999  1.0000
  C   C51       1.0  0.62672  0.8464  0.42328  1.0000
  C   C52       1.0  0.54324  0.8948400000000002  0.4447599999999999  1.0000
  C   C53       1.0  0.56049  0.8864400000000002  0.2931299999999999  1.0000
  C   C54       1.0  0.4157299999999999  0.97492  0.34859  1.0000
  C   C55       1.0  0.4009199999999999  0.05106  0.40515  1.0000
  C   C56       1.0  0.31925999999999993  0.10703  0.39102  1.0000
  C   C57       1.0  0.25149  0.08724  0.32119  1.0000
  C   C58       1.0  0.26718  0.010000000000000002  0.26589  1.0000
  C   C59       1.0  0.3487299999999999  0.95349  0.27897  1.0000
  C   C60       1.0  0.16295  0.14792000000000002  0.30673999999999996  1.0000
  C   C61       1.0  0.71531  0.86056  0.03686  1.0000
  C   C62       1.0  0.71407  0.9260500000000003  0.9670599999999998  1.0000
  C   C63       1.0  0.87328  0.57672  0.1536  1.0000
  C   C64       1.0  0.95676  0.55524  0.10516  1.0000
  C   C65       1.0  0.9395099999999998  0.70687  0.11355999999999997  1.0000
  C   C66       1.0  0.08427  0.65141  0.02508  1.0000
  C   C67       1.0  0.09908  0.59485  0.9489499999999997  1.0000
  C   C68       1.0  0.18073999999999996  0.60898  0.89297  1.0000
  C   C69       1.0  0.24850999999999998  0.67881  0.9127599999999998  1.0000
  C   C70       1.0  0.23281999999999997  0.7341100000000003  0.9899999999999998  1.0000
  C   C71       1.0  0.15127  0.72103  0.04651  1.0000
  C   C72       1.0  0.33705  0.6932600000000002  0.85208  1.0000
  C   C73       1.0  0.78469  0.96313  0.13943999999999995  1.0000
  C   C74       1.0  0.7859199999999997  0.03294  0.07394999999999999  1.0000
  C   C75       1.0  0.75  0.013750000000000004  0.9862499999999997  1.0000
  C   C76       1.0  0.12672  0.1536  0.57672  1.0000
  C   C77       1.0  0.04324  0.10516  0.5552399999999997  1.0000
  C   C78       1.0  0.060489999999999995  0.11356  0.7068699999999999  1.0000
  C   C79       1.0  0.9157199999999998  0.02508  0.65142  1.0000
  C   C80       1.0  0.9009199999999998  0.9489400000000002  0.59485  1.0000
  C   C81       1.0  0.8192599999999998  0.8929700000000003  0.6089799999999997  1.0000
  C   C82       1.0  0.7514899999999998  0.91276  0.6788099999999998  1.0000
  C   C83       1.0  0.7671799999999999  0.99  0.73411  1.0000
  C   C84       1.0  0.84872  0.04651  0.72103  1.0000
  C   C85       1.0  0.6629499999999998  0.85208  0.69326  1.0000
  C   C86       1.0  0.21531  0.13944  0.9631399999999998  1.0000
  C   C87       1.0  0.21407  0.07395000000000003  0.03293999999999999  1.0000
  C   C88       1.0  0.3732799999999999  0.42328  0.8463999999999998  1.0000
  C   C89       1.0  0.45675999999999994  0.44476000000000004  0.8948399999999997  1.0000
  C   C90       1.0  0.43951  0.29313  0.88644  1.0000
  C   C91       1.0  0.58427  0.34858  0.9749199999999998  1.0000
  C   C92       1.0  0.5990799999999998  0.40515  0.05106  1.0000
  C   C93       1.0  0.6807399999999998  0.39102  0.10703  1.0000
  C   C94       1.0  0.7485099999999999  0.32119  0.08724  1.0000
  C   C95       1.0  0.7328199999999998  0.26589  0.009999999999999997  1.0000
  C   C96       1.0  0.6512699999999998  0.2789700000000001  0.95349  1.0000
  C   C97       1.0  0.8370499999999998  0.30674000000000007  0.14792  1.0000
  C   C98       1.0  0.28469  0.03686000000000001  0.8605599999999998  1.0000
  C   C99       1.0  0.28593  0.96706  0.9260499999999998  1.0000
  C   C100      1.0  0.24999999999999994  0.98625  0.013749999999999998  1.0000
  N   N1        1.0  0.38784  0.8286800000000002  0.6562  1.0000
  N   N2        1.0  0.25136  0.86081  0.57967  1.0000
  N   N3        1.0  0.61216  0.6562  0.8286799999999998  1.0000
  N   N4        1.0  0.7486399999999999  0.5796700000000001  0.8608199999999998  1.0000
  N   N5        1.0  0.4999999999999999  0.6208  0.6208  1.0000
  N   N6        1.0  0.8878399999999999  0.17132  0.3437999999999999  1.0000
  N   N7        1.0  0.7513599999999998  0.13918  0.42032999999999987  1.0000
  N   N8        1.0  0.11215999999999997  0.3438  0.17132  1.0000
  N   N9        1.0  0.24863999999999997  0.42033  0.13917999999999997  1.0000
  N   N10       1.0  0.0  0.3792  0.37919999999999987  1.0000
  N   N11       1.0  0.63674  0.84212  0.3288199999999999  1.0000
  N   N12       1.0  0.5012499999999999  0.91996  0.36139999999999994  1.0000
  N   N13       1.0  0.86326  0.67118  0.15788  1.0000
  N   N14       1.0  0.99875  0.6386  0.08003999999999999  1.0000
  N   N15       1.0  0.75  0.8782900000000002  0.12170999999999997  1.0000
  N   N16       1.0  0.13674  0.15788000000000005  0.6711799999999998  1.0000
  N   N17       1.0  0.0012499999999999996  0.08004  0.6385999999999997  1.0000
  N   N18       1.0  0.36325999999999997  0.32882  0.84212  1.0000
  N   N19       1.0  0.49875  0.3614  0.9199599999999998  1.0000
  N   N20       1.0  0.24999999999999994  0.12171  0.87829  1.0000
  O   O1        1.0  0.8995399999999998  0.86056  0.2867899999999999  1.0000
  O   O2        1.0  0.8528  0.7410000000000002  0.3749399999999999  1.0000
  O   O3        1.0  0.10045999999999997  0.28679  0.8605599999999998  1.0000
  O   O4        1.0  0.14719999999999997  0.3749400000000001  0.7409999999999998  1.0000
  O   O5        1.0  0.39954  0.13944  0.7132099999999998  1.0000
  O   O6        1.0  0.3528  0.259  0.6250599999999997  1.0000
  O   O7        1.0  0.60046  0.71321  0.13943999999999995  1.0000
  O   O8        1.0  0.6472  0.6250600000000002  0.259  1.0000
  O   O9        1.0  0.15163999999999997  0.21553  0.3606  1.0000
  O   O10       1.0  0.10457999999999999  0.12854  0.2407  1.0000
  O   O11       1.0  0.34835  0.6394  0.78447  1.0000
  O   O12       1.0  0.39542  0.7593  0.87146  1.0000
  O   O13       1.0  0.65164  0.78447  0.6393999999999997  1.0000
  O   O14       1.0  0.6045799999999998  0.87146  0.75931  1.0000
  O   O15       1.0  0.8483499999999999  0.3606  0.21552999999999994  1.0000
  O   O16       1.0  0.8954199999999998  0.2407  0.12853999999999996  1.0000
